data_str_m2_o1_o17_pcu_sym.23
_audit_creation_date              2020-01-03
_audit_creation_method            'Materials Studio'
_symmetry_space_group_name_H-M    'P1'
_symmetry_Int_Tables_number       1
_symmetry_cell_setting            triclinic
loop_
_symmetry_equiv_pos_as_xyz
  x,y,z
_cell_length_a                    32.4923
_cell_length_b                    28.8327
_cell_length_c                    29.9940
_cell_angle_alpha                 90.3592
_cell_angle_beta                  91.7720
_cell_angle_gamma                 90.0170
loop_
_atom_site_label
_atom_site_type_symbol
_atom_site_fract_x
_atom_site_fract_y
_atom_site_fract_z
_atom_site_U_iso_or_equiv
_atom_site_adp_type
_atom_site_occupancy
C1     C     0.08745   0.16674   0.25032   0.00000  Uiso   1.00
C2     C     0.04279   0.16707   0.25079   0.00000  Uiso   1.00
C3     C     0.14305   0.02475   0.21930   0.00000  Uiso   1.00
C4     C     0.18932   0.30875   0.28155   0.00000  Uiso   1.00
C5     C     0.19085   0.02529   0.28019   0.00000  Uiso   1.00
C6     C     0.14398   0.30823   0.21847   0.00000  Uiso   1.00
C7     C     0.16690   0.16651   0.16462   0.00000  Uiso   1.00
C8     C     0.16645   0.16664   0.33538   0.00000  Uiso   1.00
C9     C     0.20091   0.17992   0.40758   0.00000  Uiso   1.00
C10    C     0.13420   0.14783   0.09253   0.00000  Uiso   1.00
C11    C     0.16566   0.16607   0.38357   0.00000  Uiso   1.00
C12    C     0.24588   0.16675   0.24990   0.00000  Uiso   1.00
C13    C     0.16799   0.16600   0.11646   0.00000  Uiso   1.00
C14    C     0.13092   0.14931   0.40520   0.00000  Uiso   1.00
C15    C     0.20219   0.18395   0.09472   0.00000  Uiso   1.00
C16    C     0.13142   0.14825   0.45230   0.00000  Uiso   1.00
C17    C     0.20237   0.18296   0.04767   0.00000  Uiso   1.00
C18    C     0.16673   0.16471   0.47654   0.00000  Uiso   1.00
C19    C     0.16750   0.16528   0.02349   0.00000  Uiso   1.00
C20    C     0.20139   0.18054   0.45389   0.00000  Uiso   1.00
C21    C     0.13336   0.14807   0.04618   0.00000  Uiso   1.00
C22    C     0.09753   0.13201   0.47584   0.00000  Uiso   1.00
C23    C     0.09872   0.13154   0.02225   0.00000  Uiso   1.00
C24    C     0.23656   0.19839   0.02415   0.00000  Uiso   1.00
C25    C     0.06564   0.16876   0.36944   0.00000  Uiso   1.00
C26    C     0.26758   0.16914   0.13242   0.00000  Uiso   1.00
C27    C     0.07570   0.04455   0.18459   0.00000  Uiso   1.00
C28    C     0.19717   0.29007   0.36051   0.00000  Uiso   1.00
C29    C     0.25987   0.04215   0.31360   0.00000  Uiso   1.00
C30    C     0.13382   0.28551   0.14017   0.00000  Uiso   1.00
C31    C     0.23610   0.19687   0.47779   0.00000  Uiso   1.00
C32    C     0.02119   0.12513   0.25076   0.00000  Uiso   1.00
C33    C     0.31205   0.20927   0.25114   0.00000  Uiso   1.00
C34    C     0.31205   0.12515   0.24847   0.00000  Uiso   1.00
C35    C     0.02135   0.20927   0.25106   0.00000  Uiso   1.00
C36    C     0.29054   0.16709   0.24978   0.00000  Uiso   1.00
Cu37   Cu    0.16667   0.21355   0.25000   0.00000  Uiso   1.00
Cu38   Cu    0.16667   0.11978   0.25000   0.00000  Uiso   1.00
H39    H     0.22808   0.19013   0.38995   0.00000  Uiso   1.00
H40    H     0.03741   0.24221   0.25148   0.00000  Uiso   1.00
H41    H     0.08397   0.10240   0.38892   0.00000  Uiso   1.00
H42    H     0.05228   0.18174   0.40081   0.00000  Uiso   1.00
H43    H     0.04049   0.15382   0.34797   0.00000  Uiso   1.00
H44    H     0.07959   0.19815   0.35147   0.00000  Uiso   1.00
H45    H     0.24723   0.23356   0.10948   0.00000  Uiso   1.00
H46    H     0.28198   0.15535   0.10196   0.00000  Uiso   1.00
H47    H     0.25439   0.13998   0.15135   0.00000  Uiso   1.00
H48    H     0.29179   0.18618   0.15368   0.00000  Uiso   1.00
H49    H     0.13350   0.05213   0.15578   0.00000  Uiso   1.00
H50    H     0.10814   0.13444   0.11024   0.00000  Uiso   1.00
H51    H     0.06584   0.02244   0.15581   0.00000  Uiso   1.00
H52    H     0.06145   0.07913   0.17953   0.00000  Uiso   1.00
H53    H     0.06439   0.02904   0.21575   0.00000  Uiso   1.00
H54    H     0.24289   0.28424   0.31269   0.00000  Uiso   1.00
H55    H     0.20204   0.32570   0.37307   0.00000  Uiso   1.00
H56    H     0.21512   0.26740   0.38337   0.00000  Uiso   1.00
H57    H     0.16397   0.28129   0.36214   0.00000  Uiso   1.00
H58    H     0.20298   0.05932   0.34099   0.00000  Uiso   1.00
H59    H     0.26778   0.01998   0.34272   0.00000  Uiso   1.00
H60    H     0.27634   0.07549   0.31886   0.00000  Uiso   1.00
H61    H     0.06974   0.11972   0.45891   0.00000  Uiso   1.00
H62    H     0.27050   0.02535   0.28255   0.00000  Uiso   1.00
H63    H     0.08899   0.28453   0.18912   0.00000  Uiso   1.00
H64    H     0.12037   0.31595   0.12282   0.00000  Uiso   1.00
H65    H     0.12298   0.25419   0.12160   0.00000  Uiso   1.00
H66    H     0.16798   0.28696   0.13906   0.00000  Uiso   1.00
H67    H     0.26412   0.21130   0.04110   0.00000  Uiso   1.00
H68    H     0.07227   0.11859   0.03949   0.00000  Uiso   1.00
H69    H     0.26289   0.20891   0.46055   0.00000  Uiso   1.00
H70    H     0.03698   0.09226   0.25248   0.00000  Uiso   1.00
H71    H     0.29605   0.24221   0.25190   0.00000  Uiso   1.00
H72    H     0.29618   0.09231   0.24573   0.00000  Uiso   1.00
N73    N     0.16667   0.28402   0.25000   0.00000  Uiso   1.00
N74    N     0.16667   0.04931   0.25000   0.00000  Uiso   1.00
N75    N     0.09624   0.13351   0.37903   0.00000  Uiso   1.00
N76    N     0.23588   0.20250   0.12071   0.00000  Uiso   1.00
N77    N     0.12002   0.04973   0.18632   0.00000  Uiso   1.00
N78    N     0.21139   0.28405   0.31545   0.00000  Uiso   1.00
N79    N     0.21604   0.05104   0.31115   0.00000  Uiso   1.00
N80    N     0.12041   0.28296   0.18578   0.00000  Uiso   1.00
O81    O     0.10655   0.20625   0.25000   0.00000  Uiso   1.00
O82    O     0.22679   0.12709   0.25001   0.00000  Uiso   1.00
O83    O     0.22679   0.20625   0.25001   0.00000  Uiso   1.00
O84    O     0.10655   0.12709   0.25000   0.00000  Uiso   1.00
O85    O     0.16666   0.20627   0.18513   0.00000  Uiso   1.00
O86    O     0.16668   0.12707   0.31487   0.00000  Uiso   1.00
O87    O     0.16668   0.20627   0.31487   0.00000  Uiso   1.00
O88    O     0.16666   0.12707   0.18513   0.00000  Uiso   1.00
C89    C     0.42079   0.16674   0.25032   0.00000  Uiso   1.00
C90    C     0.37612   0.16707   0.25079   0.00000  Uiso   1.00
C91    C     0.47638   0.02475   0.21930   0.00000  Uiso   1.00
C92    C     0.52266   0.30875   0.28155   0.00000  Uiso   1.00
C93    C     0.52418   0.02529   0.28019   0.00000  Uiso   1.00
C94    C     0.47731   0.30823   0.21847   0.00000  Uiso   1.00
C95    C     0.50023   0.16651   0.16462   0.00000  Uiso   1.00
C96    C     0.49978   0.16664   0.33538   0.00000  Uiso   1.00
C97    C     0.53424   0.17992   0.40758   0.00000  Uiso   1.00
C98    C     0.46753   0.14783   0.09253   0.00000  Uiso   1.00
C99    C     0.49899   0.16607   0.38357   0.00000  Uiso   1.00
C100   C     0.57921   0.16675   0.24990   0.00000  Uiso   1.00
C101   C     0.50132   0.16600   0.11646   0.00000  Uiso   1.00
C102   C     0.46425   0.14931   0.40520   0.00000  Uiso   1.00
C103   C     0.53552   0.18395   0.09472   0.00000  Uiso   1.00
C104   C     0.46475   0.14825   0.45230   0.00000  Uiso   1.00
C105   C     0.53570   0.18296   0.04767   0.00000  Uiso   1.00
C106   C     0.50006   0.16471   0.47654   0.00000  Uiso   1.00
C107   C     0.50083   0.16528   0.02349   0.00000  Uiso   1.00
C108   C     0.53473   0.18054   0.45389   0.00000  Uiso   1.00
C109   C     0.46669   0.14807   0.04618   0.00000  Uiso   1.00
C110   C     0.43086   0.13201   0.47584   0.00000  Uiso   1.00
C111   C     0.43206   0.13154   0.02225   0.00000  Uiso   1.00
C112   C     0.56989   0.19839   0.02415   0.00000  Uiso   1.00
C113   C     0.39897   0.16876   0.36944   0.00000  Uiso   1.00
C114   C     0.60091   0.16914   0.13242   0.00000  Uiso   1.00
C115   C     0.40903   0.04455   0.18459   0.00000  Uiso   1.00
C116   C     0.53051   0.29007   0.36051   0.00000  Uiso   1.00
C117   C     0.59320   0.04215   0.31360   0.00000  Uiso   1.00
C118   C     0.46716   0.28551   0.14017   0.00000  Uiso   1.00
C119   C     0.56944   0.19687   0.47779   0.00000  Uiso   1.00
C120   C     0.35453   0.12513   0.25076   0.00000  Uiso   1.00
C121   C     0.64538   0.20927   0.25114   0.00000  Uiso   1.00
C122   C     0.64538   0.12515   0.24847   0.00000  Uiso   1.00
C123   C     0.35469   0.20927   0.25106   0.00000  Uiso   1.00
C124   C     0.62387   0.16709   0.24978   0.00000  Uiso   1.00
Cu125  Cu    0.50000   0.21355   0.25000   0.00000  Uiso   1.00
Cu126  Cu    0.50000   0.11978   0.25000   0.00000  Uiso   1.00
H127   H     0.56142   0.19013   0.38995   0.00000  Uiso   1.00
H128   H     0.37074   0.24221   0.25148   0.00000  Uiso   1.00
H129   H     0.41730   0.10240   0.38892   0.00000  Uiso   1.00
H130   H     0.38561   0.18174   0.40081   0.00000  Uiso   1.00
H131   H     0.37383   0.15382   0.34797   0.00000  Uiso   1.00
H132   H     0.41293   0.19815   0.35147   0.00000  Uiso   1.00
H133   H     0.58056   0.23356   0.10948   0.00000  Uiso   1.00
H134   H     0.61531   0.15535   0.10196   0.00000  Uiso   1.00
H135   H     0.58773   0.13998   0.15135   0.00000  Uiso   1.00
H136   H     0.62512   0.18618   0.15368   0.00000  Uiso   1.00
H137   H     0.46684   0.05213   0.15578   0.00000  Uiso   1.00
H138   H     0.44147   0.13444   0.11024   0.00000  Uiso   1.00
H139   H     0.39917   0.02244   0.15581   0.00000  Uiso   1.00
H140   H     0.39479   0.07913   0.17953   0.00000  Uiso   1.00
H141   H     0.39772   0.02904   0.21575   0.00000  Uiso   1.00
H142   H     0.57622   0.28424   0.31269   0.00000  Uiso   1.00
H143   H     0.53537   0.32570   0.37307   0.00000  Uiso   1.00
H144   H     0.54845   0.26740   0.38337   0.00000  Uiso   1.00
H145   H     0.49730   0.28129   0.36214   0.00000  Uiso   1.00
H146   H     0.53632   0.05932   0.34099   0.00000  Uiso   1.00
H147   H     0.60111   0.01998   0.34272   0.00000  Uiso   1.00
H148   H     0.60968   0.07549   0.31886   0.00000  Uiso   1.00
H149   H     0.40307   0.11972   0.45891   0.00000  Uiso   1.00
H150   H     0.60383   0.02535   0.28255   0.00000  Uiso   1.00
H151   H     0.42232   0.28453   0.18912   0.00000  Uiso   1.00
H152   H     0.45371   0.31595   0.12282   0.00000  Uiso   1.00
H153   H     0.45631   0.25419   0.12160   0.00000  Uiso   1.00
H154   H     0.50131   0.28696   0.13906   0.00000  Uiso   1.00
H155   H     0.59745   0.21130   0.04110   0.00000  Uiso   1.00
H156   H     0.40561   0.11859   0.03949   0.00000  Uiso   1.00
H157   H     0.59622   0.20891   0.46055   0.00000  Uiso   1.00
H158   H     0.37031   0.09226   0.25248   0.00000  Uiso   1.00
H159   H     0.62938   0.24221   0.25190   0.00000  Uiso   1.00
H160   H     0.62951   0.09231   0.24573   0.00000  Uiso   1.00
N161   N     0.50000   0.28402   0.25000   0.00000  Uiso   1.00
N162   N     0.50000   0.04931   0.25000   0.00000  Uiso   1.00
N163   N     0.42958   0.13351   0.37903   0.00000  Uiso   1.00
N164   N     0.56921   0.20250   0.12071   0.00000  Uiso   1.00
N165   N     0.45335   0.04973   0.18632   0.00000  Uiso   1.00
N166   N     0.54472   0.28405   0.31545   0.00000  Uiso   1.00
N167   N     0.54938   0.05104   0.31115   0.00000  Uiso   1.00
N168   N     0.45374   0.28296   0.18578   0.00000  Uiso   1.00
O169   O     0.43988   0.20625   0.25000   0.00000  Uiso   1.00
O170   O     0.56012   0.12709   0.25001   0.00000  Uiso   1.00
O171   O     0.56012   0.20625   0.25001   0.00000  Uiso   1.00
O172   O     0.43988   0.12709   0.25000   0.00000  Uiso   1.00
O173   O     0.49999   0.20627   0.18513   0.00000  Uiso   1.00
O174   O     0.50001   0.12707   0.31487   0.00000  Uiso   1.00
O175   O     0.50001   0.20627   0.31487   0.00000  Uiso   1.00
O176   O     0.49999   0.12707   0.18513   0.00000  Uiso   1.00
C177   C     0.75412   0.16674   0.25032   0.00000  Uiso   1.00
C178   C     0.70946   0.16707   0.25079   0.00000  Uiso   1.00
C179   C     0.80972   0.02475   0.21930   0.00000  Uiso   1.00
C180   C     0.85599   0.30875   0.28155   0.00000  Uiso   1.00
C181   C     0.85752   0.02529   0.28019   0.00000  Uiso   1.00
C182   C     0.81064   0.30823   0.21847   0.00000  Uiso   1.00
C183   C     0.83356   0.16651   0.16462   0.00000  Uiso   1.00
C184   C     0.83311   0.16664   0.33538   0.00000  Uiso   1.00
C185   C     0.86757   0.17992   0.40758   0.00000  Uiso   1.00
C186   C     0.80087   0.14783   0.09253   0.00000  Uiso   1.00
C187   C     0.83232   0.16607   0.38357   0.00000  Uiso   1.00
C188   C     0.91255   0.16675   0.24990   0.00000  Uiso   1.00
C189   C     0.83466   0.16600   0.11646   0.00000  Uiso   1.00
C190   C     0.79759   0.14931   0.40520   0.00000  Uiso   1.00
C191   C     0.86885   0.18395   0.09472   0.00000  Uiso   1.00
C192   C     0.79808   0.14825   0.45230   0.00000  Uiso   1.00
C193   C     0.86904   0.18296   0.04767   0.00000  Uiso   1.00
C194   C     0.83339   0.16471   0.47654   0.00000  Uiso   1.00
C195   C     0.83416   0.16528   0.02349   0.00000  Uiso   1.00
C196   C     0.86806   0.18054   0.45389   0.00000  Uiso   1.00
C197   C     0.80003   0.14807   0.04618   0.00000  Uiso   1.00
C198   C     0.76419   0.13201   0.47584   0.00000  Uiso   1.00
C199   C     0.76539   0.13154   0.02225   0.00000  Uiso   1.00
C200   C     0.90322   0.19839   0.02415   0.00000  Uiso   1.00
C201   C     0.73231   0.16876   0.36944   0.00000  Uiso   1.00
C202   C     0.93425   0.16914   0.13242   0.00000  Uiso   1.00
C203   C     0.74237   0.04455   0.18459   0.00000  Uiso   1.00
C204   C     0.86384   0.29007   0.36051   0.00000  Uiso   1.00
C205   C     0.92653   0.04215   0.31360   0.00000  Uiso   1.00
C206   C     0.80049   0.28551   0.14017   0.00000  Uiso   1.00
C207   C     0.90277   0.19687   0.47779   0.00000  Uiso   1.00
C208   C     0.68786   0.12513   0.25076   0.00000  Uiso   1.00
C209   C     0.97871   0.20927   0.25114   0.00000  Uiso   1.00
C210   C     0.97871   0.12515   0.24847   0.00000  Uiso   1.00
C211   C     0.68802   0.20927   0.25106   0.00000  Uiso   1.00
C212   C     0.95721   0.16709   0.24978   0.00000  Uiso   1.00
Cu213  Cu    0.83333   0.21355   0.25000   0.00000  Uiso   1.00
Cu214  Cu    0.83333   0.11978   0.25000   0.00000  Uiso   1.00
H215   H     0.89475   0.19013   0.38995   0.00000  Uiso   1.00
H216   H     0.70407   0.24221   0.25148   0.00000  Uiso   1.00
H217   H     0.75064   0.10240   0.38892   0.00000  Uiso   1.00
H218   H     0.71895   0.18174   0.40081   0.00000  Uiso   1.00
H219   H     0.70716   0.15382   0.34797   0.00000  Uiso   1.00
H220   H     0.74626   0.19815   0.35147   0.00000  Uiso   1.00
H221   H     0.91389   0.23356   0.10948   0.00000  Uiso   1.00
H222   H     0.94864   0.15535   0.10196   0.00000  Uiso   1.00
H223   H     0.92106   0.13998   0.15135   0.00000  Uiso   1.00
H224   H     0.95846   0.18618   0.15368   0.00000  Uiso   1.00
H225   H     0.80017   0.05213   0.15578   0.00000  Uiso   1.00
H226   H     0.77480   0.13444   0.11024   0.00000  Uiso   1.00
H227   H     0.73251   0.02244   0.15581   0.00000  Uiso   1.00
H228   H     0.72812   0.07913   0.17953   0.00000  Uiso   1.00
H229   H     0.73106   0.02904   0.21575   0.00000  Uiso   1.00
H230   H     0.90955   0.28424   0.31269   0.00000  Uiso   1.00
H231   H     0.86871   0.32570   0.37307   0.00000  Uiso   1.00
H232   H     0.88179   0.26740   0.38337   0.00000  Uiso   1.00
H233   H     0.83063   0.28129   0.36214   0.00000  Uiso   1.00
H234   H     0.86965   0.05932   0.34099   0.00000  Uiso   1.00
H235   H     0.93445   0.01998   0.34272   0.00000  Uiso   1.00
H236   H     0.94301   0.07549   0.31886   0.00000  Uiso   1.00
H237   H     0.73641   0.11972   0.45891   0.00000  Uiso   1.00
H238   H     0.93716   0.02535   0.28255   0.00000  Uiso   1.00
H239   H     0.75566   0.28453   0.18912   0.00000  Uiso   1.00
H240   H     0.78704   0.31595   0.12282   0.00000  Uiso   1.00
H241   H     0.78965   0.25419   0.12160   0.00000  Uiso   1.00
H242   H     0.83464   0.28696   0.13906   0.00000  Uiso   1.00
H243   H     0.93078   0.21130   0.04110   0.00000  Uiso   1.00
H244   H     0.73894   0.11859   0.03949   0.00000  Uiso   1.00
H245   H     0.92955   0.20891   0.46055   0.00000  Uiso   1.00
H246   H     0.70365   0.09226   0.25248   0.00000  Uiso   1.00
H247   H     0.96271   0.24221   0.25190   0.00000  Uiso   1.00
H248   H     0.96284   0.09231   0.24573   0.00000  Uiso   1.00
N249   N     0.83333   0.28402   0.25000   0.00000  Uiso   1.00
N250   N     0.83333   0.04931   0.25000   0.00000  Uiso   1.00
N251   N     0.76291   0.13351   0.37903   0.00000  Uiso   1.00
N252   N     0.90254   0.20250   0.12071   0.00000  Uiso   1.00
N253   N     0.78668   0.04973   0.18632   0.00000  Uiso   1.00
N254   N     0.87805   0.28405   0.31545   0.00000  Uiso   1.00
N255   N     0.88271   0.05104   0.31115   0.00000  Uiso   1.00
N256   N     0.78708   0.28296   0.18578   0.00000  Uiso   1.00
O257   O     0.77321   0.20625   0.25000   0.00000  Uiso   1.00
O258   O     0.89345   0.12709   0.25001   0.00000  Uiso   1.00
O259   O     0.89345   0.20625   0.25001   0.00000  Uiso   1.00
O260   O     0.77321   0.12709   0.25000   0.00000  Uiso   1.00
O261   O     0.83332   0.20627   0.18513   0.00000  Uiso   1.00
O262   O     0.83334   0.12707   0.31487   0.00000  Uiso   1.00
O263   O     0.83334   0.20627   0.31487   0.00000  Uiso   1.00
O264   O     0.83332   0.12707   0.18513   0.00000  Uiso   1.00
C265   C     0.08745   0.50007   0.25032   0.00000  Uiso   1.00
C266   C     0.04279   0.50041   0.25079   0.00000  Uiso   1.00
C267   C     0.14305   0.35808   0.21930   0.00000  Uiso   1.00
C268   C     0.18932   0.64209   0.28155   0.00000  Uiso   1.00
C269   C     0.19085   0.35862   0.28019   0.00000  Uiso   1.00
C270   C     0.14398   0.64156   0.21847   0.00000  Uiso   1.00
C271   C     0.16690   0.49984   0.16462   0.00000  Uiso   1.00
C272   C     0.16645   0.49998   0.33538   0.00000  Uiso   1.00
C273   C     0.20091   0.51326   0.40758   0.00000  Uiso   1.00
C274   C     0.13420   0.48116   0.09253   0.00000  Uiso   1.00
C275   C     0.16566   0.49941   0.38357   0.00000  Uiso   1.00
C276   C     0.24588   0.50008   0.24990   0.00000  Uiso   1.00
C277   C     0.16799   0.49934   0.11646   0.00000  Uiso   1.00
C278   C     0.13092   0.48265   0.40520   0.00000  Uiso   1.00
C279   C     0.20219   0.51729   0.09472   0.00000  Uiso   1.00
C280   C     0.13142   0.48158   0.45230   0.00000  Uiso   1.00
C281   C     0.20237   0.51629   0.04767   0.00000  Uiso   1.00
C282   C     0.16673   0.49804   0.47654   0.00000  Uiso   1.00
C283   C     0.16750   0.49861   0.02349   0.00000  Uiso   1.00
C284   C     0.20139   0.51387   0.45389   0.00000  Uiso   1.00
C285   C     0.13336   0.48140   0.04618   0.00000  Uiso   1.00
C286   C     0.09753   0.46534   0.47584   0.00000  Uiso   1.00
C287   C     0.09872   0.46487   0.02225   0.00000  Uiso   1.00
C288   C     0.23656   0.53173   0.02415   0.00000  Uiso   1.00
C289   C     0.06564   0.50209   0.36944   0.00000  Uiso   1.00
C290   C     0.26758   0.50248   0.13242   0.00000  Uiso   1.00
C291   C     0.07570   0.37789   0.18459   0.00000  Uiso   1.00
C292   C     0.19717   0.62341   0.36051   0.00000  Uiso   1.00
C293   C     0.25987   0.37548   0.31360   0.00000  Uiso   1.00
C294   C     0.13382   0.61884   0.14017   0.00000  Uiso   1.00
C295   C     0.23610   0.53020   0.47779   0.00000  Uiso   1.00
C296   C     0.02119   0.45847   0.25076   0.00000  Uiso   1.00
C297   C     0.31205   0.54261   0.25114   0.00000  Uiso   1.00
C298   C     0.31205   0.45848   0.24847   0.00000  Uiso   1.00
C299   C     0.02135   0.54260   0.25106   0.00000  Uiso   1.00
C300   C     0.29054   0.50042   0.24978   0.00000  Uiso   1.00
Cu301  Cu    0.16667   0.54689   0.25000   0.00000  Uiso   1.00
Cu302  Cu    0.16667   0.45311   0.25000   0.00000  Uiso   1.00
H303   H     0.22808   0.52346   0.38995   0.00000  Uiso   1.00
H304   H     0.03741   0.57554   0.25148   0.00000  Uiso   1.00
H305   H     0.08397   0.43573   0.38892   0.00000  Uiso   1.00
H306   H     0.05228   0.51507   0.40081   0.00000  Uiso   1.00
H307   H     0.04049   0.48715   0.34797   0.00000  Uiso   1.00
H308   H     0.07959   0.53148   0.35147   0.00000  Uiso   1.00
H309   H     0.24723   0.56689   0.10948   0.00000  Uiso   1.00
H310   H     0.28198   0.48868   0.10196   0.00000  Uiso   1.00
H311   H     0.25439   0.47331   0.15135   0.00000  Uiso   1.00
H312   H     0.29179   0.51951   0.15368   0.00000  Uiso   1.00
H313   H     0.13350   0.38547   0.15578   0.00000  Uiso   1.00
H314   H     0.10814   0.46777   0.11024   0.00000  Uiso   1.00
H315   H     0.06584   0.35577   0.15581   0.00000  Uiso   1.00
H316   H     0.06145   0.41246   0.17953   0.00000  Uiso   1.00
H317   H     0.06439   0.36237   0.21575   0.00000  Uiso   1.00
H318   H     0.24289   0.61758   0.31269   0.00000  Uiso   1.00
H319   H     0.20204   0.65904   0.37307   0.00000  Uiso   1.00
H320   H     0.21512   0.60073   0.38337   0.00000  Uiso   1.00
H321   H     0.16397   0.61463   0.36214   0.00000  Uiso   1.00
H322   H     0.20298   0.39266   0.34099   0.00000  Uiso   1.00
H323   H     0.26778   0.35331   0.34272   0.00000  Uiso   1.00
H324   H     0.27634   0.40883   0.31886   0.00000  Uiso   1.00
H325   H     0.06974   0.45305   0.45891   0.00000  Uiso   1.00
H326   H     0.27050   0.35869   0.28255   0.00000  Uiso   1.00
H327   H     0.08899   0.61787   0.18912   0.00000  Uiso   1.00
H328   H     0.12037   0.64928   0.12282   0.00000  Uiso   1.00
H329   H     0.12298   0.58753   0.12160   0.00000  Uiso   1.00
H330   H     0.16798   0.62029   0.13906   0.00000  Uiso   1.00
H331   H     0.26412   0.54464   0.04110   0.00000  Uiso   1.00
H332   H     0.07227   0.45192   0.03949   0.00000  Uiso   1.00
H333   H     0.26289   0.54224   0.46055   0.00000  Uiso   1.00
H334   H     0.03698   0.42560   0.25248   0.00000  Uiso   1.00
H335   H     0.29605   0.57554   0.25190   0.00000  Uiso   1.00
H336   H     0.29618   0.42564   0.24573   0.00000  Uiso   1.00
N337   N     0.16667   0.61736   0.25000   0.00000  Uiso   1.00
N338   N     0.16667   0.38264   0.25000   0.00000  Uiso   1.00
N339   N     0.09624   0.46684   0.37903   0.00000  Uiso   1.00
N340   N     0.23588   0.53584   0.12071   0.00000  Uiso   1.00
N341   N     0.12002   0.38307   0.18632   0.00000  Uiso   1.00
N342   N     0.21139   0.61738   0.31545   0.00000  Uiso   1.00
N343   N     0.21604   0.38438   0.31115   0.00000  Uiso   1.00
N344   N     0.12041   0.61629   0.18578   0.00000  Uiso   1.00
O345   O     0.10655   0.53958   0.25000   0.00000  Uiso   1.00
O346   O     0.22679   0.46042   0.25001   0.00000  Uiso   1.00
O347   O     0.22679   0.53958   0.25001   0.00000  Uiso   1.00
O348   O     0.10655   0.46042   0.25000   0.00000  Uiso   1.00
O349   O     0.16666   0.53960   0.18513   0.00000  Uiso   1.00
O350   O     0.16668   0.46040   0.31487   0.00000  Uiso   1.00
O351   O     0.16668   0.53960   0.31487   0.00000  Uiso   1.00
O352   O     0.16666   0.46040   0.18513   0.00000  Uiso   1.00
C353   C     0.42079   0.50007   0.25032   0.00000  Uiso   1.00
C354   C     0.37612   0.50041   0.25079   0.00000  Uiso   1.00
C355   C     0.47638   0.35808   0.21930   0.00000  Uiso   1.00
C356   C     0.52266   0.64209   0.28155   0.00000  Uiso   1.00
C357   C     0.52418   0.35862   0.28019   0.00000  Uiso   1.00
C358   C     0.47731   0.64156   0.21847   0.00000  Uiso   1.00
C359   C     0.50023   0.49984   0.16462   0.00000  Uiso   1.00
C360   C     0.49978   0.49998   0.33538   0.00000  Uiso   1.00
C361   C     0.53424   0.51326   0.40758   0.00000  Uiso   1.00
C362   C     0.46753   0.48116   0.09253   0.00000  Uiso   1.00
C363   C     0.49899   0.49941   0.38357   0.00000  Uiso   1.00
C364   C     0.57921   0.50008   0.24990   0.00000  Uiso   1.00
C365   C     0.50132   0.49934   0.11646   0.00000  Uiso   1.00
C366   C     0.46425   0.48265   0.40520   0.00000  Uiso   1.00
C367   C     0.53552   0.51729   0.09472   0.00000  Uiso   1.00
C368   C     0.46475   0.48158   0.45230   0.00000  Uiso   1.00
C369   C     0.53570   0.51629   0.04767   0.00000  Uiso   1.00
C370   C     0.50006   0.49804   0.47654   0.00000  Uiso   1.00
C371   C     0.50083   0.49861   0.02349   0.00000  Uiso   1.00
C372   C     0.53473   0.51387   0.45389   0.00000  Uiso   1.00
C373   C     0.46669   0.48140   0.04618   0.00000  Uiso   1.00
C374   C     0.43086   0.46534   0.47584   0.00000  Uiso   1.00
C375   C     0.43206   0.46487   0.02225   0.00000  Uiso   1.00
C376   C     0.56989   0.53173   0.02415   0.00000  Uiso   1.00
C377   C     0.39897   0.50209   0.36944   0.00000  Uiso   1.00
C378   C     0.60091   0.50248   0.13242   0.00000  Uiso   1.00
C379   C     0.40903   0.37789   0.18459   0.00000  Uiso   1.00
C380   C     0.53051   0.62341   0.36051   0.00000  Uiso   1.00
C381   C     0.59320   0.37548   0.31360   0.00000  Uiso   1.00
C382   C     0.46716   0.61884   0.14017   0.00000  Uiso   1.00
C383   C     0.56944   0.53020   0.47779   0.00000  Uiso   1.00
C384   C     0.35453   0.45847   0.25076   0.00000  Uiso   1.00
C385   C     0.64538   0.54261   0.25114   0.00000  Uiso   1.00
C386   C     0.64538   0.45848   0.24847   0.00000  Uiso   1.00
C387   C     0.35469   0.54260   0.25106   0.00000  Uiso   1.00
C388   C     0.62387   0.50042   0.24978   0.00000  Uiso   1.00
Cu389  Cu    0.50000   0.54689   0.25000   0.00000  Uiso   1.00
Cu390  Cu    0.50000   0.45311   0.25000   0.00000  Uiso   1.00
H391   H     0.56142   0.52346   0.38995   0.00000  Uiso   1.00
H392   H     0.37074   0.57554   0.25148   0.00000  Uiso   1.00
H393   H     0.41730   0.43573   0.38892   0.00000  Uiso   1.00
H394   H     0.38561   0.51507   0.40081   0.00000  Uiso   1.00
H395   H     0.37383   0.48715   0.34797   0.00000  Uiso   1.00
H396   H     0.41293   0.53148   0.35147   0.00000  Uiso   1.00
H397   H     0.58056   0.56689   0.10948   0.00000  Uiso   1.00
H398   H     0.61531   0.48868   0.10196   0.00000  Uiso   1.00
H399   H     0.58773   0.47331   0.15135   0.00000  Uiso   1.00
H400   H     0.62512   0.51951   0.15368   0.00000  Uiso   1.00
H401   H     0.46684   0.38547   0.15578   0.00000  Uiso   1.00
H402   H     0.44147   0.46777   0.11024   0.00000  Uiso   1.00
H403   H     0.39917   0.35577   0.15581   0.00000  Uiso   1.00
H404   H     0.39479   0.41246   0.17953   0.00000  Uiso   1.00
H405   H     0.39772   0.36237   0.21575   0.00000  Uiso   1.00
H406   H     0.57622   0.61758   0.31269   0.00000  Uiso   1.00
H407   H     0.53537   0.65904   0.37307   0.00000  Uiso   1.00
H408   H     0.54845   0.60073   0.38337   0.00000  Uiso   1.00
H409   H     0.49730   0.61463   0.36214   0.00000  Uiso   1.00
H410   H     0.53632   0.39266   0.34099   0.00000  Uiso   1.00
H411   H     0.60111   0.35331   0.34272   0.00000  Uiso   1.00
H412   H     0.60968   0.40883   0.31886   0.00000  Uiso   1.00
H413   H     0.40307   0.45305   0.45891   0.00000  Uiso   1.00
H414   H     0.60383   0.35869   0.28255   0.00000  Uiso   1.00
H415   H     0.42232   0.61787   0.18912   0.00000  Uiso   1.00
H416   H     0.45371   0.64928   0.12282   0.00000  Uiso   1.00
H417   H     0.45631   0.58753   0.12160   0.00000  Uiso   1.00
H418   H     0.50131   0.62029   0.13906   0.00000  Uiso   1.00
H419   H     0.59745   0.54464   0.04110   0.00000  Uiso   1.00
H420   H     0.40561   0.45192   0.03949   0.00000  Uiso   1.00
H421   H     0.59622   0.54224   0.46055   0.00000  Uiso   1.00
H422   H     0.37031   0.42560   0.25248   0.00000  Uiso   1.00
H423   H     0.62938   0.57554   0.25190   0.00000  Uiso   1.00
H424   H     0.62951   0.42564   0.24573   0.00000  Uiso   1.00
N425   N     0.50000   0.61736   0.25000   0.00000  Uiso   1.00
N426   N     0.50000   0.38264   0.25000   0.00000  Uiso   1.00
N427   N     0.42958   0.46684   0.37903   0.00000  Uiso   1.00
N428   N     0.56921   0.53584   0.12071   0.00000  Uiso   1.00
N429   N     0.45335   0.38307   0.18632   0.00000  Uiso   1.00
N430   N     0.54472   0.61738   0.31545   0.00000  Uiso   1.00
N431   N     0.54938   0.38438   0.31115   0.00000  Uiso   1.00
N432   N     0.45374   0.61629   0.18578   0.00000  Uiso   1.00
O433   O     0.43988   0.53958   0.25000   0.00000  Uiso   1.00
O434   O     0.56012   0.46042   0.25001   0.00000  Uiso   1.00
O435   O     0.56012   0.53958   0.25001   0.00000  Uiso   1.00
O436   O     0.43988   0.46042   0.25000   0.00000  Uiso   1.00
O437   O     0.49999   0.53960   0.18513   0.00000  Uiso   1.00
O438   O     0.50001   0.46040   0.31487   0.00000  Uiso   1.00
O439   O     0.50001   0.53960   0.31487   0.00000  Uiso   1.00
O440   O     0.49999   0.46040   0.18513   0.00000  Uiso   1.00
C441   C     0.75412   0.50007   0.25032   0.00000  Uiso   1.00
C442   C     0.70946   0.50041   0.25079   0.00000  Uiso   1.00
C443   C     0.80972   0.35808   0.21930   0.00000  Uiso   1.00
C444   C     0.85599   0.64209   0.28155   0.00000  Uiso   1.00
C445   C     0.85752   0.35862   0.28019   0.00000  Uiso   1.00
C446   C     0.81064   0.64156   0.21847   0.00000  Uiso   1.00
C447   C     0.83356   0.49984   0.16462   0.00000  Uiso   1.00
C448   C     0.83311   0.49998   0.33538   0.00000  Uiso   1.00
C449   C     0.86757   0.51326   0.40758   0.00000  Uiso   1.00
C450   C     0.80087   0.48116   0.09253   0.00000  Uiso   1.00
C451   C     0.83232   0.49941   0.38357   0.00000  Uiso   1.00
C452   C     0.91255   0.50008   0.24990   0.00000  Uiso   1.00
C453   C     0.83466   0.49934   0.11646   0.00000  Uiso   1.00
C454   C     0.79759   0.48265   0.40520   0.00000  Uiso   1.00
C455   C     0.86885   0.51729   0.09472   0.00000  Uiso   1.00
C456   C     0.79808   0.48158   0.45230   0.00000  Uiso   1.00
C457   C     0.86904   0.51629   0.04767   0.00000  Uiso   1.00
C458   C     0.83339   0.49804   0.47654   0.00000  Uiso   1.00
C459   C     0.83416   0.49861   0.02349   0.00000  Uiso   1.00
C460   C     0.86806   0.51387   0.45389   0.00000  Uiso   1.00
C461   C     0.80003   0.48140   0.04618   0.00000  Uiso   1.00
C462   C     0.76419   0.46534   0.47584   0.00000  Uiso   1.00
C463   C     0.76539   0.46487   0.02225   0.00000  Uiso   1.00
C464   C     0.90322   0.53173   0.02415   0.00000  Uiso   1.00
C465   C     0.73231   0.50209   0.36944   0.00000  Uiso   1.00
C466   C     0.93425   0.50248   0.13242   0.00000  Uiso   1.00
C467   C     0.74237   0.37789   0.18459   0.00000  Uiso   1.00
C468   C     0.86384   0.62341   0.36051   0.00000  Uiso   1.00
C469   C     0.92653   0.37548   0.31360   0.00000  Uiso   1.00
C470   C     0.80049   0.61884   0.14017   0.00000  Uiso   1.00
C471   C     0.90277   0.53020   0.47779   0.00000  Uiso   1.00
C472   C     0.68786   0.45847   0.25076   0.00000  Uiso   1.00
C473   C     0.97871   0.54261   0.25114   0.00000  Uiso   1.00
C474   C     0.97871   0.45848   0.24847   0.00000  Uiso   1.00
C475   C     0.68802   0.54260   0.25106   0.00000  Uiso   1.00
C476   C     0.95721   0.50042   0.24978   0.00000  Uiso   1.00
Cu477  Cu    0.83333   0.54689   0.25000   0.00000  Uiso   1.00
Cu478  Cu    0.83333   0.45311   0.25000   0.00000  Uiso   1.00
H479   H     0.89475   0.52346   0.38995   0.00000  Uiso   1.00
H480   H     0.70407   0.57554   0.25148   0.00000  Uiso   1.00
H481   H     0.75064   0.43573   0.38892   0.00000  Uiso   1.00
H482   H     0.71895   0.51507   0.40081   0.00000  Uiso   1.00
H483   H     0.70716   0.48715   0.34797   0.00000  Uiso   1.00
H484   H     0.74626   0.53148   0.35147   0.00000  Uiso   1.00
H485   H     0.91389   0.56689   0.10948   0.00000  Uiso   1.00
H486   H     0.94864   0.48868   0.10196   0.00000  Uiso   1.00
H487   H     0.92106   0.47331   0.15135   0.00000  Uiso   1.00
H488   H     0.95846   0.51951   0.15368   0.00000  Uiso   1.00
H489   H     0.80017   0.38547   0.15578   0.00000  Uiso   1.00
H490   H     0.77480   0.46777   0.11024   0.00000  Uiso   1.00
H491   H     0.73251   0.35577   0.15581   0.00000  Uiso   1.00
H492   H     0.72812   0.41246   0.17953   0.00000  Uiso   1.00
H493   H     0.73106   0.36237   0.21575   0.00000  Uiso   1.00
H494   H     0.90955   0.61758   0.31269   0.00000  Uiso   1.00
H495   H     0.86871   0.65904   0.37307   0.00000  Uiso   1.00
H496   H     0.88179   0.60073   0.38337   0.00000  Uiso   1.00
H497   H     0.83063   0.61463   0.36214   0.00000  Uiso   1.00
H498   H     0.86965   0.39266   0.34099   0.00000  Uiso   1.00
H499   H     0.93445   0.35331   0.34272   0.00000  Uiso   1.00
H500   H     0.94301   0.40883   0.31886   0.00000  Uiso   1.00
H501   H     0.73641   0.45305   0.45891   0.00000  Uiso   1.00
H502   H     0.93716   0.35869   0.28255   0.00000  Uiso   1.00
H503   H     0.75566   0.61787   0.18912   0.00000  Uiso   1.00
H504   H     0.78704   0.64928   0.12282   0.00000  Uiso   1.00
H505   H     0.78965   0.58753   0.12160   0.00000  Uiso   1.00
H506   H     0.83464   0.62029   0.13906   0.00000  Uiso   1.00
H507   H     0.93078   0.54464   0.04110   0.00000  Uiso   1.00
H508   H     0.73894   0.45192   0.03949   0.00000  Uiso   1.00
H509   H     0.92955   0.54224   0.46055   0.00000  Uiso   1.00
H510   H     0.70365   0.42560   0.25248   0.00000  Uiso   1.00
H511   H     0.96271   0.57554   0.25190   0.00000  Uiso   1.00
H512   H     0.96284   0.42564   0.24573   0.00000  Uiso   1.00
N513   N     0.83333   0.61736   0.25000   0.00000  Uiso   1.00
N514   N     0.83333   0.38264   0.25000   0.00000  Uiso   1.00
N515   N     0.76291   0.46684   0.37903   0.00000  Uiso   1.00
N516   N     0.90254   0.53584   0.12071   0.00000  Uiso   1.00
N517   N     0.78668   0.38307   0.18632   0.00000  Uiso   1.00
N518   N     0.87805   0.61738   0.31545   0.00000  Uiso   1.00
N519   N     0.88271   0.38438   0.31115   0.00000  Uiso   1.00
N520   N     0.78708   0.61629   0.18578   0.00000  Uiso   1.00
O521   O     0.77321   0.53958   0.25000   0.00000  Uiso   1.00
O522   O     0.89345   0.46042   0.25001   0.00000  Uiso   1.00
O523   O     0.89345   0.53958   0.25001   0.00000  Uiso   1.00
O524   O     0.77321   0.46042   0.25000   0.00000  Uiso   1.00
O525   O     0.83332   0.53960   0.18513   0.00000  Uiso   1.00
O526   O     0.83334   0.46040   0.31487   0.00000  Uiso   1.00
O527   O     0.83334   0.53960   0.31487   0.00000  Uiso   1.00
O528   O     0.83332   0.46040   0.18513   0.00000  Uiso   1.00
C529   C     0.08745   0.83341   0.25032   0.00000  Uiso   1.00
C530   C     0.04279   0.83374   0.25079   0.00000  Uiso   1.00
C531   C     0.14305   0.69142   0.21930   0.00000  Uiso   1.00
C532   C     0.18932   0.97542   0.28155   0.00000  Uiso   1.00
C533   C     0.19085   0.69195   0.28019   0.00000  Uiso   1.00
C534   C     0.14398   0.97490   0.21847   0.00000  Uiso   1.00
C535   C     0.16690   0.83318   0.16462   0.00000  Uiso   1.00
C536   C     0.16645   0.83331   0.33538   0.00000  Uiso   1.00
C537   C     0.20091   0.84659   0.40758   0.00000  Uiso   1.00
C538   C     0.13420   0.81450   0.09253   0.00000  Uiso   1.00
C539   C     0.16566   0.83274   0.38357   0.00000  Uiso   1.00
C540   C     0.24588   0.83342   0.24990   0.00000  Uiso   1.00
C541   C     0.16799   0.83267   0.11646   0.00000  Uiso   1.00
C542   C     0.13092   0.81598   0.40520   0.00000  Uiso   1.00
C543   C     0.20219   0.85062   0.09472   0.00000  Uiso   1.00
C544   C     0.13142   0.81491   0.45230   0.00000  Uiso   1.00
C545   C     0.20237   0.84962   0.04767   0.00000  Uiso   1.00
C546   C     0.16673   0.83138   0.47654   0.00000  Uiso   1.00
C547   C     0.16750   0.83194   0.02349   0.00000  Uiso   1.00
C548   C     0.20139   0.84720   0.45389   0.00000  Uiso   1.00
C549   C     0.13336   0.81473   0.04618   0.00000  Uiso   1.00
C550   C     0.09753   0.79868   0.47584   0.00000  Uiso   1.00
C551   C     0.09872   0.79820   0.02225   0.00000  Uiso   1.00
C552   C     0.23656   0.86506   0.02415   0.00000  Uiso   1.00
C553   C     0.06564   0.83543   0.36944   0.00000  Uiso   1.00
C554   C     0.26758   0.83581   0.13242   0.00000  Uiso   1.00
C555   C     0.07570   0.71122   0.18459   0.00000  Uiso   1.00
C556   C     0.19717   0.95674   0.36051   0.00000  Uiso   1.00
C557   C     0.25987   0.70881   0.31360   0.00000  Uiso   1.00
C558   C     0.13382   0.95218   0.14017   0.00000  Uiso   1.00
C559   C     0.23610   0.86354   0.47779   0.00000  Uiso   1.00
C560   C     0.02119   0.79180   0.25076   0.00000  Uiso   1.00
C561   C     0.31205   0.87594   0.25114   0.00000  Uiso   1.00
C562   C     0.31205   0.79182   0.24847   0.00000  Uiso   1.00
C563   C     0.02135   0.87594   0.25106   0.00000  Uiso   1.00
C564   C     0.29054   0.83375   0.24978   0.00000  Uiso   1.00
Cu565  Cu    0.16667   0.88022   0.25000   0.00000  Uiso   1.00
Cu566  Cu    0.16667   0.78645   0.25000   0.00000  Uiso   1.00
H567   H     0.22808   0.85680   0.38995   0.00000  Uiso   1.00
H568   H     0.03741   0.90887   0.25148   0.00000  Uiso   1.00
H569   H     0.08397   0.76906   0.38892   0.00000  Uiso   1.00
H570   H     0.05228   0.84841   0.40081   0.00000  Uiso   1.00
H571   H     0.04049   0.82049   0.34797   0.00000  Uiso   1.00
H572   H     0.07959   0.86481   0.35147   0.00000  Uiso   1.00
H573   H     0.24723   0.90023   0.10948   0.00000  Uiso   1.00
H574   H     0.28198   0.82201   0.10196   0.00000  Uiso   1.00
H575   H     0.25439   0.80664   0.15135   0.00000  Uiso   1.00
H576   H     0.29179   0.85285   0.15368   0.00000  Uiso   1.00
H577   H     0.13350   0.71880   0.15578   0.00000  Uiso   1.00
H578   H     0.10814   0.80111   0.11024   0.00000  Uiso   1.00
H579   H     0.06584   0.68910   0.15581   0.00000  Uiso   1.00
H580   H     0.06145   0.74579   0.17953   0.00000  Uiso   1.00
H581   H     0.06439   0.69571   0.21575   0.00000  Uiso   1.00
H582   H     0.24289   0.95091   0.31269   0.00000  Uiso   1.00
H583   H     0.20204   0.99237   0.37307   0.00000  Uiso   1.00
H584   H     0.21512   0.93407   0.38337   0.00000  Uiso   1.00
H585   H     0.16397   0.94796   0.36214   0.00000  Uiso   1.00
H586   H     0.20298   0.72599   0.34099   0.00000  Uiso   1.00
H587   H     0.26778   0.68665   0.34272   0.00000  Uiso   1.00
H588   H     0.27634   0.74216   0.31886   0.00000  Uiso   1.00
H589   H     0.06974   0.78639   0.45891   0.00000  Uiso   1.00
H590   H     0.27050   0.69202   0.28255   0.00000  Uiso   1.00
H591   H     0.08899   0.95120   0.18912   0.00000  Uiso   1.00
H592   H     0.12037   0.98262   0.12282   0.00000  Uiso   1.00
H593   H     0.12298   0.92086   0.12160   0.00000  Uiso   1.00
H594   H     0.16798   0.95362   0.13906   0.00000  Uiso   1.00
H595   H     0.26412   0.87797   0.04110   0.00000  Uiso   1.00
H596   H     0.07227   0.78526   0.03949   0.00000  Uiso   1.00
H597   H     0.26289   0.87558   0.46055   0.00000  Uiso   1.00
H598   H     0.03698   0.75893   0.25248   0.00000  Uiso   1.00
H599   H     0.29605   0.90887   0.25190   0.00000  Uiso   1.00
H600   H     0.29618   0.75897   0.24573   0.00000  Uiso   1.00
N601   N     0.16667   0.95069   0.25000   0.00000  Uiso   1.00
N602   N     0.16667   0.71598   0.25000   0.00000  Uiso   1.00
N603   N     0.09624   0.80017   0.37903   0.00000  Uiso   1.00
N604   N     0.23588   0.86917   0.12071   0.00000  Uiso   1.00
N605   N     0.12002   0.71640   0.18632   0.00000  Uiso   1.00
N606   N     0.21139   0.95071   0.31545   0.00000  Uiso   1.00
N607   N     0.21604   0.71771   0.31115   0.00000  Uiso   1.00
N608   N     0.12041   0.94962   0.18578   0.00000  Uiso   1.00
O609   O     0.10655   0.87291   0.25000   0.00000  Uiso   1.00
O610   O     0.22679   0.79375   0.25001   0.00000  Uiso   1.00
O611   O     0.22679   0.87291   0.25001   0.00000  Uiso   1.00
O612   O     0.10655   0.79375   0.25000   0.00000  Uiso   1.00
O613   O     0.16666   0.87293   0.18513   0.00000  Uiso   1.00
O614   O     0.16668   0.79373   0.31487   0.00000  Uiso   1.00
O615   O     0.16668   0.87293   0.31487   0.00000  Uiso   1.00
O616   O     0.16666   0.79373   0.18513   0.00000  Uiso   1.00
C617   C     0.42079   0.83341   0.25032   0.00000  Uiso   1.00
C618   C     0.37612   0.83374   0.25079   0.00000  Uiso   1.00
C619   C     0.47638   0.69142   0.21930   0.00000  Uiso   1.00
C620   C     0.52266   0.97542   0.28155   0.00000  Uiso   1.00
C621   C     0.52418   0.69195   0.28019   0.00000  Uiso   1.00
C622   C     0.47731   0.97490   0.21847   0.00000  Uiso   1.00
C623   C     0.50023   0.83318   0.16462   0.00000  Uiso   1.00
C624   C     0.49978   0.83331   0.33538   0.00000  Uiso   1.00
C625   C     0.53424   0.84659   0.40758   0.00000  Uiso   1.00
C626   C     0.46753   0.81450   0.09253   0.00000  Uiso   1.00
C627   C     0.49899   0.83274   0.38357   0.00000  Uiso   1.00
C628   C     0.57921   0.83342   0.24990   0.00000  Uiso   1.00
C629   C     0.50132   0.83267   0.11646   0.00000  Uiso   1.00
C630   C     0.46425   0.81598   0.40520   0.00000  Uiso   1.00
C631   C     0.53552   0.85062   0.09472   0.00000  Uiso   1.00
C632   C     0.46475   0.81491   0.45230   0.00000  Uiso   1.00
C633   C     0.53570   0.84962   0.04767   0.00000  Uiso   1.00
C634   C     0.50006   0.83138   0.47654   0.00000  Uiso   1.00
C635   C     0.50083   0.83194   0.02349   0.00000  Uiso   1.00
C636   C     0.53473   0.84720   0.45389   0.00000  Uiso   1.00
C637   C     0.46669   0.81473   0.04618   0.00000  Uiso   1.00
C638   C     0.43086   0.79868   0.47584   0.00000  Uiso   1.00
C639   C     0.43206   0.79820   0.02225   0.00000  Uiso   1.00
C640   C     0.56989   0.86506   0.02415   0.00000  Uiso   1.00
C641   C     0.39897   0.83543   0.36944   0.00000  Uiso   1.00
C642   C     0.60091   0.83581   0.13242   0.00000  Uiso   1.00
C643   C     0.40903   0.71122   0.18459   0.00000  Uiso   1.00
C644   C     0.53051   0.95674   0.36051   0.00000  Uiso   1.00
C645   C     0.59320   0.70881   0.31360   0.00000  Uiso   1.00
C646   C     0.46716   0.95218   0.14017   0.00000  Uiso   1.00
C647   C     0.56944   0.86354   0.47779   0.00000  Uiso   1.00
C648   C     0.35453   0.79180   0.25076   0.00000  Uiso   1.00
C649   C     0.64538   0.87594   0.25114   0.00000  Uiso   1.00
C650   C     0.64538   0.79182   0.24847   0.00000  Uiso   1.00
C651   C     0.35469   0.87594   0.25106   0.00000  Uiso   1.00
C652   C     0.62387   0.83375   0.24978   0.00000  Uiso   1.00
Cu653  Cu    0.50000   0.88022   0.25000   0.00000  Uiso   1.00
Cu654  Cu    0.50000   0.78645   0.25000   0.00000  Uiso   1.00
H655   H     0.56142   0.85680   0.38995   0.00000  Uiso   1.00
H656   H     0.37074   0.90887   0.25148   0.00000  Uiso   1.00
H657   H     0.41730   0.76906   0.38892   0.00000  Uiso   1.00
H658   H     0.38561   0.84841   0.40081   0.00000  Uiso   1.00
H659   H     0.37383   0.82049   0.34797   0.00000  Uiso   1.00
H660   H     0.41293   0.86481   0.35147   0.00000  Uiso   1.00
H661   H     0.58056   0.90023   0.10948   0.00000  Uiso   1.00
H662   H     0.61531   0.82201   0.10196   0.00000  Uiso   1.00
H663   H     0.58773   0.80664   0.15135   0.00000  Uiso   1.00
H664   H     0.62512   0.85285   0.15368   0.00000  Uiso   1.00
H665   H     0.46684   0.71880   0.15578   0.00000  Uiso   1.00
H666   H     0.44147   0.80111   0.11024   0.00000  Uiso   1.00
H667   H     0.39917   0.68910   0.15581   0.00000  Uiso   1.00
H668   H     0.39479   0.74579   0.17953   0.00000  Uiso   1.00
H669   H     0.39772   0.69571   0.21575   0.00000  Uiso   1.00
H670   H     0.57622   0.95091   0.31269   0.00000  Uiso   1.00
H671   H     0.53537   0.99237   0.37307   0.00000  Uiso   1.00
H672   H     0.54845   0.93407   0.38337   0.00000  Uiso   1.00
H673   H     0.49730   0.94796   0.36214   0.00000  Uiso   1.00
H674   H     0.53632   0.72599   0.34099   0.00000  Uiso   1.00
H675   H     0.60111   0.68665   0.34272   0.00000  Uiso   1.00
H676   H     0.60968   0.74216   0.31886   0.00000  Uiso   1.00
H677   H     0.40307   0.78639   0.45891   0.00000  Uiso   1.00
H678   H     0.60383   0.69202   0.28255   0.00000  Uiso   1.00
H679   H     0.42232   0.95120   0.18912   0.00000  Uiso   1.00
H680   H     0.45371   0.98262   0.12282   0.00000  Uiso   1.00
H681   H     0.45631   0.92086   0.12160   0.00000  Uiso   1.00
H682   H     0.50131   0.95362   0.13906   0.00000  Uiso   1.00
H683   H     0.59745   0.87797   0.04110   0.00000  Uiso   1.00
H684   H     0.40561   0.78526   0.03949   0.00000  Uiso   1.00
H685   H     0.59622   0.87558   0.46055   0.00000  Uiso   1.00
H686   H     0.37031   0.75893   0.25248   0.00000  Uiso   1.00
H687   H     0.62938   0.90887   0.25190   0.00000  Uiso   1.00
H688   H     0.62951   0.75897   0.24573   0.00000  Uiso   1.00
N689   N     0.50000   0.95069   0.25000   0.00000  Uiso   1.00
N690   N     0.50000   0.71598   0.25000   0.00000  Uiso   1.00
N691   N     0.42958   0.80017   0.37903   0.00000  Uiso   1.00
N692   N     0.56921   0.86917   0.12071   0.00000  Uiso   1.00
N693   N     0.45335   0.71640   0.18632   0.00000  Uiso   1.00
N694   N     0.54472   0.95071   0.31545   0.00000  Uiso   1.00
N695   N     0.54938   0.71771   0.31115   0.00000  Uiso   1.00
N696   N     0.45374   0.94962   0.18578   0.00000  Uiso   1.00
O697   O     0.43988   0.87291   0.25000   0.00000  Uiso   1.00
O698   O     0.56012   0.79375   0.25001   0.00000  Uiso   1.00
O699   O     0.56012   0.87291   0.25001   0.00000  Uiso   1.00
O700   O     0.43988   0.79375   0.25000   0.00000  Uiso   1.00
O701   O     0.49999   0.87293   0.18513   0.00000  Uiso   1.00
O702   O     0.50001   0.79373   0.31487   0.00000  Uiso   1.00
O703   O     0.50001   0.87293   0.31487   0.00000  Uiso   1.00
O704   O     0.49999   0.79373   0.18513   0.00000  Uiso   1.00
C705   C     0.75412   0.83341   0.25032   0.00000  Uiso   1.00
C706   C     0.70946   0.83374   0.25079   0.00000  Uiso   1.00
C707   C     0.80972   0.69142   0.21930   0.00000  Uiso   1.00
C708   C     0.85599   0.97542   0.28155   0.00000  Uiso   1.00
C709   C     0.85752   0.69195   0.28019   0.00000  Uiso   1.00
C710   C     0.81064   0.97490   0.21847   0.00000  Uiso   1.00
C711   C     0.83356   0.83318   0.16462   0.00000  Uiso   1.00
C712   C     0.83311   0.83331   0.33538   0.00000  Uiso   1.00
C713   C     0.86757   0.84659   0.40758   0.00000  Uiso   1.00
C714   C     0.80087   0.81450   0.09253   0.00000  Uiso   1.00
C715   C     0.83232   0.83274   0.38357   0.00000  Uiso   1.00
C716   C     0.91255   0.83342   0.24990   0.00000  Uiso   1.00
C717   C     0.83466   0.83267   0.11646   0.00000  Uiso   1.00
C718   C     0.79759   0.81598   0.40520   0.00000  Uiso   1.00
C719   C     0.86885   0.85062   0.09472   0.00000  Uiso   1.00
C720   C     0.79808   0.81491   0.45230   0.00000  Uiso   1.00
C721   C     0.86904   0.84962   0.04767   0.00000  Uiso   1.00
C722   C     0.83339   0.83138   0.47654   0.00000  Uiso   1.00
C723   C     0.83416   0.83194   0.02349   0.00000  Uiso   1.00
C724   C     0.86806   0.84720   0.45389   0.00000  Uiso   1.00
C725   C     0.80003   0.81473   0.04618   0.00000  Uiso   1.00
C726   C     0.76419   0.79868   0.47584   0.00000  Uiso   1.00
C727   C     0.76539   0.79820   0.02225   0.00000  Uiso   1.00
C728   C     0.90322   0.86506   0.02415   0.00000  Uiso   1.00
C729   C     0.73231   0.83543   0.36944   0.00000  Uiso   1.00
C730   C     0.93425   0.83581   0.13242   0.00000  Uiso   1.00
C731   C     0.74237   0.71122   0.18459   0.00000  Uiso   1.00
C732   C     0.86384   0.95674   0.36051   0.00000  Uiso   1.00
C733   C     0.92653   0.70881   0.31360   0.00000  Uiso   1.00
C734   C     0.80049   0.95218   0.14017   0.00000  Uiso   1.00
C735   C     0.90277   0.86354   0.47779   0.00000  Uiso   1.00
C736   C     0.68786   0.79180   0.25076   0.00000  Uiso   1.00
C737   C     0.97871   0.87594   0.25114   0.00000  Uiso   1.00
C738   C     0.97871   0.79182   0.24847   0.00000  Uiso   1.00
C739   C     0.68802   0.87594   0.25106   0.00000  Uiso   1.00
C740   C     0.95721   0.83375   0.24978   0.00000  Uiso   1.00
Cu741  Cu    0.83333   0.88022   0.25000   0.00000  Uiso   1.00
Cu742  Cu    0.83333   0.78645   0.25000   0.00000  Uiso   1.00
H743   H     0.89475   0.85680   0.38995   0.00000  Uiso   1.00
H744   H     0.70407   0.90887   0.25148   0.00000  Uiso   1.00
H745   H     0.75064   0.76906   0.38892   0.00000  Uiso   1.00
H746   H     0.71895   0.84841   0.40081   0.00000  Uiso   1.00
H747   H     0.70716   0.82049   0.34797   0.00000  Uiso   1.00
H748   H     0.74626   0.86481   0.35147   0.00000  Uiso   1.00
H749   H     0.91389   0.90023   0.10948   0.00000  Uiso   1.00
H750   H     0.94864   0.82201   0.10196   0.00000  Uiso   1.00
H751   H     0.92106   0.80664   0.15135   0.00000  Uiso   1.00
H752   H     0.95846   0.85285   0.15368   0.00000  Uiso   1.00
H753   H     0.80017   0.71880   0.15578   0.00000  Uiso   1.00
H754   H     0.77480   0.80111   0.11024   0.00000  Uiso   1.00
H755   H     0.73251   0.68910   0.15581   0.00000  Uiso   1.00
H756   H     0.72812   0.74579   0.17953   0.00000  Uiso   1.00
H757   H     0.73106   0.69571   0.21575   0.00000  Uiso   1.00
H758   H     0.90955   0.95091   0.31269   0.00000  Uiso   1.00
H759   H     0.86871   0.99237   0.37307   0.00000  Uiso   1.00
H760   H     0.88179   0.93407   0.38337   0.00000  Uiso   1.00
H761   H     0.83063   0.94796   0.36214   0.00000  Uiso   1.00
H762   H     0.86965   0.72599   0.34099   0.00000  Uiso   1.00
H763   H     0.93445   0.68665   0.34272   0.00000  Uiso   1.00
H764   H     0.94301   0.74216   0.31886   0.00000  Uiso   1.00
H765   H     0.73641   0.78639   0.45891   0.00000  Uiso   1.00
H766   H     0.93716   0.69202   0.28255   0.00000  Uiso   1.00
H767   H     0.75566   0.95120   0.18912   0.00000  Uiso   1.00
H768   H     0.78704   0.98262   0.12282   0.00000  Uiso   1.00
H769   H     0.78965   0.92086   0.12160   0.00000  Uiso   1.00
H770   H     0.83464   0.95362   0.13906   0.00000  Uiso   1.00
H771   H     0.93078   0.87797   0.04110   0.00000  Uiso   1.00
H772   H     0.73894   0.78526   0.03949   0.00000  Uiso   1.00
H773   H     0.92955   0.87558   0.46055   0.00000  Uiso   1.00
H774   H     0.70365   0.75893   0.25248   0.00000  Uiso   1.00
H775   H     0.96271   0.90887   0.25190   0.00000  Uiso   1.00
H776   H     0.96284   0.75897   0.24573   0.00000  Uiso   1.00
N777   N     0.83333   0.95069   0.25000   0.00000  Uiso   1.00
N778   N     0.83333   0.71598   0.25000   0.00000  Uiso   1.00
N779   N     0.76291   0.80017   0.37903   0.00000  Uiso   1.00
N780   N     0.90254   0.86917   0.12071   0.00000  Uiso   1.00
N781   N     0.78668   0.71640   0.18632   0.00000  Uiso   1.00
N782   N     0.87805   0.95071   0.31545   0.00000  Uiso   1.00
N783   N     0.88271   0.71771   0.31115   0.00000  Uiso   1.00
N784   N     0.78708   0.94962   0.18578   0.00000  Uiso   1.00
O785   O     0.77321   0.87291   0.25000   0.00000  Uiso   1.00
O786   O     0.89345   0.79375   0.25001   0.00000  Uiso   1.00
O787   O     0.89345   0.87291   0.25001   0.00000  Uiso   1.00
O788   O     0.77321   0.79375   0.25000   0.00000  Uiso   1.00
O789   O     0.83332   0.87293   0.18513   0.00000  Uiso   1.00
O790   O     0.83334   0.79373   0.31487   0.00000  Uiso   1.00
O791   O     0.83334   0.87293   0.31487   0.00000  Uiso   1.00
O792   O     0.83332   0.79373   0.18513   0.00000  Uiso   1.00
C793   C     0.08745   0.16674   0.75032   0.00000  Uiso   1.00
C794   C     0.04279   0.16707   0.75079   0.00000  Uiso   1.00
C795   C     0.14305   0.02475   0.71930   0.00000  Uiso   1.00
C796   C     0.18932   0.30875   0.78155   0.00000  Uiso   1.00
C797   C     0.19085   0.02529   0.78019   0.00000  Uiso   1.00
C798   C     0.14398   0.30823   0.71847   0.00000  Uiso   1.00
C799   C     0.16690   0.16651   0.66462   0.00000  Uiso   1.00
C800   C     0.16645   0.16664   0.83538   0.00000  Uiso   1.00
C801   C     0.20091   0.17992   0.90758   0.00000  Uiso   1.00
C802   C     0.13420   0.14783   0.59253   0.00000  Uiso   1.00
C803   C     0.16566   0.16607   0.88357   0.00000  Uiso   1.00
C804   C     0.24588   0.16675   0.74990   0.00000  Uiso   1.00
C805   C     0.16799   0.16600   0.61646   0.00000  Uiso   1.00
C806   C     0.13092   0.14931   0.90520   0.00000  Uiso   1.00
C807   C     0.20219   0.18395   0.59472   0.00000  Uiso   1.00
C808   C     0.13142   0.14825   0.95230   0.00000  Uiso   1.00
C809   C     0.20237   0.18296   0.54767   0.00000  Uiso   1.00
C810   C     0.16673   0.16471   0.97654   0.00000  Uiso   1.00
C811   C     0.16750   0.16528   0.52349   0.00000  Uiso   1.00
C812   C     0.20139   0.18054   0.95389   0.00000  Uiso   1.00
C813   C     0.13336   0.14807   0.54618   0.00000  Uiso   1.00
C814   C     0.09753   0.13201   0.97584   0.00000  Uiso   1.00
C815   C     0.09872   0.13154   0.52225   0.00000  Uiso   1.00
C816   C     0.23656   0.19839   0.52415   0.00000  Uiso   1.00
C817   C     0.06564   0.16876   0.86944   0.00000  Uiso   1.00
C818   C     0.26758   0.16914   0.63242   0.00000  Uiso   1.00
C819   C     0.07570   0.04455   0.68459   0.00000  Uiso   1.00
C820   C     0.19717   0.29007   0.86051   0.00000  Uiso   1.00
C821   C     0.25987   0.04215   0.81360   0.00000  Uiso   1.00
C822   C     0.13382   0.28551   0.64017   0.00000  Uiso   1.00
C823   C     0.23610   0.19687   0.97779   0.00000  Uiso   1.00
C824   C     0.02119   0.12513   0.75076   0.00000  Uiso   1.00
C825   C     0.31205   0.20927   0.75114   0.00000  Uiso   1.00
C826   C     0.31205   0.12515   0.74847   0.00000  Uiso   1.00
C827   C     0.02135   0.20927   0.75106   0.00000  Uiso   1.00
C828   C     0.29054   0.16709   0.74978   0.00000  Uiso   1.00
Cu829  Cu    0.16667   0.21355   0.75000   0.00000  Uiso   1.00
Cu830  Cu    0.16667   0.11978   0.75000   0.00000  Uiso   1.00
H831   H     0.22808   0.19013   0.88995   0.00000  Uiso   1.00
H832   H     0.03741   0.24221   0.75148   0.00000  Uiso   1.00
H833   H     0.08397   0.10240   0.88892   0.00000  Uiso   1.00
H834   H     0.05228   0.18174   0.90081   0.00000  Uiso   1.00
H835   H     0.04049   0.15382   0.84797   0.00000  Uiso   1.00
H836   H     0.07959   0.19815   0.85147   0.00000  Uiso   1.00
H837   H     0.24723   0.23356   0.60948   0.00000  Uiso   1.00
H838   H     0.28198   0.15535   0.60196   0.00000  Uiso   1.00
H839   H     0.25439   0.13998   0.65135   0.00000  Uiso   1.00
H840   H     0.29179   0.18618   0.65368   0.00000  Uiso   1.00
H841   H     0.13350   0.05213   0.65578   0.00000  Uiso   1.00
H842   H     0.10814   0.13444   0.61024   0.00000  Uiso   1.00
H843   H     0.06584   0.02244   0.65581   0.00000  Uiso   1.00
H844   H     0.06145   0.07913   0.67953   0.00000  Uiso   1.00
H845   H     0.06439   0.02904   0.71575   0.00000  Uiso   1.00
H846   H     0.24289   0.28424   0.81269   0.00000  Uiso   1.00
H847   H     0.20204   0.32570   0.87307   0.00000  Uiso   1.00
H848   H     0.21512   0.26740   0.88337   0.00000  Uiso   1.00
H849   H     0.16397   0.28129   0.86214   0.00000  Uiso   1.00
H850   H     0.20298   0.05932   0.84099   0.00000  Uiso   1.00
H851   H     0.26778   0.01998   0.84272   0.00000  Uiso   1.00
H852   H     0.27634   0.07549   0.81886   0.00000  Uiso   1.00
H853   H     0.06974   0.11972   0.95891   0.00000  Uiso   1.00
H854   H     0.27050   0.02535   0.78255   0.00000  Uiso   1.00
H855   H     0.08899   0.28453   0.68912   0.00000  Uiso   1.00
H856   H     0.12037   0.31595   0.62282   0.00000  Uiso   1.00
H857   H     0.12298   0.25419   0.62160   0.00000  Uiso   1.00
H858   H     0.16798   0.28696   0.63906   0.00000  Uiso   1.00
H859   H     0.26412   0.21130   0.54110   0.00000  Uiso   1.00
H860   H     0.07227   0.11859   0.53949   0.00000  Uiso   1.00
H861   H     0.26289   0.20891   0.96055   0.00000  Uiso   1.00
H862   H     0.03698   0.09226   0.75248   0.00000  Uiso   1.00
H863   H     0.29605   0.24221   0.75190   0.00000  Uiso   1.00
H864   H     0.29618   0.09231   0.74573   0.00000  Uiso   1.00
N865   N     0.16667   0.28402   0.75000   0.00000  Uiso   1.00
N866   N     0.16667   0.04931   0.75000   0.00000  Uiso   1.00
N867   N     0.09624   0.13351   0.87903   0.00000  Uiso   1.00
N868   N     0.23588   0.20250   0.62071   0.00000  Uiso   1.00
N869   N     0.12002   0.04973   0.68632   0.00000  Uiso   1.00
N870   N     0.21139   0.28405   0.81545   0.00000  Uiso   1.00
N871   N     0.21604   0.05104   0.81115   0.00000  Uiso   1.00
N872   N     0.12041   0.28296   0.68578   0.00000  Uiso   1.00
O873   O     0.10655   0.20625   0.75000   0.00000  Uiso   1.00
O874   O     0.22679   0.12709   0.75001   0.00000  Uiso   1.00
O875   O     0.22679   0.20625   0.75001   0.00000  Uiso   1.00
O876   O     0.10655   0.12709   0.75000   0.00000  Uiso   1.00
O877   O     0.16666   0.20627   0.68513   0.00000  Uiso   1.00
O878   O     0.16668   0.12707   0.81487   0.00000  Uiso   1.00
O879   O     0.16668   0.20627   0.81487   0.00000  Uiso   1.00
O880   O     0.16666   0.12707   0.68513   0.00000  Uiso   1.00
C881   C     0.42079   0.16674   0.75032   0.00000  Uiso   1.00
C882   C     0.37612   0.16707   0.75079   0.00000  Uiso   1.00
C883   C     0.47638   0.02475   0.71930   0.00000  Uiso   1.00
C884   C     0.52266   0.30875   0.78155   0.00000  Uiso   1.00
C885   C     0.52418   0.02529   0.78019   0.00000  Uiso   1.00
C886   C     0.47731   0.30823   0.71847   0.00000  Uiso   1.00
C887   C     0.50023   0.16651   0.66462   0.00000  Uiso   1.00
C888   C     0.49978   0.16664   0.83538   0.00000  Uiso   1.00
C889   C     0.53424   0.17992   0.90758   0.00000  Uiso   1.00
C890   C     0.46753   0.14783   0.59253   0.00000  Uiso   1.00
C891   C     0.49899   0.16607   0.88357   0.00000  Uiso   1.00
C892   C     0.57921   0.16675   0.74990   0.00000  Uiso   1.00
C893   C     0.50132   0.16600   0.61646   0.00000  Uiso   1.00
C894   C     0.46425   0.14931   0.90520   0.00000  Uiso   1.00
C895   C     0.53552   0.18395   0.59472   0.00000  Uiso   1.00
C896   C     0.46475   0.14825   0.95230   0.00000  Uiso   1.00
C897   C     0.53570   0.18296   0.54767   0.00000  Uiso   1.00
C898   C     0.50006   0.16471   0.97654   0.00000  Uiso   1.00
C899   C     0.50083   0.16528   0.52349   0.00000  Uiso   1.00
C900   C     0.53473   0.18054   0.95389   0.00000  Uiso   1.00
C901   C     0.46669   0.14807   0.54618   0.00000  Uiso   1.00
C902   C     0.43086   0.13201   0.97584   0.00000  Uiso   1.00
C903   C     0.43206   0.13154   0.52225   0.00000  Uiso   1.00
C904   C     0.56989   0.19839   0.52415   0.00000  Uiso   1.00
C905   C     0.39897   0.16876   0.86944   0.00000  Uiso   1.00
C906   C     0.60091   0.16914   0.63242   0.00000  Uiso   1.00
C907   C     0.40903   0.04455   0.68459   0.00000  Uiso   1.00
C908   C     0.53051   0.29007   0.86051   0.00000  Uiso   1.00
C909   C     0.59320   0.04215   0.81360   0.00000  Uiso   1.00
C910   C     0.46716   0.28551   0.64017   0.00000  Uiso   1.00
C911   C     0.56944   0.19687   0.97779   0.00000  Uiso   1.00
C912   C     0.35453   0.12513   0.75076   0.00000  Uiso   1.00
C913   C     0.64538   0.20927   0.75114   0.00000  Uiso   1.00
C914   C     0.64538   0.12515   0.74847   0.00000  Uiso   1.00
C915   C     0.35469   0.20927   0.75106   0.00000  Uiso   1.00
C916   C     0.62387   0.16709   0.74978   0.00000  Uiso   1.00
Cu917  Cu    0.50000   0.21355   0.75000   0.00000  Uiso   1.00
Cu918  Cu    0.50000   0.11978   0.75000   0.00000  Uiso   1.00
H919   H     0.56142   0.19013   0.88995   0.00000  Uiso   1.00
H920   H     0.37074   0.24221   0.75148   0.00000  Uiso   1.00
H921   H     0.41730   0.10240   0.88892   0.00000  Uiso   1.00
H922   H     0.38561   0.18174   0.90081   0.00000  Uiso   1.00
H923   H     0.37383   0.15382   0.84797   0.00000  Uiso   1.00
H924   H     0.41293   0.19815   0.85147   0.00000  Uiso   1.00
H925   H     0.58056   0.23356   0.60948   0.00000  Uiso   1.00
H926   H     0.61531   0.15535   0.60196   0.00000  Uiso   1.00
H927   H     0.58773   0.13998   0.65135   0.00000  Uiso   1.00
H928   H     0.62512   0.18618   0.65368   0.00000  Uiso   1.00
H929   H     0.46684   0.05213   0.65578   0.00000  Uiso   1.00
H930   H     0.44147   0.13444   0.61024   0.00000  Uiso   1.00
H931   H     0.39917   0.02244   0.65581   0.00000  Uiso   1.00
H932   H     0.39479   0.07913   0.67953   0.00000  Uiso   1.00
H933   H     0.39772   0.02904   0.71575   0.00000  Uiso   1.00
H934   H     0.57622   0.28424   0.81269   0.00000  Uiso   1.00
H935   H     0.53537   0.32570   0.87307   0.00000  Uiso   1.00
H936   H     0.54845   0.26740   0.88337   0.00000  Uiso   1.00
H937   H     0.49730   0.28129   0.86214   0.00000  Uiso   1.00
H938   H     0.53632   0.05932   0.84099   0.00000  Uiso   1.00
H939   H     0.60111   0.01998   0.84272   0.00000  Uiso   1.00
H940   H     0.60968   0.07549   0.81886   0.00000  Uiso   1.00
H941   H     0.40307   0.11972   0.95891   0.00000  Uiso   1.00
H942   H     0.60383   0.02535   0.78255   0.00000  Uiso   1.00
H943   H     0.42232   0.28453   0.68912   0.00000  Uiso   1.00
H944   H     0.45371   0.31595   0.62282   0.00000  Uiso   1.00
H945   H     0.45631   0.25419   0.62160   0.00000  Uiso   1.00
H946   H     0.50131   0.28696   0.63906   0.00000  Uiso   1.00
H947   H     0.59745   0.21130   0.54110   0.00000  Uiso   1.00
H948   H     0.40561   0.11859   0.53949   0.00000  Uiso   1.00
H949   H     0.59622   0.20891   0.96055   0.00000  Uiso   1.00
H950   H     0.37031   0.09226   0.75248   0.00000  Uiso   1.00
H951   H     0.62938   0.24221   0.75190   0.00000  Uiso   1.00
H952   H     0.62951   0.09231   0.74573   0.00000  Uiso   1.00
N953   N     0.50000   0.28402   0.75000   0.00000  Uiso   1.00
N954   N     0.50000   0.04931   0.75000   0.00000  Uiso   1.00
N955   N     0.42958   0.13351   0.87903   0.00000  Uiso   1.00
N956   N     0.56921   0.20250   0.62071   0.00000  Uiso   1.00
N957   N     0.45335   0.04973   0.68632   0.00000  Uiso   1.00
N958   N     0.54472   0.28405   0.81545   0.00000  Uiso   1.00
N959   N     0.54938   0.05104   0.81115   0.00000  Uiso   1.00
N960   N     0.45374   0.28296   0.68578   0.00000  Uiso   1.00
O961   O     0.43988   0.20625   0.75000   0.00000  Uiso   1.00
O962   O     0.56012   0.12709   0.75001   0.00000  Uiso   1.00
O963   O     0.56012   0.20625   0.75001   0.00000  Uiso   1.00
O964   O     0.43988   0.12709   0.75000   0.00000  Uiso   1.00
O965   O     0.49999   0.20627   0.68513   0.00000  Uiso   1.00
O966   O     0.50001   0.12707   0.81487   0.00000  Uiso   1.00
O967   O     0.50001   0.20627   0.81487   0.00000  Uiso   1.00
O968   O     0.49999   0.12707   0.68513   0.00000  Uiso   1.00
C969   C     0.75412   0.16674   0.75032   0.00000  Uiso   1.00
C970   C     0.70946   0.16707   0.75079   0.00000  Uiso   1.00
C971   C     0.80972   0.02475   0.71930   0.00000  Uiso   1.00
C972   C     0.85599   0.30875   0.78155   0.00000  Uiso   1.00
C973   C     0.85752   0.02529   0.78019   0.00000  Uiso   1.00
C974   C     0.81064   0.30823   0.71847   0.00000  Uiso   1.00
C975   C     0.83356   0.16651   0.66462   0.00000  Uiso   1.00
C976   C     0.83311   0.16664   0.83538   0.00000  Uiso   1.00
C977   C     0.86757   0.17992   0.90758   0.00000  Uiso   1.00
C978   C     0.80087   0.14783   0.59253   0.00000  Uiso   1.00
C979   C     0.83232   0.16607   0.88357   0.00000  Uiso   1.00
C980   C     0.91255   0.16675   0.74990   0.00000  Uiso   1.00
C981   C     0.83466   0.16600   0.61646   0.00000  Uiso   1.00
C982   C     0.79759   0.14931   0.90520   0.00000  Uiso   1.00
C983   C     0.86885   0.18395   0.59472   0.00000  Uiso   1.00
C984   C     0.79808   0.14825   0.95230   0.00000  Uiso   1.00
C985   C     0.86904   0.18296   0.54767   0.00000  Uiso   1.00
C986   C     0.83339   0.16471   0.97654   0.00000  Uiso   1.00
C987   C     0.83416   0.16528   0.52349   0.00000  Uiso   1.00
C988   C     0.86806   0.18054   0.95389   0.00000  Uiso   1.00
C989   C     0.80003   0.14807   0.54618   0.00000  Uiso   1.00
C990   C     0.76419   0.13201   0.97584   0.00000  Uiso   1.00
C991   C     0.76539   0.13154   0.52225   0.00000  Uiso   1.00
C992   C     0.90322   0.19839   0.52415   0.00000  Uiso   1.00
C993   C     0.73231   0.16876   0.86944   0.00000  Uiso   1.00
C994   C     0.93425   0.16914   0.63242   0.00000  Uiso   1.00
C995   C     0.74237   0.04455   0.68459   0.00000  Uiso   1.00
C996   C     0.86384   0.29007   0.86051   0.00000  Uiso   1.00
C997   C     0.92653   0.04215   0.81360   0.00000  Uiso   1.00
C998   C     0.80049   0.28551   0.64017   0.00000  Uiso   1.00
C999   C     0.90277   0.19687   0.97779   0.00000  Uiso   1.00
C1000  C     0.68786   0.12513   0.75076   0.00000  Uiso   1.00
C1001  C     0.97871   0.20927   0.75114   0.00000  Uiso   1.00
C1002  C     0.97871   0.12515   0.74847   0.00000  Uiso   1.00
C1003  C     0.68802   0.20927   0.75106   0.00000  Uiso   1.00
C1004  C     0.95721   0.16709   0.74978   0.00000  Uiso   1.00
Cu1005 Cu    0.83333   0.21355   0.75000   0.00000  Uiso   1.00
Cu1006 Cu    0.83333   0.11978   0.75000   0.00000  Uiso   1.00
H1007  H     0.89475   0.19013   0.88995   0.00000  Uiso   1.00
H1008  H     0.70407   0.24221   0.75148   0.00000  Uiso   1.00
H1009  H     0.75064   0.10240   0.88892   0.00000  Uiso   1.00
H1010  H     0.71895   0.18174   0.90081   0.00000  Uiso   1.00
H1011  H     0.70716   0.15382   0.84797   0.00000  Uiso   1.00
H1012  H     0.74626   0.19815   0.85147   0.00000  Uiso   1.00
H1013  H     0.91389   0.23356   0.60948   0.00000  Uiso   1.00
H1014  H     0.94864   0.15535   0.60196   0.00000  Uiso   1.00
H1015  H     0.92106   0.13998   0.65135   0.00000  Uiso   1.00
H1016  H     0.95846   0.18618   0.65368   0.00000  Uiso   1.00
H1017  H     0.80017   0.05213   0.65578   0.00000  Uiso   1.00
H1018  H     0.77480   0.13444   0.61024   0.00000  Uiso   1.00
H1019  H     0.73251   0.02244   0.65581   0.00000  Uiso   1.00
H1020  H     0.72812   0.07913   0.67953   0.00000  Uiso   1.00
H1021  H     0.73106   0.02904   0.71575   0.00000  Uiso   1.00
H1022  H     0.90955   0.28424   0.81269   0.00000  Uiso   1.00
H1023  H     0.86871   0.32570   0.87307   0.00000  Uiso   1.00
H1024  H     0.88179   0.26740   0.88337   0.00000  Uiso   1.00
H1025  H     0.83063   0.28129   0.86214   0.00000  Uiso   1.00
H1026  H     0.86965   0.05932   0.84099   0.00000  Uiso   1.00
H1027  H     0.93445   0.01998   0.84272   0.00000  Uiso   1.00
H1028  H     0.94301   0.07549   0.81886   0.00000  Uiso   1.00
H1029  H     0.73641   0.11972   0.95891   0.00000  Uiso   1.00
H1030  H     0.93716   0.02535   0.78255   0.00000  Uiso   1.00
H1031  H     0.75566   0.28453   0.68912   0.00000  Uiso   1.00
H1032  H     0.78704   0.31595   0.62282   0.00000  Uiso   1.00
H1033  H     0.78965   0.25419   0.62160   0.00000  Uiso   1.00
H1034  H     0.83464   0.28696   0.63906   0.00000  Uiso   1.00
H1035  H     0.93078   0.21130   0.54110   0.00000  Uiso   1.00
H1036  H     0.73894   0.11859   0.53949   0.00000  Uiso   1.00
H1037  H     0.92955   0.20891   0.96055   0.00000  Uiso   1.00
H1038  H     0.70365   0.09226   0.75248   0.00000  Uiso   1.00
H1039  H     0.96271   0.24221   0.75190   0.00000  Uiso   1.00
H1040  H     0.96284   0.09231   0.74573   0.00000  Uiso   1.00
N1041  N     0.83333   0.28402   0.75000   0.00000  Uiso   1.00
N1042  N     0.83333   0.04931   0.75000   0.00000  Uiso   1.00
N1043  N     0.76291   0.13351   0.87903   0.00000  Uiso   1.00
N1044  N     0.90254   0.20250   0.62071   0.00000  Uiso   1.00
N1045  N     0.78668   0.04973   0.68632   0.00000  Uiso   1.00
N1046  N     0.87805   0.28405   0.81545   0.00000  Uiso   1.00
N1047  N     0.88271   0.05104   0.81115   0.00000  Uiso   1.00
N1048  N     0.78708   0.28296   0.68578   0.00000  Uiso   1.00
O1049  O     0.77321   0.20625   0.75000   0.00000  Uiso   1.00
O1050  O     0.89345   0.12709   0.75001   0.00000  Uiso   1.00
O1051  O     0.89345   0.20625   0.75001   0.00000  Uiso   1.00
O1052  O     0.77321   0.12709   0.75000   0.00000  Uiso   1.00
O1053  O     0.83332   0.20627   0.68513   0.00000  Uiso   1.00
O1054  O     0.83334   0.12707   0.81487   0.00000  Uiso   1.00
O1055  O     0.83334   0.20627   0.81487   0.00000  Uiso   1.00
O1056  O     0.83332   0.12707   0.68513   0.00000  Uiso   1.00
C1057  C     0.08745   0.50007   0.75032   0.00000  Uiso   1.00
C1058  C     0.04279   0.50041   0.75079   0.00000  Uiso   1.00
C1059  C     0.14305   0.35808   0.71930   0.00000  Uiso   1.00
C1060  C     0.18932   0.64209   0.78155   0.00000  Uiso   1.00
C1061  C     0.19085   0.35862   0.78019   0.00000  Uiso   1.00
C1062  C     0.14398   0.64156   0.71847   0.00000  Uiso   1.00
C1063  C     0.16690   0.49984   0.66462   0.00000  Uiso   1.00
C1064  C     0.16645   0.49998   0.83538   0.00000  Uiso   1.00
C1065  C     0.20091   0.51326   0.90758   0.00000  Uiso   1.00
C1066  C     0.13420   0.48116   0.59253   0.00000  Uiso   1.00
C1067  C     0.16566   0.49941   0.88357   0.00000  Uiso   1.00
C1068  C     0.24588   0.50008   0.74990   0.00000  Uiso   1.00
C1069  C     0.16799   0.49934   0.61646   0.00000  Uiso   1.00
C1070  C     0.13092   0.48265   0.90520   0.00000  Uiso   1.00
C1071  C     0.20219   0.51729   0.59472   0.00000  Uiso   1.00
C1072  C     0.13142   0.48158   0.95230   0.00000  Uiso   1.00
C1073  C     0.20237   0.51629   0.54767   0.00000  Uiso   1.00
C1074  C     0.16673   0.49804   0.97654   0.00000  Uiso   1.00
C1075  C     0.16750   0.49861   0.52349   0.00000  Uiso   1.00
C1076  C     0.20139   0.51387   0.95389   0.00000  Uiso   1.00
C1077  C     0.13336   0.48140   0.54618   0.00000  Uiso   1.00
C1078  C     0.09753   0.46534   0.97584   0.00000  Uiso   1.00
C1079  C     0.09872   0.46487   0.52225   0.00000  Uiso   1.00
C1080  C     0.23656   0.53173   0.52415   0.00000  Uiso   1.00
C1081  C     0.06564   0.50209   0.86944   0.00000  Uiso   1.00
C1082  C     0.26758   0.50248   0.63242   0.00000  Uiso   1.00
C1083  C     0.07570   0.37789   0.68459   0.00000  Uiso   1.00
C1084  C     0.19717   0.62341   0.86051   0.00000  Uiso   1.00
C1085  C     0.25987   0.37548   0.81360   0.00000  Uiso   1.00
C1086  C     0.13382   0.61884   0.64017   0.00000  Uiso   1.00
C1087  C     0.23610   0.53020   0.97779   0.00000  Uiso   1.00
C1088  C     0.02119   0.45847   0.75076   0.00000  Uiso   1.00
C1089  C     0.31205   0.54261   0.75114   0.00000  Uiso   1.00
C1090  C     0.31205   0.45848   0.74847   0.00000  Uiso   1.00
C1091  C     0.02135   0.54260   0.75106   0.00000  Uiso   1.00
C1092  C     0.29054   0.50042   0.74978   0.00000  Uiso   1.00
Cu1093 Cu    0.16667   0.54689   0.75000   0.00000  Uiso   1.00
Cu1094 Cu    0.16667   0.45311   0.75000   0.00000  Uiso   1.00
H1095  H     0.22808   0.52346   0.88995   0.00000  Uiso   1.00
H1096  H     0.03741   0.57554   0.75148   0.00000  Uiso   1.00
H1097  H     0.08397   0.43573   0.88892   0.00000  Uiso   1.00
H1098  H     0.05228   0.51507   0.90081   0.00000  Uiso   1.00
H1099  H     0.04049   0.48715   0.84797   0.00000  Uiso   1.00
H1100  H     0.07959   0.53148   0.85147   0.00000  Uiso   1.00
H1101  H     0.24723   0.56689   0.60948   0.00000  Uiso   1.00
H1102  H     0.28198   0.48868   0.60196   0.00000  Uiso   1.00
H1103  H     0.25439   0.47331   0.65135   0.00000  Uiso   1.00
H1104  H     0.29179   0.51951   0.65368   0.00000  Uiso   1.00
H1105  H     0.13350   0.38547   0.65578   0.00000  Uiso   1.00
H1106  H     0.10814   0.46777   0.61024   0.00000  Uiso   1.00
H1107  H     0.06584   0.35577   0.65581   0.00000  Uiso   1.00
H1108  H     0.06145   0.41246   0.67953   0.00000  Uiso   1.00
H1109  H     0.06439   0.36237   0.71575   0.00000  Uiso   1.00
H1110  H     0.24289   0.61758   0.81269   0.00000  Uiso   1.00
H1111  H     0.20204   0.65904   0.87307   0.00000  Uiso   1.00
H1112  H     0.21512   0.60073   0.88337   0.00000  Uiso   1.00
H1113  H     0.16397   0.61463   0.86214   0.00000  Uiso   1.00
H1114  H     0.20298   0.39266   0.84099   0.00000  Uiso   1.00
H1115  H     0.26778   0.35331   0.84272   0.00000  Uiso   1.00
H1116  H     0.27634   0.40883   0.81886   0.00000  Uiso   1.00
H1117  H     0.06974   0.45305   0.95891   0.00000  Uiso   1.00
H1118  H     0.27050   0.35869   0.78255   0.00000  Uiso   1.00
H1119  H     0.08899   0.61787   0.68912   0.00000  Uiso   1.00
H1120  H     0.12037   0.64928   0.62282   0.00000  Uiso   1.00
H1121  H     0.12298   0.58753   0.62160   0.00000  Uiso   1.00
H1122  H     0.16798   0.62029   0.63906   0.00000  Uiso   1.00
H1123  H     0.26412   0.54464   0.54110   0.00000  Uiso   1.00
H1124  H     0.07227   0.45192   0.53949   0.00000  Uiso   1.00
H1125  H     0.26289   0.54224   0.96055   0.00000  Uiso   1.00
H1126  H     0.03698   0.42560   0.75248   0.00000  Uiso   1.00
H1127  H     0.29605   0.57554   0.75190   0.00000  Uiso   1.00
H1128  H     0.29618   0.42564   0.74573   0.00000  Uiso   1.00
N1129  N     0.16667   0.61736   0.75000   0.00000  Uiso   1.00
N1130  N     0.16667   0.38264   0.75000   0.00000  Uiso   1.00
N1131  N     0.09624   0.46684   0.87903   0.00000  Uiso   1.00
N1132  N     0.23588   0.53584   0.62071   0.00000  Uiso   1.00
N1133  N     0.12002   0.38307   0.68632   0.00000  Uiso   1.00
N1134  N     0.21139   0.61738   0.81545   0.00000  Uiso   1.00
N1135  N     0.21604   0.38438   0.81115   0.00000  Uiso   1.00
N1136  N     0.12041   0.61629   0.68578   0.00000  Uiso   1.00
O1137  O     0.10655   0.53958   0.75000   0.00000  Uiso   1.00
O1138  O     0.22679   0.46042   0.75001   0.00000  Uiso   1.00
O1139  O     0.22679   0.53958   0.75001   0.00000  Uiso   1.00
O1140  O     0.10655   0.46042   0.75000   0.00000  Uiso   1.00
O1141  O     0.16666   0.53960   0.68513   0.00000  Uiso   1.00
O1142  O     0.16668   0.46040   0.81487   0.00000  Uiso   1.00
O1143  O     0.16668   0.53960   0.81487   0.00000  Uiso   1.00
O1144  O     0.16666   0.46040   0.68513   0.00000  Uiso   1.00
C1145  C     0.42079   0.50007   0.75032   0.00000  Uiso   1.00
C1146  C     0.37612   0.50041   0.75079   0.00000  Uiso   1.00
C1147  C     0.47638   0.35808   0.71930   0.00000  Uiso   1.00
C1148  C     0.52266   0.64209   0.78155   0.00000  Uiso   1.00
C1149  C     0.52418   0.35862   0.78019   0.00000  Uiso   1.00
C1150  C     0.47731   0.64156   0.71847   0.00000  Uiso   1.00
C1151  C     0.50023   0.49984   0.66462   0.00000  Uiso   1.00
C1152  C     0.49978   0.49998   0.83538   0.00000  Uiso   1.00
C1153  C     0.53424   0.51326   0.90758   0.00000  Uiso   1.00
C1154  C     0.46753   0.48116   0.59253   0.00000  Uiso   1.00
C1155  C     0.49899   0.49941   0.88357   0.00000  Uiso   1.00
C1156  C     0.57921   0.50008   0.74990   0.00000  Uiso   1.00
C1157  C     0.50132   0.49934   0.61646   0.00000  Uiso   1.00
C1158  C     0.46425   0.48265   0.90520   0.00000  Uiso   1.00
C1159  C     0.53552   0.51729   0.59472   0.00000  Uiso   1.00
C1160  C     0.46475   0.48158   0.95230   0.00000  Uiso   1.00
C1161  C     0.53570   0.51629   0.54767   0.00000  Uiso   1.00
C1162  C     0.50006   0.49804   0.97654   0.00000  Uiso   1.00
C1163  C     0.50083   0.49861   0.52349   0.00000  Uiso   1.00
C1164  C     0.53473   0.51387   0.95389   0.00000  Uiso   1.00
C1165  C     0.46669   0.48140   0.54618   0.00000  Uiso   1.00
C1166  C     0.43086   0.46534   0.97584   0.00000  Uiso   1.00
C1167  C     0.43206   0.46487   0.52225   0.00000  Uiso   1.00
C1168  C     0.56989   0.53173   0.52415   0.00000  Uiso   1.00
C1169  C     0.39897   0.50209   0.86944   0.00000  Uiso   1.00
C1170  C     0.60091   0.50248   0.63242   0.00000  Uiso   1.00
C1171  C     0.40903   0.37789   0.68459   0.00000  Uiso   1.00
C1172  C     0.53051   0.62341   0.86051   0.00000  Uiso   1.00
C1173  C     0.59320   0.37548   0.81360   0.00000  Uiso   1.00
C1174  C     0.46716   0.61884   0.64017   0.00000  Uiso   1.00
C1175  C     0.56944   0.53020   0.97779   0.00000  Uiso   1.00
C1176  C     0.35453   0.45847   0.75076   0.00000  Uiso   1.00
C1177  C     0.64538   0.54261   0.75114   0.00000  Uiso   1.00
C1178  C     0.64538   0.45848   0.74847   0.00000  Uiso   1.00
C1179  C     0.35469   0.54260   0.75106   0.00000  Uiso   1.00
C1180  C     0.62387   0.50042   0.74978   0.00000  Uiso   1.00
Cu1181 Cu    0.50000   0.54689   0.75000   0.00000  Uiso   1.00
Cu1182 Cu    0.50000   0.45311   0.75000   0.00000  Uiso   1.00
H1183  H     0.56142   0.52346   0.88995   0.00000  Uiso   1.00
H1184  H     0.37074   0.57554   0.75148   0.00000  Uiso   1.00
H1185  H     0.41730   0.43573   0.88892   0.00000  Uiso   1.00
H1186  H     0.38561   0.51507   0.90081   0.00000  Uiso   1.00
H1187  H     0.37383   0.48715   0.84797   0.00000  Uiso   1.00
H1188  H     0.41293   0.53148   0.85147   0.00000  Uiso   1.00
H1189  H     0.58056   0.56689   0.60948   0.00000  Uiso   1.00
H1190  H     0.61531   0.48868   0.60196   0.00000  Uiso   1.00
H1191  H     0.58773   0.47331   0.65135   0.00000  Uiso   1.00
H1192  H     0.62512   0.51951   0.65368   0.00000  Uiso   1.00
H1193  H     0.46684   0.38547   0.65578   0.00000  Uiso   1.00
H1194  H     0.44147   0.46777   0.61024   0.00000  Uiso   1.00
H1195  H     0.39917   0.35577   0.65581   0.00000  Uiso   1.00
H1196  H     0.39479   0.41246   0.67953   0.00000  Uiso   1.00
H1197  H     0.39772   0.36237   0.71575   0.00000  Uiso   1.00
H1198  H     0.57622   0.61758   0.81269   0.00000  Uiso   1.00
H1199  H     0.53537   0.65904   0.87307   0.00000  Uiso   1.00
H1200  H     0.54845   0.60073   0.88337   0.00000  Uiso   1.00
H1201  H     0.49730   0.61463   0.86214   0.00000  Uiso   1.00
H1202  H     0.53632   0.39266   0.84099   0.00000  Uiso   1.00
H1203  H     0.60111   0.35331   0.84272   0.00000  Uiso   1.00
H1204  H     0.60968   0.40883   0.81886   0.00000  Uiso   1.00
H1205  H     0.40307   0.45305   0.95891   0.00000  Uiso   1.00
H1206  H     0.60383   0.35869   0.78255   0.00000  Uiso   1.00
H1207  H     0.42232   0.61787   0.68912   0.00000  Uiso   1.00
H1208  H     0.45371   0.64928   0.62282   0.00000  Uiso   1.00
H1209  H     0.45631   0.58753   0.62160   0.00000  Uiso   1.00
H1210  H     0.50131   0.62029   0.63906   0.00000  Uiso   1.00
H1211  H     0.59745   0.54464   0.54110   0.00000  Uiso   1.00
H1212  H     0.40561   0.45192   0.53949   0.00000  Uiso   1.00
H1213  H     0.59622   0.54224   0.96055   0.00000  Uiso   1.00
H1214  H     0.37031   0.42560   0.75248   0.00000  Uiso   1.00
H1215  H     0.62938   0.57554   0.75190   0.00000  Uiso   1.00
H1216  H     0.62951   0.42564   0.74573   0.00000  Uiso   1.00
N1217  N     0.50000   0.61736   0.75000   0.00000  Uiso   1.00
N1218  N     0.50000   0.38264   0.75000   0.00000  Uiso   1.00
N1219  N     0.42958   0.46684   0.87903   0.00000  Uiso   1.00
N1220  N     0.56921   0.53584   0.62071   0.00000  Uiso   1.00
N1221  N     0.45335   0.38307   0.68632   0.00000  Uiso   1.00
N1222  N     0.54472   0.61738   0.81545   0.00000  Uiso   1.00
N1223  N     0.54938   0.38438   0.81115   0.00000  Uiso   1.00
N1224  N     0.45374   0.61629   0.68578   0.00000  Uiso   1.00
O1225  O     0.43988   0.53958   0.75000   0.00000  Uiso   1.00
O1226  O     0.56012   0.46042   0.75001   0.00000  Uiso   1.00
O1227  O     0.56012   0.53958   0.75001   0.00000  Uiso   1.00
O1228  O     0.43988   0.46042   0.75000   0.00000  Uiso   1.00
O1229  O     0.49999   0.53960   0.68513   0.00000  Uiso   1.00
O1230  O     0.50001   0.46040   0.81487   0.00000  Uiso   1.00
O1231  O     0.50001   0.53960   0.81487   0.00000  Uiso   1.00
O1232  O     0.49999   0.46040   0.68513   0.00000  Uiso   1.00
C1233  C     0.75412   0.50007   0.75032   0.00000  Uiso   1.00
C1234  C     0.70946   0.50041   0.75079   0.00000  Uiso   1.00
C1235  C     0.80972   0.35808   0.71930   0.00000  Uiso   1.00
C1236  C     0.85599   0.64209   0.78155   0.00000  Uiso   1.00
C1237  C     0.85752   0.35862   0.78019   0.00000  Uiso   1.00
C1238  C     0.81064   0.64156   0.71847   0.00000  Uiso   1.00
C1239  C     0.83356   0.49984   0.66462   0.00000  Uiso   1.00
C1240  C     0.83311   0.49998   0.83538   0.00000  Uiso   1.00
C1241  C     0.86757   0.51326   0.90758   0.00000  Uiso   1.00
C1242  C     0.80087   0.48116   0.59253   0.00000  Uiso   1.00
C1243  C     0.83232   0.49941   0.88357   0.00000  Uiso   1.00
C1244  C     0.91255   0.50008   0.74990   0.00000  Uiso   1.00
C1245  C     0.83466   0.49934   0.61646   0.00000  Uiso   1.00
C1246  C     0.79759   0.48265   0.90520   0.00000  Uiso   1.00
C1247  C     0.86885   0.51729   0.59472   0.00000  Uiso   1.00
C1248  C     0.79808   0.48158   0.95230   0.00000  Uiso   1.00
C1249  C     0.86904   0.51629   0.54767   0.00000  Uiso   1.00
C1250  C     0.83339   0.49804   0.97654   0.00000  Uiso   1.00
C1251  C     0.83416   0.49861   0.52349   0.00000  Uiso   1.00
C1252  C     0.86806   0.51387   0.95389   0.00000  Uiso   1.00
C1253  C     0.80003   0.48140   0.54618   0.00000  Uiso   1.00
C1254  C     0.76419   0.46534   0.97584   0.00000  Uiso   1.00
C1255  C     0.76539   0.46487   0.52225   0.00000  Uiso   1.00
C1256  C     0.90322   0.53173   0.52415   0.00000  Uiso   1.00
C1257  C     0.73231   0.50209   0.86944   0.00000  Uiso   1.00
C1258  C     0.93425   0.50248   0.63242   0.00000  Uiso   1.00
C1259  C     0.74237   0.37789   0.68459   0.00000  Uiso   1.00
C1260  C     0.86384   0.62341   0.86051   0.00000  Uiso   1.00
C1261  C     0.92653   0.37548   0.81360   0.00000  Uiso   1.00
C1262  C     0.80049   0.61884   0.64017   0.00000  Uiso   1.00
C1263  C     0.90277   0.53020   0.97779   0.00000  Uiso   1.00
C1264  C     0.68786   0.45847   0.75076   0.00000  Uiso   1.00
C1265  C     0.97871   0.54261   0.75114   0.00000  Uiso   1.00
C1266  C     0.97871   0.45848   0.74847   0.00000  Uiso   1.00
C1267  C     0.68802   0.54260   0.75106   0.00000  Uiso   1.00
C1268  C     0.95721   0.50042   0.74978   0.00000  Uiso   1.00
Cu1269 Cu    0.83333   0.54689   0.75000   0.00000  Uiso   1.00
Cu1270 Cu    0.83333   0.45311   0.75000   0.00000  Uiso   1.00
H1271  H     0.89475   0.52346   0.88995   0.00000  Uiso   1.00
H1272  H     0.70407   0.57554   0.75148   0.00000  Uiso   1.00
H1273  H     0.75064   0.43573   0.88892   0.00000  Uiso   1.00
H1274  H     0.71895   0.51507   0.90081   0.00000  Uiso   1.00
H1275  H     0.70716   0.48715   0.84797   0.00000  Uiso   1.00
H1276  H     0.74626   0.53148   0.85147   0.00000  Uiso   1.00
H1277  H     0.91389   0.56689   0.60948   0.00000  Uiso   1.00
H1278  H     0.94864   0.48868   0.60196   0.00000  Uiso   1.00
H1279  H     0.92106   0.47331   0.65135   0.00000  Uiso   1.00
H1280  H     0.95846   0.51951   0.65368   0.00000  Uiso   1.00
H1281  H     0.80017   0.38547   0.65578   0.00000  Uiso   1.00
H1282  H     0.77480   0.46777   0.61024   0.00000  Uiso   1.00
H1283  H     0.73251   0.35577   0.65581   0.00000  Uiso   1.00
H1284  H     0.72812   0.41246   0.67953   0.00000  Uiso   1.00
H1285  H     0.73106   0.36237   0.71575   0.00000  Uiso   1.00
H1286  H     0.90955   0.61758   0.81269   0.00000  Uiso   1.00
H1287  H     0.86871   0.65904   0.87307   0.00000  Uiso   1.00
H1288  H     0.88179   0.60073   0.88337   0.00000  Uiso   1.00
H1289  H     0.83063   0.61463   0.86214   0.00000  Uiso   1.00
H1290  H     0.86965   0.39266   0.84099   0.00000  Uiso   1.00
H1291  H     0.93445   0.35331   0.84272   0.00000  Uiso   1.00
H1292  H     0.94301   0.40883   0.81886   0.00000  Uiso   1.00
H1293  H     0.73641   0.45305   0.95891   0.00000  Uiso   1.00
H1294  H     0.93716   0.35869   0.78255   0.00000  Uiso   1.00
H1295  H     0.75566   0.61787   0.68912   0.00000  Uiso   1.00
H1296  H     0.78704   0.64928   0.62282   0.00000  Uiso   1.00
H1297  H     0.78965   0.58753   0.62160   0.00000  Uiso   1.00
H1298  H     0.83464   0.62029   0.63906   0.00000  Uiso   1.00
H1299  H     0.93078   0.54464   0.54110   0.00000  Uiso   1.00
H1300  H     0.73894   0.45192   0.53949   0.00000  Uiso   1.00
H1301  H     0.92955   0.54224   0.96055   0.00000  Uiso   1.00
H1302  H     0.70365   0.42560   0.75248   0.00000  Uiso   1.00
H1303  H     0.96271   0.57554   0.75190   0.00000  Uiso   1.00
H1304  H     0.96284   0.42564   0.74573   0.00000  Uiso   1.00
N1305  N     0.83333   0.61736   0.75000   0.00000  Uiso   1.00
N1306  N     0.83333   0.38264   0.75000   0.00000  Uiso   1.00
N1307  N     0.76291   0.46684   0.87903   0.00000  Uiso   1.00
N1308  N     0.90254   0.53584   0.62071   0.00000  Uiso   1.00
N1309  N     0.78668   0.38307   0.68632   0.00000  Uiso   1.00
N1310  N     0.87805   0.61738   0.81545   0.00000  Uiso   1.00
N1311  N     0.88271   0.38438   0.81115   0.00000  Uiso   1.00
N1312  N     0.78708   0.61629   0.68578   0.00000  Uiso   1.00
O1313  O     0.77321   0.53958   0.75000   0.00000  Uiso   1.00
O1314  O     0.89345   0.46042   0.75001   0.00000  Uiso   1.00
O1315  O     0.89345   0.53958   0.75001   0.00000  Uiso   1.00
O1316  O     0.77321   0.46042   0.75000   0.00000  Uiso   1.00
O1317  O     0.83332   0.53960   0.68513   0.00000  Uiso   1.00
O1318  O     0.83334   0.46040   0.81487   0.00000  Uiso   1.00
O1319  O     0.83334   0.53960   0.81487   0.00000  Uiso   1.00
O1320  O     0.83332   0.46040   0.68513   0.00000  Uiso   1.00
C1321  C     0.08745   0.83341   0.75032   0.00000  Uiso   1.00
C1322  C     0.04279   0.83374   0.75079   0.00000  Uiso   1.00
C1323  C     0.14305   0.69142   0.71930   0.00000  Uiso   1.00
C1324  C     0.18932   0.97542   0.78155   0.00000  Uiso   1.00
C1325  C     0.19085   0.69195   0.78019   0.00000  Uiso   1.00
C1326  C     0.14398   0.97490   0.71847   0.00000  Uiso   1.00
C1327  C     0.16690   0.83318   0.66462   0.00000  Uiso   1.00
C1328  C     0.16645   0.83331   0.83538   0.00000  Uiso   1.00
C1329  C     0.20091   0.84659   0.90758   0.00000  Uiso   1.00
C1330  C     0.13420   0.81450   0.59253   0.00000  Uiso   1.00
C1331  C     0.16566   0.83274   0.88357   0.00000  Uiso   1.00
C1332  C     0.24588   0.83342   0.74990   0.00000  Uiso   1.00
C1333  C     0.16799   0.83267   0.61646   0.00000  Uiso   1.00
C1334  C     0.13092   0.81598   0.90520   0.00000  Uiso   1.00
C1335  C     0.20219   0.85062   0.59472   0.00000  Uiso   1.00
C1336  C     0.13142   0.81491   0.95230   0.00000  Uiso   1.00
C1337  C     0.20237   0.84962   0.54767   0.00000  Uiso   1.00
C1338  C     0.16673   0.83138   0.97654   0.00000  Uiso   1.00
C1339  C     0.16750   0.83194   0.52349   0.00000  Uiso   1.00
C1340  C     0.20139   0.84720   0.95389   0.00000  Uiso   1.00
C1341  C     0.13336   0.81473   0.54618   0.00000  Uiso   1.00
C1342  C     0.09753   0.79868   0.97584   0.00000  Uiso   1.00
C1343  C     0.09872   0.79820   0.52225   0.00000  Uiso   1.00
C1344  C     0.23656   0.86506   0.52415   0.00000  Uiso   1.00
C1345  C     0.06564   0.83543   0.86944   0.00000  Uiso   1.00
C1346  C     0.26758   0.83581   0.63242   0.00000  Uiso   1.00
C1347  C     0.07570   0.71122   0.68459   0.00000  Uiso   1.00
C1348  C     0.19717   0.95674   0.86051   0.00000  Uiso   1.00
C1349  C     0.25987   0.70881   0.81360   0.00000  Uiso   1.00
C1350  C     0.13382   0.95218   0.64017   0.00000  Uiso   1.00
C1351  C     0.23610   0.86354   0.97779   0.00000  Uiso   1.00
C1352  C     0.02119   0.79180   0.75076   0.00000  Uiso   1.00
C1353  C     0.31205   0.87594   0.75114   0.00000  Uiso   1.00
C1354  C     0.31205   0.79182   0.74847   0.00000  Uiso   1.00
C1355  C     0.02135   0.87594   0.75106   0.00000  Uiso   1.00
C1356  C     0.29054   0.83375   0.74978   0.00000  Uiso   1.00
Cu1357 Cu    0.16667   0.88022   0.75000   0.00000  Uiso   1.00
Cu1358 Cu    0.16667   0.78645   0.75000   0.00000  Uiso   1.00
H1359  H     0.22808   0.85680   0.88995   0.00000  Uiso   1.00
H1360  H     0.03741   0.90887   0.75148   0.00000  Uiso   1.00
H1361  H     0.08397   0.76906   0.88892   0.00000  Uiso   1.00
H1362  H     0.05228   0.84841   0.90081   0.00000  Uiso   1.00
H1363  H     0.04049   0.82049   0.84797   0.00000  Uiso   1.00
H1364  H     0.07959   0.86481   0.85147   0.00000  Uiso   1.00
H1365  H     0.24723   0.90023   0.60948   0.00000  Uiso   1.00
H1366  H     0.28198   0.82201   0.60196   0.00000  Uiso   1.00
H1367  H     0.25439   0.80664   0.65135   0.00000  Uiso   1.00
H1368  H     0.29179   0.85285   0.65368   0.00000  Uiso   1.00
H1369  H     0.13350   0.71880   0.65578   0.00000  Uiso   1.00
H1370  H     0.10814   0.80111   0.61024   0.00000  Uiso   1.00
H1371  H     0.06584   0.68910   0.65581   0.00000  Uiso   1.00
H1372  H     0.06145   0.74579   0.67953   0.00000  Uiso   1.00
H1373  H     0.06439   0.69571   0.71575   0.00000  Uiso   1.00
H1374  H     0.24289   0.95091   0.81269   0.00000  Uiso   1.00
H1375  H     0.20204   0.99237   0.87307   0.00000  Uiso   1.00
H1376  H     0.21512   0.93407   0.88337   0.00000  Uiso   1.00
H1377  H     0.16397   0.94796   0.86214   0.00000  Uiso   1.00
H1378  H     0.20298   0.72599   0.84099   0.00000  Uiso   1.00
H1379  H     0.26778   0.68665   0.84272   0.00000  Uiso   1.00
H1380  H     0.27634   0.74216   0.81886   0.00000  Uiso   1.00
H1381  H     0.06974   0.78639   0.95891   0.00000  Uiso   1.00
H1382  H     0.27050   0.69202   0.78255   0.00000  Uiso   1.00
H1383  H     0.08899   0.95120   0.68912   0.00000  Uiso   1.00
H1384  H     0.12037   0.98262   0.62282   0.00000  Uiso   1.00
H1385  H     0.12298   0.92086   0.62160   0.00000  Uiso   1.00
H1386  H     0.16798   0.95362   0.63906   0.00000  Uiso   1.00
H1387  H     0.26412   0.87797   0.54110   0.00000  Uiso   1.00
H1388  H     0.07227   0.78526   0.53949   0.00000  Uiso   1.00
H1389  H     0.26289   0.87558   0.96055   0.00000  Uiso   1.00
H1390  H     0.03698   0.75893   0.75248   0.00000  Uiso   1.00
H1391  H     0.29605   0.90887   0.75190   0.00000  Uiso   1.00
H1392  H     0.29618   0.75897   0.74573   0.00000  Uiso   1.00
N1393  N     0.16667   0.95069   0.75000   0.00000  Uiso   1.00
N1394  N     0.16667   0.71598   0.75000   0.00000  Uiso   1.00
N1395  N     0.09624   0.80017   0.87903   0.00000  Uiso   1.00
N1396  N     0.23588   0.86917   0.62071   0.00000  Uiso   1.00
N1397  N     0.12002   0.71640   0.68632   0.00000  Uiso   1.00
N1398  N     0.21139   0.95071   0.81545   0.00000  Uiso   1.00
N1399  N     0.21604   0.71771   0.81115   0.00000  Uiso   1.00
N1400  N     0.12041   0.94962   0.68578   0.00000  Uiso   1.00
O1401  O     0.10655   0.87291   0.75000   0.00000  Uiso   1.00
O1402  O     0.22679   0.79375   0.75001   0.00000  Uiso   1.00
O1403  O     0.22679   0.87291   0.75001   0.00000  Uiso   1.00
O1404  O     0.10655   0.79375   0.75000   0.00000  Uiso   1.00
O1405  O     0.16666   0.87293   0.68513   0.00000  Uiso   1.00
O1406  O     0.16668   0.79373   0.81487   0.00000  Uiso   1.00
O1407  O     0.16668   0.87293   0.81487   0.00000  Uiso   1.00
O1408  O     0.16666   0.79373   0.68513   0.00000  Uiso   1.00
C1409  C     0.42079   0.83341   0.75032   0.00000  Uiso   1.00
C1410  C     0.37612   0.83374   0.75079   0.00000  Uiso   1.00
C1411  C     0.47638   0.69142   0.71930   0.00000  Uiso   1.00
C1412  C     0.52266   0.97542   0.78155   0.00000  Uiso   1.00
C1413  C     0.52418   0.69195   0.78019   0.00000  Uiso   1.00
C1414  C     0.47731   0.97490   0.71847   0.00000  Uiso   1.00
C1415  C     0.50023   0.83318   0.66462   0.00000  Uiso   1.00
C1416  C     0.49978   0.83331   0.83538   0.00000  Uiso   1.00
C1417  C     0.53424   0.84659   0.90758   0.00000  Uiso   1.00
C1418  C     0.46753   0.81450   0.59253   0.00000  Uiso   1.00
C1419  C     0.49899   0.83274   0.88357   0.00000  Uiso   1.00
C1420  C     0.57921   0.83342   0.74990   0.00000  Uiso   1.00
C1421  C     0.50132   0.83267   0.61646   0.00000  Uiso   1.00
C1422  C     0.46425   0.81598   0.90520   0.00000  Uiso   1.00
C1423  C     0.53552   0.85062   0.59472   0.00000  Uiso   1.00
C1424  C     0.46475   0.81491   0.95230   0.00000  Uiso   1.00
C1425  C     0.53570   0.84962   0.54767   0.00000  Uiso   1.00
C1426  C     0.50006   0.83138   0.97654   0.00000  Uiso   1.00
C1427  C     0.50083   0.83194   0.52349   0.00000  Uiso   1.00
C1428  C     0.53473   0.84720   0.95389   0.00000  Uiso   1.00
C1429  C     0.46669   0.81473   0.54618   0.00000  Uiso   1.00
C1430  C     0.43086   0.79868   0.97584   0.00000  Uiso   1.00
C1431  C     0.43206   0.79820   0.52225   0.00000  Uiso   1.00
C1432  C     0.56989   0.86506   0.52415   0.00000  Uiso   1.00
C1433  C     0.39897   0.83543   0.86944   0.00000  Uiso   1.00
C1434  C     0.60091   0.83581   0.63242   0.00000  Uiso   1.00
C1435  C     0.40903   0.71122   0.68459   0.00000  Uiso   1.00
C1436  C     0.53051   0.95674   0.86051   0.00000  Uiso   1.00
C1437  C     0.59320   0.70881   0.81360   0.00000  Uiso   1.00
C1438  C     0.46716   0.95218   0.64017   0.00000  Uiso   1.00
C1439  C     0.56944   0.86354   0.97779   0.00000  Uiso   1.00
C1440  C     0.35453   0.79180   0.75076   0.00000  Uiso   1.00
C1441  C     0.64538   0.87594   0.75114   0.00000  Uiso   1.00
C1442  C     0.64538   0.79182   0.74847   0.00000  Uiso   1.00
C1443  C     0.35469   0.87594   0.75106   0.00000  Uiso   1.00
C1444  C     0.62387   0.83375   0.74978   0.00000  Uiso   1.00
Cu1445 Cu    0.50000   0.88022   0.75000   0.00000  Uiso   1.00
Cu1446 Cu    0.50000   0.78645   0.75000   0.00000  Uiso   1.00
H1447  H     0.56142   0.85680   0.88995   0.00000  Uiso   1.00
H1448  H     0.37074   0.90887   0.75148   0.00000  Uiso   1.00
H1449  H     0.41730   0.76906   0.88892   0.00000  Uiso   1.00
H1450  H     0.38561   0.84841   0.90081   0.00000  Uiso   1.00
H1451  H     0.37383   0.82049   0.84797   0.00000  Uiso   1.00
H1452  H     0.41293   0.86481   0.85147   0.00000  Uiso   1.00
H1453  H     0.58056   0.90023   0.60948   0.00000  Uiso   1.00
H1454  H     0.61531   0.82201   0.60196   0.00000  Uiso   1.00
H1455  H     0.58773   0.80664   0.65135   0.00000  Uiso   1.00
H1456  H     0.62512   0.85285   0.65368   0.00000  Uiso   1.00
H1457  H     0.46684   0.71880   0.65578   0.00000  Uiso   1.00
H1458  H     0.44147   0.80111   0.61024   0.00000  Uiso   1.00
H1459  H     0.39917   0.68910   0.65581   0.00000  Uiso   1.00
H1460  H     0.39479   0.74579   0.67953   0.00000  Uiso   1.00
H1461  H     0.39772   0.69571   0.71575   0.00000  Uiso   1.00
H1462  H     0.57622   0.95091   0.81269   0.00000  Uiso   1.00
H1463  H     0.53537   0.99237   0.87307   0.00000  Uiso   1.00
H1464  H     0.54845   0.93407   0.88337   0.00000  Uiso   1.00
H1465  H     0.49730   0.94796   0.86214   0.00000  Uiso   1.00
H1466  H     0.53632   0.72599   0.84099   0.00000  Uiso   1.00
H1467  H     0.60111   0.68665   0.84272   0.00000  Uiso   1.00
H1468  H     0.60968   0.74216   0.81886   0.00000  Uiso   1.00
H1469  H     0.40307   0.78639   0.95891   0.00000  Uiso   1.00
H1470  H     0.60383   0.69202   0.78255   0.00000  Uiso   1.00
H1471  H     0.42232   0.95120   0.68912   0.00000  Uiso   1.00
H1472  H     0.45371   0.98262   0.62282   0.00000  Uiso   1.00
H1473  H     0.45631   0.92086   0.62160   0.00000  Uiso   1.00
H1474  H     0.50131   0.95362   0.63906   0.00000  Uiso   1.00
H1475  H     0.59745   0.87797   0.54110   0.00000  Uiso   1.00
H1476  H     0.40561   0.78526   0.53949   0.00000  Uiso   1.00
H1477  H     0.59622   0.87558   0.96055   0.00000  Uiso   1.00
H1478  H     0.37031   0.75893   0.75248   0.00000  Uiso   1.00
H1479  H     0.62938   0.90887   0.75190   0.00000  Uiso   1.00
H1480  H     0.62951   0.75897   0.74573   0.00000  Uiso   1.00
N1481  N     0.50000   0.95069   0.75000   0.00000  Uiso   1.00
N1482  N     0.50000   0.71598   0.75000   0.00000  Uiso   1.00
N1483  N     0.42958   0.80017   0.87903   0.00000  Uiso   1.00
N1484  N     0.56921   0.86917   0.62071   0.00000  Uiso   1.00
N1485  N     0.45335   0.71640   0.68632   0.00000  Uiso   1.00
N1486  N     0.54472   0.95071   0.81545   0.00000  Uiso   1.00
N1487  N     0.54938   0.71771   0.81115   0.00000  Uiso   1.00
N1488  N     0.45374   0.94962   0.68578   0.00000  Uiso   1.00
O1489  O     0.43988   0.87291   0.75000   0.00000  Uiso   1.00
O1490  O     0.56012   0.79375   0.75001   0.00000  Uiso   1.00
O1491  O     0.56012   0.87291   0.75001   0.00000  Uiso   1.00
O1492  O     0.43988   0.79375   0.75000   0.00000  Uiso   1.00
O1493  O     0.49999   0.87293   0.68513   0.00000  Uiso   1.00
O1494  O     0.50001   0.79373   0.81487   0.00000  Uiso   1.00
O1495  O     0.50001   0.87293   0.81487   0.00000  Uiso   1.00
O1496  O     0.49999   0.79373   0.68513   0.00000  Uiso   1.00
C1497  C     0.75412   0.83341   0.75032   0.00000  Uiso   1.00
C1498  C     0.70946   0.83374   0.75079   0.00000  Uiso   1.00
C1499  C     0.80972   0.69142   0.71930   0.00000  Uiso   1.00
C1500  C     0.85599   0.97542   0.78155   0.00000  Uiso   1.00
C1501  C     0.85752   0.69195   0.78019   0.00000  Uiso   1.00
C1502  C     0.81064   0.97490   0.71847   0.00000  Uiso   1.00
C1503  C     0.83356   0.83318   0.66462   0.00000  Uiso   1.00
C1504  C     0.83311   0.83331   0.83538   0.00000  Uiso   1.00
C1505  C     0.86757   0.84659   0.90758   0.00000  Uiso   1.00
C1506  C     0.80087   0.81450   0.59253   0.00000  Uiso   1.00
C1507  C     0.83232   0.83274   0.88357   0.00000  Uiso   1.00
C1508  C     0.91255   0.83342   0.74990   0.00000  Uiso   1.00
C1509  C     0.83466   0.83267   0.61646   0.00000  Uiso   1.00
C1510  C     0.79759   0.81598   0.90520   0.00000  Uiso   1.00
C1511  C     0.86885   0.85062   0.59472   0.00000  Uiso   1.00
C1512  C     0.79808   0.81491   0.95230   0.00000  Uiso   1.00
C1513  C     0.86904   0.84962   0.54767   0.00000  Uiso   1.00
C1514  C     0.83339   0.83138   0.97654   0.00000  Uiso   1.00
C1515  C     0.83416   0.83194   0.52349   0.00000  Uiso   1.00
C1516  C     0.86806   0.84720   0.95389   0.00000  Uiso   1.00
C1517  C     0.80003   0.81473   0.54618   0.00000  Uiso   1.00
C1518  C     0.76419   0.79868   0.97584   0.00000  Uiso   1.00
C1519  C     0.76539   0.79820   0.52225   0.00000  Uiso   1.00
C1520  C     0.90322   0.86506   0.52415   0.00000  Uiso   1.00
C1521  C     0.73231   0.83543   0.86944   0.00000  Uiso   1.00
C1522  C     0.93425   0.83581   0.63242   0.00000  Uiso   1.00
C1523  C     0.74237   0.71122   0.68459   0.00000  Uiso   1.00
C1524  C     0.86384   0.95674   0.86051   0.00000  Uiso   1.00
C1525  C     0.92653   0.70881   0.81360   0.00000  Uiso   1.00
C1526  C     0.80049   0.95218   0.64017   0.00000  Uiso   1.00
C1527  C     0.90277   0.86354   0.97779   0.00000  Uiso   1.00
C1528  C     0.68786   0.79180   0.75076   0.00000  Uiso   1.00
C1529  C     0.97871   0.87594   0.75114   0.00000  Uiso   1.00
C1530  C     0.97871   0.79182   0.74847   0.00000  Uiso   1.00
C1531  C     0.68802   0.87594   0.75106   0.00000  Uiso   1.00
C1532  C     0.95721   0.83375   0.74978   0.00000  Uiso   1.00
Cu1533 Cu    0.83333   0.88022   0.75000   0.00000  Uiso   1.00
Cu1534 Cu    0.83333   0.78645   0.75000   0.00000  Uiso   1.00
H1535  H     0.89475   0.85680   0.88995   0.00000  Uiso   1.00
H1536  H     0.70407   0.90887   0.75148   0.00000  Uiso   1.00
H1537  H     0.75064   0.76906   0.88892   0.00000  Uiso   1.00
H1538  H     0.71895   0.84841   0.90081   0.00000  Uiso   1.00
H1539  H     0.70716   0.82049   0.84797   0.00000  Uiso   1.00
H1540  H     0.74626   0.86481   0.85147   0.00000  Uiso   1.00
H1541  H     0.91389   0.90023   0.60948   0.00000  Uiso   1.00
H1542  H     0.94864   0.82201   0.60196   0.00000  Uiso   1.00
H1543  H     0.92106   0.80664   0.65135   0.00000  Uiso   1.00
H1544  H     0.95846   0.85285   0.65368   0.00000  Uiso   1.00
H1545  H     0.80017   0.71880   0.65578   0.00000  Uiso   1.00
H1546  H     0.77480   0.80111   0.61024   0.00000  Uiso   1.00
H1547  H     0.73251   0.68910   0.65581   0.00000  Uiso   1.00
H1548  H     0.72812   0.74579   0.67953   0.00000  Uiso   1.00
H1549  H     0.73106   0.69571   0.71575   0.00000  Uiso   1.00
H1550  H     0.90955   0.95091   0.81269   0.00000  Uiso   1.00
H1551  H     0.86871   0.99237   0.87307   0.00000  Uiso   1.00
H1552  H     0.88179   0.93407   0.88337   0.00000  Uiso   1.00
H1553  H     0.83063   0.94796   0.86214   0.00000  Uiso   1.00
H1554  H     0.86965   0.72599   0.84099   0.00000  Uiso   1.00
H1555  H     0.93445   0.68665   0.84272   0.00000  Uiso   1.00
H1556  H     0.94301   0.74216   0.81886   0.00000  Uiso   1.00
H1557  H     0.73641   0.78639   0.95891   0.00000  Uiso   1.00
H1558  H     0.93716   0.69202   0.78255   0.00000  Uiso   1.00
H1559  H     0.75566   0.95120   0.68912   0.00000  Uiso   1.00
H1560  H     0.78704   0.98262   0.62282   0.00000  Uiso   1.00
H1561  H     0.78965   0.92086   0.62160   0.00000  Uiso   1.00
H1562  H     0.83464   0.95362   0.63906   0.00000  Uiso   1.00
H1563  H     0.93078   0.87797   0.54110   0.00000  Uiso   1.00
H1564  H     0.73894   0.78526   0.53949   0.00000  Uiso   1.00
H1565  H     0.92955   0.87558   0.96055   0.00000  Uiso   1.00
H1566  H     0.70365   0.75893   0.75248   0.00000  Uiso   1.00
H1567  H     0.96271   0.90887   0.75190   0.00000  Uiso   1.00
H1568  H     0.96284   0.75897   0.74573   0.00000  Uiso   1.00
N1569  N     0.83333   0.95069   0.75000   0.00000  Uiso   1.00
N1570  N     0.83333   0.71598   0.75000   0.00000  Uiso   1.00
N1571  N     0.76291   0.80017   0.87903   0.00000  Uiso   1.00
N1572  N     0.90254   0.86917   0.62071   0.00000  Uiso   1.00
N1573  N     0.78668   0.71640   0.68632   0.00000  Uiso   1.00
N1574  N     0.87805   0.95071   0.81545   0.00000  Uiso   1.00
N1575  N     0.88271   0.71771   0.81115   0.00000  Uiso   1.00
N1576  N     0.78708   0.94962   0.68578   0.00000  Uiso   1.00
O1577  O     0.77321   0.87291   0.75000   0.00000  Uiso   1.00
O1578  O     0.89345   0.79375   0.75001   0.00000  Uiso   1.00
O1579  O     0.89345   0.87291   0.75001   0.00000  Uiso   1.00
O1580  O     0.77321   0.79375   0.75000   0.00000  Uiso   1.00
O1581  O     0.83332   0.87293   0.68513   0.00000  Uiso   1.00
O1582  O     0.83334   0.79373   0.81487   0.00000  Uiso   1.00
O1583  O     0.83334   0.87293   0.81487   0.00000  Uiso   1.00
O1584  O     0.83332   0.79373   0.68513   0.00000  Uiso   1.00
loop_
_geom_bond_atom_site_label_1
_geom_bond_atom_site_label_2
_geom_bond_distance
_geom_bond_site_symmetry_2
_ccdc_geom_bond_type
C1     O84     1.301   .     A
C1     O81     1.297   .     A
C1     C2      1.452   .     S
C2     C35     1.402   .     A
C2     C32     1.398   .     A
C3     N74     1.373   .     A
C3     N77     1.422   .     S
C3     C534    1.438   1_545 S
C4     N78     1.421   .     S
C4     N73     1.376   .     A
C4     C269    1.440   .     S
C5     N74     1.372   .     A
C5     N79     1.424   .     S
C5     C532    1.440   1_545 S
C6     N80     1.422   .     S
C6     N73     1.375   .     A
C6     C267    1.438   .     S
C7     O88     1.296   .     A
C7     C13     1.446   .     S
C7     O85     1.298   .     A
C8     O87     1.301   .     A
C8     C11     1.446   .     S
C8     O86     1.293   .     A
C9     H39     1.085   .     S
C9     C20     1.389   .     A
C9     C11     1.391   .     A
C10    C21     1.390   .     A
C10    C13     1.393   .     A
C10    H50     1.086   .     S
C11    C14     1.406   .     A
C12    C36     1.451   .     S
C12    O83     1.297   .     A
C12    O82     1.301   .     A
C13    C15     1.406   .     A
C14    C16     1.413   .     A
C14    N75     1.426   .     S
C15    N76     1.426   .     S
C15    C17     1.412   .     A
C16    C22     1.408   .     A
C16    C18     1.419   .     A
C17    C19     1.419   .     A
C17    C24     1.408   .     A
C18    C20     1.410   .     A
C18    C811    1.408   .     S
C19    C21     1.411   .     A
C19    C810    1.408   1_554 S
C20    C31     1.398   .     A
C21    C23     1.398   .     A
C22    H61     1.081   .     S
C22    C815    1.391   .     S
C23    H68     1.084   .     S
C23    C814    1.391   1_554 S
C24    H67     1.081   .     S
C24    C823    1.390   1_554 S
C25    H43     1.110   .     S
C25    H44     1.111   .     S
C25    N75     1.446   .     S
C25    H42     1.111   .     S
C26    N76     1.446   .     S
C26    H48     1.110   .     S
C26    H46     1.111   .     S
C26    H47     1.111   .     S
C27    H51     1.109   .     S
C27    H52     1.109   .     S
C27    N77     1.447   .     S
C27    H53     1.111   .     S
C28    H56     1.104   .     S
C28    H57     1.111   .     S
C28    N78     1.451   .     S
C28    H55     1.102   .     S
C29    H59     1.109   .     S
C29    N79     1.447   .     S
C29    H60     1.108   .     S
C29    H62     1.112   .     S
C30    H64     1.106   .     S
C30    N80     1.451   .     S
C30    H66     1.112   .     S
C30    H65     1.109   .     S
C31    H69     1.084   .     S
C31    C816    1.390   .     S
C32    H70     1.078   .     S
C32    C210    1.380   1_455 S
C33    C36     1.402   .     A
C33    H71     1.083   .     S
C33    C123    1.386   .     S
C34    C36     1.398   .     A
C34    H72     1.080   .     S
C34    C120    1.380   .     S
C35    H40     1.083   .     S
C35    C209    1.386   1_455 S
Cu37   O85     1.956   .     S
Cu37   O81     1.965   .     S
Cu37   Cu38    2.704   .     S
Cu37   N73     2.032   .     S
Cu37   O87     1.958   .     S
Cu37   O83     1.965   .     S
Cu38   O86     1.956   .     S
Cu38   O82     1.965   .     S
Cu38   O88     1.958   .     S
Cu38   N74     2.032   .     S
Cu38   O84     1.965   .     S
H41    N75     1.030   .     S
H45    N76     1.031   .     S
H49    N77     1.030   .     S
H54    N78     1.029   .     S
H58    N79     1.029   .     S
H63    N80     1.030   .     S
C89    O172    1.301   .     A
C89    O169    1.297   .     A
C89    C90     1.452   .     S
C90    C123    1.402   .     A
C90    C120    1.398   .     A
C91    N162    1.373   .     A
C91    N165    1.422   .     S
C91    C622    1.438   1_545 S
C92    N166    1.421   .     S
C92    N161    1.376   .     A
C92    C357    1.440   .     S
C93    N162    1.372   .     A
C93    N167    1.424   .     S
C93    C620    1.440   1_545 S
C94    N168    1.422   .     S
C94    N161    1.375   .     A
C94    C355    1.438   .     S
C95    O176    1.296   .     A
C95    C101    1.446   .     S
C95    O173    1.298   .     A
C96    O175    1.301   .     A
C96    C99     1.446   .     S
C96    O174    1.293   .     A
C97    H127    1.085   .     S
C97    C108    1.389   .     A
C97    C99     1.391   .     A
C98    C109    1.390   .     A
C98    C101    1.393   .     A
C98    H138    1.086   .     S
C99    C102    1.406   .     A
C100   C124    1.451   .     S
C100   O171    1.297   .     A
C100   O170    1.301   .     A
C101   C103    1.406   .     A
C102   C104    1.413   .     A
C102   N163    1.426   .     S
C103   N164    1.426   .     S
C103   C105    1.412   .     A
C104   C110    1.408   .     A
C104   C106    1.419   .     A
C105   C107    1.419   .     A
C105   C112    1.408   .     A
C106   C108    1.410   .     A
C106   C899    1.408   .     S
C107   C109    1.411   .     A
C107   C898    1.408   1_554 S
C108   C119    1.398   .     A
C109   C111    1.398   .     A
C110   H149    1.081   .     S
C110   C903    1.391   .     S
C111   H156    1.084   .     S
C111   C902    1.391   1_554 S
C112   H155    1.081   .     S
C112   C911    1.390   1_554 S
C113   H131    1.110   .     S
C113   H132    1.111   .     S
C113   N163    1.446   .     S
C113   H130    1.111   .     S
C114   N164    1.446   .     S
C114   H136    1.110   .     S
C114   H134    1.111   .     S
C114   H135    1.111   .     S
C115   H139    1.109   .     S
C115   H140    1.109   .     S
C115   N165    1.447   .     S
C115   H141    1.111   .     S
C116   H144    1.104   .     S
C116   H145    1.111   .     S
C116   N166    1.451   .     S
C116   H143    1.102   .     S
C117   H147    1.109   .     S
C117   N167    1.447   .     S
C117   H148    1.108   .     S
C117   H150    1.112   .     S
C118   H152    1.106   .     S
C118   N168    1.451   .     S
C118   H154    1.112   .     S
C118   H153    1.109   .     S
C119   H157    1.084   .     S
C119   C904    1.390   .     S
C120   H158    1.078   .     S
C121   C124    1.402   .     A
C121   H159    1.083   .     S
C121   C211    1.386   .     S
C122   C124    1.398   .     A
C122   H160    1.080   .     S
C122   C208    1.380   .     S
C123   H128    1.083   .     S
Cu125  O173    1.956   .     S
Cu125  O169    1.965   .     S
Cu125  Cu126   2.704   .     S
Cu125  N161    2.032   .     S
Cu125  O175    1.958   .     S
Cu125  O171    1.965   .     S
Cu126  O174    1.956   .     S
Cu126  O170    1.965   .     S
Cu126  O176    1.958   .     S
Cu126  N162    2.032   .     S
Cu126  O172    1.965   .     S
H129   N163    1.030   .     S
H133   N164    1.031   .     S
H137   N165    1.030   .     S
H142   N166    1.029   .     S
H146   N167    1.029   .     S
H151   N168    1.030   .     S
C177   O260    1.301   .     A
C177   O257    1.297   .     A
C177   C178    1.452   .     S
C178   C211    1.402   .     A
C178   C208    1.398   .     A
C179   N250    1.373   .     A
C179   N253    1.422   .     S
C179   C710    1.438   1_545 S
C180   N254    1.421   .     S
C180   N249    1.376   .     A
C180   C445    1.440   .     S
C181   N250    1.372   .     A
C181   N255    1.424   .     S
C181   C708    1.440   1_545 S
C182   N256    1.422   .     S
C182   N249    1.375   .     A
C182   C443    1.438   .     S
C183   O264    1.296   .     A
C183   C189    1.446   .     S
C183   O261    1.298   .     A
C184   O263    1.301   .     A
C184   C187    1.446   .     S
C184   O262    1.293   .     A
C185   H215    1.085   .     S
C185   C196    1.389   .     A
C185   C187    1.391   .     A
C186   C197    1.390   .     A
C186   C189    1.393   .     A
C186   H226    1.086   .     S
C187   C190    1.406   .     A
C188   C212    1.451   .     S
C188   O259    1.297   .     A
C188   O258    1.301   .     A
C189   C191    1.406   .     A
C190   C192    1.413   .     A
C190   N251    1.426   .     S
C191   N252    1.426   .     S
C191   C193    1.412   .     A
C192   C198    1.408   .     A
C192   C194    1.419   .     A
C193   C195    1.419   .     A
C193   C200    1.408   .     A
C194   C196    1.410   .     A
C194   C987    1.408   .     S
C195   C197    1.411   .     A
C195   C986    1.408   1_554 S
C196   C207    1.398   .     A
C197   C199    1.398   .     A
C198   H237    1.081   .     S
C198   C991    1.391   .     S
C199   H244    1.084   .     S
C199   C990    1.391   1_554 S
C200   H243    1.081   .     S
C200   C999    1.390   1_554 S
C201   H219    1.110   .     S
C201   H220    1.111   .     S
C201   N251    1.446   .     S
C201   H218    1.111   .     S
C202   N252    1.446   .     S
C202   H224    1.110   .     S
C202   H222    1.111   .     S
C202   H223    1.111   .     S
C203   H227    1.109   .     S
C203   H228    1.109   .     S
C203   N253    1.447   .     S
C203   H229    1.111   .     S
C204   H232    1.104   .     S
C204   H233    1.111   .     S
C204   N254    1.451   .     S
C204   H231    1.102   .     S
C205   H235    1.109   .     S
C205   N255    1.447   .     S
C205   H236    1.108   .     S
C205   H238    1.112   .     S
C206   H240    1.106   .     S
C206   N256    1.451   .     S
C206   H242    1.112   .     S
C206   H241    1.109   .     S
C207   H245    1.084   .     S
C207   C992    1.390   .     S
C208   H246    1.078   .     S
C209   C212    1.402   .     A
C209   H247    1.083   .     S
C209   C35     1.386   1_655 S
C210   C212    1.398   .     A
C210   H248    1.080   .     S
C210   C32     1.380   1_655 S
C211   H216    1.083   .     S
Cu213  O261    1.956   .     S
Cu213  O257    1.965   .     S
Cu213  Cu214   2.704   .     S
Cu213  N249    2.032   .     S
Cu213  O263    1.958   .     S
Cu213  O259    1.965   .     S
Cu214  O262    1.956   .     S
Cu214  O258    1.965   .     S
Cu214  O264    1.958   .     S
Cu214  N250    2.032   .     S
Cu214  O260    1.965   .     S
H217   N251    1.030   .     S
H221   N252    1.031   .     S
H225   N253    1.030   .     S
H230   N254    1.029   .     S
H234   N255    1.029   .     S
H239   N256    1.030   .     S
C265   O348    1.301   .     A
C265   O345    1.297   .     A
C265   C266    1.452   .     S
C266   C299    1.402   .     A
C266   C296    1.398   .     A
C267   N338    1.373   .     A
C267   N341    1.422   .     S
C268   N342    1.421   .     S
C268   N337    1.376   .     A
C268   C533    1.440   .     S
C269   N338    1.372   .     A
C269   N343    1.424   .     S
C270   N344    1.422   .     S
C270   N337    1.375   .     A
C270   C531    1.438   .     S
C271   O352    1.296   .     A
C271   C277    1.446   .     S
C271   O349    1.298   .     A
C272   O351    1.301   .     A
C272   C275    1.446   .     S
C272   O350    1.293   .     A
C273   H303    1.085   .     S
C273   C284    1.389   .     A
C273   C275    1.391   .     A
C274   C285    1.390   .     A
C274   C277    1.393   .     A
C274   H314    1.086   .     S
C275   C278    1.406   .     A
C276   C300    1.451   .     S
C276   O347    1.297   .     A
C276   O346    1.301   .     A
C277   C279    1.406   .     A
C278   C280    1.413   .     A
C278   N339    1.426   .     S
C279   N340    1.426   .     S
C279   C281    1.412   .     A
C280   C286    1.408   .     A
C280   C282    1.419   .     A
C281   C283    1.419   .     A
C281   C288    1.408   .     A
C282   C284    1.410   .     A
C282   C1075   1.408   .     S
C283   C285    1.411   .     A
C283   C1074   1.408   1_554 S
C284   C295    1.398   .     A
C285   C287    1.398   .     A
C286   H325    1.081   .     S
C286   C1079   1.391   .     S
C287   H332    1.084   .     S
C287   C1078   1.391   1_554 S
C288   H331    1.081   .     S
C288   C1087   1.390   1_554 S
C289   H307    1.110   .     S
C289   H308    1.111   .     S
C289   N339    1.446   .     S
C289   H306    1.111   .     S
C290   N340    1.446   .     S
C290   H312    1.110   .     S
C290   H310    1.111   .     S
C290   H311    1.111   .     S
C291   H315    1.109   .     S
C291   H316    1.109   .     S
C291   N341    1.447   .     S
C291   H317    1.111   .     S
C292   H320    1.104   .     S
C292   H321    1.111   .     S
C292   N342    1.451   .     S
C292   H319    1.102   .     S
C293   H323    1.109   .     S
C293   N343    1.447   .     S
C293   H324    1.108   .     S
C293   H326    1.112   .     S
C294   H328    1.106   .     S
C294   N344    1.451   .     S
C294   H330    1.112   .     S
C294   H329    1.109   .     S
C295   H333    1.084   .     S
C295   C1080   1.390   .     S
C296   H334    1.078   .     S
C296   C474    1.380   1_455 S
C297   C300    1.402   .     A
C297   H335    1.083   .     S
C297   C387    1.386   .     S
C298   C300    1.398   .     A
C298   H336    1.080   .     S
C298   C384    1.380   .     S
C299   H304    1.083   .     S
C299   C473    1.386   1_455 S
Cu301  O349    1.956   .     S
Cu301  O345    1.965   .     S
Cu301  Cu302   2.704   .     S
Cu301  N337    2.032   .     S
Cu301  O351    1.958   .     S
Cu301  O347    1.965   .     S
Cu302  O350    1.956   .     S
Cu302  O346    1.965   .     S
Cu302  O352    1.958   .     S
Cu302  N338    2.032   .     S
Cu302  O348    1.965   .     S
H305   N339    1.030   .     S
H309   N340    1.031   .     S
H313   N341    1.030   .     S
H318   N342    1.029   .     S
H322   N343    1.029   .     S
H327   N344    1.030   .     S
C353   O436    1.301   .     A
C353   O433    1.297   .     A
C353   C354    1.452   .     S
C354   C387    1.402   .     A
C354   C384    1.398   .     A
C355   N426    1.373   .     A
C355   N429    1.422   .     S
C356   N430    1.421   .     S
C356   N425    1.376   .     A
C356   C621    1.440   .     S
C357   N426    1.372   .     A
C357   N431    1.424   .     S
C358   N432    1.422   .     S
C358   N425    1.375   .     A
C358   C619    1.438   .     S
C359   O440    1.296   .     A
C359   C365    1.446   .     S
C359   O437    1.298   .     A
C360   O439    1.301   .     A
C360   C363    1.446   .     S
C360   O438    1.293   .     A
C361   H391    1.085   .     S
C361   C372    1.389   .     A
C361   C363    1.391   .     A
C362   C373    1.390   .     A
C362   C365    1.393   .     A
C362   H402    1.086   .     S
C363   C366    1.406   .     A
C364   C388    1.451   .     S
C364   O435    1.297   .     A
C364   O434    1.301   .     A
C365   C367    1.406   .     A
C366   C368    1.413   .     A
C366   N427    1.426   .     S
C367   N428    1.426   .     S
C367   C369    1.412   .     A
C368   C374    1.408   .     A
C368   C370    1.419   .     A
C369   C371    1.419   .     A
C369   C376    1.408   .     A
C370   C372    1.410   .     A
C370   C1163   1.408   .     S
C371   C373    1.411   .     A
C371   C1162   1.408   1_554 S
C372   C383    1.398   .     A
C373   C375    1.398   .     A
C374   H413    1.081   .     S
C374   C1167   1.391   .     S
C375   H420    1.084   .     S
C375   C1166   1.391   1_554 S
C376   H419    1.081   .     S
C376   C1175   1.390   1_554 S
C377   H395    1.110   .     S
C377   H396    1.111   .     S
C377   N427    1.446   .     S
C377   H394    1.111   .     S
C378   N428    1.446   .     S
C378   H400    1.110   .     S
C378   H398    1.111   .     S
C378   H399    1.111   .     S
C379   H403    1.109   .     S
C379   H404    1.109   .     S
C379   N429    1.447   .     S
C379   H405    1.111   .     S
C380   H408    1.104   .     S
C380   H409    1.111   .     S
C380   N430    1.451   .     S
C380   H407    1.102   .     S
C381   H411    1.109   .     S
C381   N431    1.447   .     S
C381   H412    1.108   .     S
C381   H414    1.112   .     S
C382   H416    1.106   .     S
C382   N432    1.451   .     S
C382   H418    1.112   .     S
C382   H417    1.109   .     S
C383   H421    1.084   .     S
C383   C1168   1.390   .     S
C384   H422    1.078   .     S
C385   C388    1.402   .     A
C385   H423    1.083   .     S
C385   C475    1.386   .     S
C386   C388    1.398   .     A
C386   H424    1.080   .     S
C386   C472    1.380   .     S
C387   H392    1.083   .     S
Cu389  O437    1.956   .     S
Cu389  O433    1.965   .     S
Cu389  Cu390   2.704   .     S
Cu389  N425    2.032   .     S
Cu389  O439    1.958   .     S
Cu389  O435    1.965   .     S
Cu390  O438    1.956   .     S
Cu390  O434    1.965   .     S
Cu390  O440    1.958   .     S
Cu390  N426    2.032   .     S
Cu390  O436    1.965   .     S
H393   N427    1.030   .     S
H397   N428    1.031   .     S
H401   N429    1.030   .     S
H406   N430    1.029   .     S
H410   N431    1.029   .     S
H415   N432    1.030   .     S
C441   O524    1.301   .     A
C441   O521    1.297   .     A
C441   C442    1.452   .     S
C442   C475    1.402   .     A
C442   C472    1.398   .     A
C443   N514    1.373   .     A
C443   N517    1.422   .     S
C444   N518    1.421   .     S
C444   N513    1.376   .     A
C444   C709    1.440   .     S
C445   N514    1.372   .     A
C445   N519    1.424   .     S
C446   N520    1.422   .     S
C446   N513    1.375   .     A
C446   C707    1.438   .     S
C447   O528    1.296   .     A
C447   C453    1.446   .     S
C447   O525    1.298   .     A
C448   O527    1.301   .     A
C448   C451    1.446   .     S
C448   O526    1.293   .     A
C449   H479    1.085   .     S
C449   C460    1.389   .     A
C449   C451    1.391   .     A
C450   C461    1.390   .     A
C450   C453    1.393   .     A
C450   H490    1.086   .     S
C451   C454    1.406   .     A
C452   C476    1.451   .     S
C452   O523    1.297   .     A
C452   O522    1.301   .     A
C453   C455    1.406   .     A
C454   C456    1.413   .     A
C454   N515    1.426   .     S
C455   N516    1.426   .     S
C455   C457    1.412   .     A
C456   C462    1.408   .     A
C456   C458    1.419   .     A
C457   C459    1.419   .     A
C457   C464    1.408   .     A
C458   C460    1.410   .     A
C458   C1251   1.408   .     S
C459   C461    1.411   .     A
C459   C1250   1.408   1_554 S
C460   C471    1.398   .     A
C461   C463    1.398   .     A
C462   H501    1.081   .     S
C462   C1255   1.391   .     S
C463   H508    1.084   .     S
C463   C1254   1.391   1_554 S
C464   H507    1.081   .     S
C464   C1263   1.390   1_554 S
C465   H483    1.110   .     S
C465   H484    1.111   .     S
C465   N515    1.446   .     S
C465   H482    1.111   .     S
C466   N516    1.446   .     S
C466   H488    1.110   .     S
C466   H486    1.111   .     S
C466   H487    1.111   .     S
C467   H491    1.109   .     S
C467   H492    1.109   .     S
C467   N517    1.447   .     S
C467   H493    1.111   .     S
C468   H496    1.104   .     S
C468   H497    1.111   .     S
C468   N518    1.451   .     S
C468   H495    1.102   .     S
C469   H499    1.109   .     S
C469   N519    1.447   .     S
C469   H500    1.108   .     S
C469   H502    1.112   .     S
C470   H504    1.106   .     S
C470   N520    1.451   .     S
C470   H506    1.112   .     S
C470   H505    1.109   .     S
C471   H509    1.084   .     S
C471   C1256   1.390   .     S
C472   H510    1.078   .     S
C473   C476    1.402   .     A
C473   H511    1.083   .     S
C473   C299    1.386   1_655 S
C474   C476    1.398   .     A
C474   H512    1.080   .     S
C474   C296    1.380   1_655 S
C475   H480    1.083   .     S
Cu477  O525    1.956   .     S
Cu477  O521    1.965   .     S
Cu477  Cu478   2.704   .     S
Cu477  N513    2.032   .     S
Cu477  O527    1.958   .     S
Cu477  O523    1.965   .     S
Cu478  O526    1.956   .     S
Cu478  O522    1.965   .     S
Cu478  O528    1.958   .     S
Cu478  N514    2.032   .     S
Cu478  O524    1.965   .     S
H481   N515    1.030   .     S
H485   N516    1.031   .     S
H489   N517    1.030   .     S
H494   N518    1.029   .     S
H498   N519    1.029   .     S
H503   N520    1.030   .     S
C529   O612    1.301   .     A
C529   O609    1.297   .     A
C529   C530    1.452   .     S
C530   C563    1.402   .     A
C530   C560    1.398   .     A
C531   N602    1.373   .     A
C531   N605    1.422   .     S
C532   N606    1.421   .     S
C532   N601    1.376   .     A
C532   C5      1.440   1_565 S
C533   N602    1.372   .     A
C533   N607    1.424   .     S
C534   N608    1.422   .     S
C534   N601    1.375   .     A
C534   C3      1.438   1_565 S
C535   O616    1.296   .     A
C535   C541    1.446   .     S
C535   O613    1.298   .     A
C536   O615    1.301   .     A
C536   C539    1.446   .     S
C536   O614    1.293   .     A
C537   H567    1.085   .     S
C537   C548    1.389   .     A
C537   C539    1.391   .     A
C538   C549    1.390   .     A
C538   C541    1.393   .     A
C538   H578    1.086   .     S
C539   C542    1.406   .     A
C540   C564    1.451   .     S
C540   O611    1.297   .     A
C540   O610    1.301   .     A
C541   C543    1.406   .     A
C542   C544    1.413   .     A
C542   N603    1.426   .     S
C543   N604    1.426   .     S
C543   C545    1.412   .     A
C544   C550    1.408   .     A
C544   C546    1.419   .     A
C545   C547    1.419   .     A
C545   C552    1.408   .     A
C546   C548    1.410   .     A
C546   C1339   1.408   .     S
C547   C549    1.411   .     A
C547   C1338   1.408   1_554 S
C548   C559    1.398   .     A
C549   C551    1.398   .     A
C550   H589    1.081   .     S
C550   C1343   1.391   .     S
C551   H596    1.084   .     S
C551   C1342   1.391   1_554 S
C552   H595    1.081   .     S
C552   C1351   1.390   1_554 S
C553   H571    1.110   .     S
C553   H572    1.111   .     S
C553   N603    1.446   .     S
C553   H570    1.111   .     S
C554   N604    1.446   .     S
C554   H576    1.110   .     S
C554   H574    1.111   .     S
C554   H575    1.111   .     S
C555   H579    1.109   .     S
C555   H580    1.109   .     S
C555   N605    1.447   .     S
C555   H581    1.111   .     S
C556   H584    1.104   .     S
C556   H585    1.111   .     S
C556   N606    1.451   .     S
C556   H583    1.102   .     S
C557   H587    1.109   .     S
C557   N607    1.447   .     S
C557   H588    1.108   .     S
C557   H590    1.112   .     S
C558   H592    1.106   .     S
C558   N608    1.451   .     S
C558   H594    1.112   .     S
C558   H593    1.109   .     S
C559   H597    1.084   .     S
C559   C1344   1.390   .     S
C560   H598    1.078   .     S
C560   C738    1.380   1_455 S
C561   C564    1.402   .     A
C561   H599    1.083   .     S
C561   C651    1.386   .     S
C562   C564    1.398   .     A
C562   H600    1.080   .     S
C562   C648    1.380   .     S
C563   H568    1.083   .     S
C563   C737    1.386   1_455 S
Cu565  O613    1.956   .     S
Cu565  O609    1.965   .     S
Cu565  Cu566   2.704   .     S
Cu565  N601    2.032   .     S
Cu565  O615    1.958   .     S
Cu565  O611    1.965   .     S
Cu566  O614    1.956   .     S
Cu566  O610    1.965   .     S
Cu566  O616    1.958   .     S
Cu566  N602    2.032   .     S
Cu566  O612    1.965   .     S
H569   N603    1.030   .     S
H573   N604    1.031   .     S
H577   N605    1.030   .     S
H582   N606    1.029   .     S
H586   N607    1.029   .     S
H591   N608    1.030   .     S
C617   O700    1.301   .     A
C617   O697    1.297   .     A
C617   C618    1.452   .     S
C618   C651    1.402   .     A
C618   C648    1.398   .     A
C619   N690    1.373   .     A
C619   N693    1.422   .     S
C620   N694    1.421   .     S
C620   N689    1.376   .     A
C620   C93     1.440   1_565 S
C621   N690    1.372   .     A
C621   N695    1.424   .     S
C622   N696    1.422   .     S
C622   N689    1.375   .     A
C622   C91     1.438   1_565 S
C623   O704    1.296   .     A
C623   C629    1.446   .     S
C623   O701    1.298   .     A
C624   O703    1.301   .     A
C624   C627    1.446   .     S
C624   O702    1.293   .     A
C625   H655    1.085   .     S
C625   C636    1.389   .     A
C625   C627    1.391   .     A
C626   C637    1.390   .     A
C626   C629    1.393   .     A
C626   H666    1.086   .     S
C627   C630    1.406   .     A
C628   C652    1.451   .     S
C628   O699    1.297   .     A
C628   O698    1.301   .     A
C629   C631    1.406   .     A
C630   C632    1.413   .     A
C630   N691    1.426   .     S
C631   N692    1.426   .     S
C631   C633    1.412   .     A
C632   C638    1.408   .     A
C632   C634    1.419   .     A
C633   C635    1.419   .     A
C633   C640    1.408   .     A
C634   C636    1.410   .     A
C634   C1427   1.408   .     S
C635   C637    1.411   .     A
C635   C1426   1.408   1_554 S
C636   C647    1.398   .     A
C637   C639    1.398   .     A
C638   H677    1.081   .     S
C638   C1431   1.391   .     S
C639   H684    1.084   .     S
C639   C1430   1.391   1_554 S
C640   H683    1.081   .     S
C640   C1439   1.390   1_554 S
C641   H659    1.110   .     S
C641   H660    1.111   .     S
C641   N691    1.446   .     S
C641   H658    1.111   .     S
C642   N692    1.446   .     S
C642   H664    1.110   .     S
C642   H662    1.111   .     S
C642   H663    1.111   .     S
C643   H667    1.109   .     S
C643   H668    1.109   .     S
C643   N693    1.447   .     S
C643   H669    1.111   .     S
C644   H672    1.104   .     S
C644   H673    1.111   .     S
C644   N694    1.451   .     S
C644   H671    1.102   .     S
C645   H675    1.109   .     S
C645   N695    1.447   .     S
C645   H676    1.108   .     S
C645   H678    1.112   .     S
C646   H680    1.106   .     S
C646   N696    1.451   .     S
C646   H682    1.112   .     S
C646   H681    1.109   .     S
C647   H685    1.084   .     S
C647   C1432   1.390   .     S
C648   H686    1.078   .     S
C649   C652    1.402   .     A
C649   H687    1.083   .     S
C649   C739    1.386   .     S
C650   C652    1.398   .     A
C650   H688    1.080   .     S
C650   C736    1.380   .     S
C651   H656    1.083   .     S
Cu653  O701    1.956   .     S
Cu653  O697    1.965   .     S
Cu653  Cu654   2.704   .     S
Cu653  N689    2.032   .     S
Cu653  O703    1.958   .     S
Cu653  O699    1.965   .     S
Cu654  O702    1.956   .     S
Cu654  O698    1.965   .     S
Cu654  O704    1.958   .     S
Cu654  N690    2.032   .     S
Cu654  O700    1.965   .     S
H657   N691    1.030   .     S
H661   N692    1.031   .     S
H665   N693    1.030   .     S
H670   N694    1.029   .     S
H674   N695    1.029   .     S
H679   N696    1.030   .     S
C705   O788    1.301   .     A
C705   O785    1.297   .     A
C705   C706    1.452   .     S
C706   C739    1.402   .     A
C706   C736    1.398   .     A
C707   N778    1.373   .     A
C707   N781    1.422   .     S
C708   N782    1.421   .     S
C708   N777    1.376   .     A
C708   C181    1.440   1_565 S
C709   N778    1.372   .     A
C709   N783    1.424   .     S
C710   N784    1.422   .     S
C710   N777    1.375   .     A
C710   C179    1.438   1_565 S
C711   O792    1.296   .     A
C711   C717    1.446   .     S
C711   O789    1.298   .     A
C712   O791    1.301   .     A
C712   C715    1.446   .     S
C712   O790    1.293   .     A
C713   H743    1.085   .     S
C713   C724    1.389   .     A
C713   C715    1.391   .     A
C714   C725    1.390   .     A
C714   C717    1.393   .     A
C714   H754    1.086   .     S
C715   C718    1.406   .     A
C716   C740    1.451   .     S
C716   O787    1.297   .     A
C716   O786    1.301   .     A
C717   C719    1.406   .     A
C718   C720    1.413   .     A
C718   N779    1.426   .     S
C719   N780    1.426   .     S
C719   C721    1.412   .     A
C720   C726    1.408   .     A
C720   C722    1.419   .     A
C721   C723    1.419   .     A
C721   C728    1.408   .     A
C722   C724    1.410   .     A
C722   C1515   1.408   .     S
C723   C725    1.411   .     A
C723   C1514   1.408   1_554 S
C724   C735    1.398   .     A
C725   C727    1.398   .     A
C726   H765    1.081   .     S
C726   C1519   1.391   .     S
C727   H772    1.084   .     S
C727   C1518   1.391   1_554 S
C728   H771    1.081   .     S
C728   C1527   1.390   1_554 S
C729   H747    1.110   .     S
C729   H748    1.111   .     S
C729   N779    1.446   .     S
C729   H746    1.111   .     S
C730   N780    1.446   .     S
C730   H752    1.110   .     S
C730   H750    1.111   .     S
C730   H751    1.111   .     S
C731   H755    1.109   .     S
C731   H756    1.109   .     S
C731   N781    1.447   .     S
C731   H757    1.111   .     S
C732   H760    1.104   .     S
C732   H761    1.111   .     S
C732   N782    1.451   .     S
C732   H759    1.102   .     S
C733   H763    1.109   .     S
C733   N783    1.447   .     S
C733   H764    1.108   .     S
C733   H766    1.112   .     S
C734   H768    1.106   .     S
C734   N784    1.451   .     S
C734   H770    1.112   .     S
C734   H769    1.109   .     S
C735   H773    1.084   .     S
C735   C1520   1.390   .     S
C736   H774    1.078   .     S
C737   C740    1.402   .     A
C737   H775    1.083   .     S
C737   C563    1.386   1_655 S
C738   C740    1.398   .     A
C738   H776    1.080   .     S
C738   C560    1.380   1_655 S
C739   H744    1.083   .     S
Cu741  O789    1.956   .     S
Cu741  O785    1.965   .     S
Cu741  Cu742   2.704   .     S
Cu741  N777    2.032   .     S
Cu741  O791    1.958   .     S
Cu741  O787    1.965   .     S
Cu742  O790    1.956   .     S
Cu742  O786    1.965   .     S
Cu742  O792    1.958   .     S
Cu742  N778    2.032   .     S
Cu742  O788    1.965   .     S
H745   N779    1.030   .     S
H749   N780    1.031   .     S
H753   N781    1.030   .     S
H758   N782    1.029   .     S
H762   N783    1.029   .     S
H767   N784    1.030   .     S
C793   O876    1.301   .     A
C793   O873    1.297   .     A
C793   C794    1.452   .     S
C794   C827    1.402   .     A
C794   C824    1.398   .     A
C795   N866    1.373   .     A
C795   N869    1.422   .     S
C795   C1326   1.438   1_545 S
C796   N870    1.421   .     S
C796   N865    1.376   .     A
C796   C1061   1.440   .     S
C797   N866    1.372   .     A
C797   N871    1.424   .     S
C797   C1324   1.440   1_545 S
C798   N872    1.422   .     S
C798   N865    1.375   .     A
C798   C1059   1.438   .     S
C799   O880    1.296   .     A
C799   C805    1.446   .     S
C799   O877    1.298   .     A
C800   O879    1.301   .     A
C800   C803    1.446   .     S
C800   O878    1.293   .     A
C801   H831    1.085   .     S
C801   C812    1.389   .     A
C801   C803    1.391   .     A
C802   C813    1.390   .     A
C802   C805    1.393   .     A
C802   H842    1.086   .     S
C803   C806    1.406   .     A
C804   C828    1.451   .     S
C804   O875    1.297   .     A
C804   O874    1.301   .     A
C805   C807    1.406   .     A
C806   C808    1.413   .     A
C806   N867    1.426   .     S
C807   N868    1.426   .     S
C807   C809    1.412   .     A
C808   C814    1.408   .     A
C808   C810    1.419   .     A
C809   C811    1.419   .     A
C809   C816    1.408   .     A
C810   C812    1.410   .     A
C810   C19     1.408   1_556 S
C811   C813    1.411   .     A
C812   C823    1.398   .     A
C813   C815    1.398   .     A
C814   H853    1.081   .     S
C814   C23     1.391   1_556 S
C815   H860    1.084   .     S
C816   H859    1.081   .     S
C817   H835    1.110   .     S
C817   H836    1.111   .     S
C817   N867    1.446   .     S
C817   H834    1.111   .     S
C818   N868    1.446   .     S
C818   H840    1.110   .     S
C818   H838    1.111   .     S
C818   H839    1.111   .     S
C819   H843    1.109   .     S
C819   H844    1.109   .     S
C819   N869    1.447   .     S
C819   H845    1.111   .     S
C820   H848    1.104   .     S
C820   H849    1.111   .     S
C820   N870    1.451   .     S
C820   H847    1.102   .     S
C821   H851    1.109   .     S
C821   N871    1.447   .     S
C821   H852    1.108   .     S
C821   H854    1.112   .     S
C822   H856    1.106   .     S
C822   N872    1.451   .     S
C822   H858    1.112   .     S
C822   H857    1.109   .     S
C823   H861    1.084   .     S
C823   C24     1.390   1_556 S
C824   H862    1.078   .     S
C824   C1002   1.380   1_455 S
C825   C828    1.402   .     A
C825   H863    1.083   .     S
C825   C915    1.386   .     S
C826   C828    1.398   .     A
C826   H864    1.080   .     S
C826   C912    1.380   .     S
C827   H832    1.083   .     S
C827   C1001   1.386   1_455 S
Cu829  O877    1.956   .     S
Cu829  O873    1.965   .     S
Cu829  Cu830   2.704   .     S
Cu829  N865    2.032   .     S
Cu829  O879    1.958   .     S
Cu829  O875    1.965   .     S
Cu830  O878    1.956   .     S
Cu830  O874    1.965   .     S
Cu830  O880    1.958   .     S
Cu830  N866    2.032   .     S
Cu830  O876    1.965   .     S
H833   N867    1.030   .     S
H837   N868    1.031   .     S
H841   N869    1.030   .     S
H846   N870    1.029   .     S
H850   N871    1.029   .     S
H855   N872    1.030   .     S
C881   O964    1.301   .     A
C881   O961    1.297   .     A
C881   C882    1.452   .     S
C882   C915    1.402   .     A
C882   C912    1.398   .     A
C883   N954    1.373   .     A
C883   N957    1.422   .     S
C883   C1414   1.438   1_545 S
C884   N958    1.421   .     S
C884   N953    1.376   .     A
C884   C1149   1.440   .     S
C885   N954    1.372   .     A
C885   N959    1.424   .     S
C885   C1412   1.440   1_545 S
C886   N960    1.422   .     S
C886   N953    1.375   .     A
C886   C1147   1.438   .     S
C887   O968    1.296   .     A
C887   C893    1.446   .     S
C887   O965    1.298   .     A
C888   O967    1.301   .     A
C888   C891    1.446   .     S
C888   O966    1.293   .     A
C889   H919    1.085   .     S
C889   C900    1.389   .     A
C889   C891    1.391   .     A
C890   C901    1.390   .     A
C890   C893    1.393   .     A
C890   H930    1.086   .     S
C891   C894    1.406   .     A
C892   C916    1.451   .     S
C892   O963    1.297   .     A
C892   O962    1.301   .     A
C893   C895    1.406   .     A
C894   C896    1.413   .     A
C894   N955    1.426   .     S
C895   N956    1.426   .     S
C895   C897    1.412   .     A
C896   C902    1.408   .     A
C896   C898    1.419   .     A
C897   C899    1.419   .     A
C897   C904    1.408   .     A
C898   C900    1.410   .     A
C898   C107    1.408   1_556 S
C899   C901    1.411   .     A
C900   C911    1.398   .     A
C901   C903    1.398   .     A
C902   H941    1.081   .     S
C902   C111    1.391   1_556 S
C903   H948    1.084   .     S
C904   H947    1.081   .     S
C905   H923    1.110   .     S
C905   H924    1.111   .     S
C905   N955    1.446   .     S
C905   H922    1.111   .     S
C906   N956    1.446   .     S
C906   H928    1.110   .     S
C906   H926    1.111   .     S
C906   H927    1.111   .     S
C907   H931    1.109   .     S
C907   H932    1.109   .     S
C907   N957    1.447   .     S
C907   H933    1.111   .     S
C908   H936    1.104   .     S
C908   H937    1.111   .     S
C908   N958    1.451   .     S
C908   H935    1.102   .     S
C909   H939    1.109   .     S
C909   N959    1.447   .     S
C909   H940    1.108   .     S
C909   H942    1.112   .     S
C910   H944    1.106   .     S
C910   N960    1.451   .     S
C910   H946    1.112   .     S
C910   H945    1.109   .     S
C911   H949    1.084   .     S
C911   C112    1.390   1_556 S
C912   H950    1.078   .     S
C913   C916    1.402   .     A
C913   H951    1.083   .     S
C913   C1003   1.386   .     S
C914   C916    1.398   .     A
C914   H952    1.080   .     S
C914   C1000   1.380   .     S
C915   H920    1.083   .     S
Cu917  O965    1.956   .     S
Cu917  O961    1.965   .     S
Cu917  Cu918   2.704   .     S
Cu917  N953    2.032   .     S
Cu917  O967    1.958   .     S
Cu917  O963    1.965   .     S
Cu918  O966    1.956   .     S
Cu918  O962    1.965   .     S
Cu918  O968    1.958   .     S
Cu918  N954    2.032   .     S
Cu918  O964    1.965   .     S
H921   N955    1.030   .     S
H925   N956    1.031   .     S
H929   N957    1.030   .     S
H934   N958    1.029   .     S
H938   N959    1.029   .     S
H943   N960    1.030   .     S
C969   O1052   1.301   .     A
C969   O1049   1.297   .     A
C969   C970    1.452   .     S
C970   C1003   1.402   .     A
C970   C1000   1.398   .     A
C971   N1042   1.373   .     A
C971   N1045   1.422   .     S
C971   C1502   1.438   1_545 S
C972   N1046   1.421   .     S
C972   N1041   1.376   .     A
C972   C1237   1.440   .     S
C973   N1042   1.372   .     A
C973   N1047   1.424   .     S
C973   C1500   1.440   1_545 S
C974   N1048   1.422   .     S
C974   N1041   1.375   .     A
C974   C1235   1.438   .     S
C975   O1056   1.296   .     A
C975   C981    1.446   .     S
C975   O1053   1.298   .     A
C976   O1055   1.301   .     A
C976   C979    1.446   .     S
C976   O1054   1.293   .     A
C977   H1007   1.085   .     S
C977   C988    1.389   .     A
C977   C979    1.391   .     A
C978   C989    1.390   .     A
C978   C981    1.393   .     A
C978   H1018   1.086   .     S
C979   C982    1.406   .     A
C980   C1004   1.451   .     S
C980   O1051   1.297   .     A
C980   O1050   1.301   .     A
C981   C983    1.406   .     A
C982   C984    1.413   .     A
C982   N1043   1.426   .     S
C983   N1044   1.426   .     S
C983   C985    1.412   .     A
C984   C990    1.408   .     A
C984   C986    1.419   .     A
C985   C987    1.419   .     A
C985   C992    1.408   .     A
C986   C988    1.410   .     A
C986   C195    1.408   1_556 S
C987   C989    1.411   .     A
C988   C999    1.398   .     A
C989   C991    1.398   .     A
C990   H1029   1.081   .     S
C990   C199    1.391   1_556 S
C991   H1036   1.084   .     S
C992   H1035   1.081   .     S
C993   H1011   1.110   .     S
C993   H1012   1.111   .     S
C993   N1043   1.446   .     S
C993   H1010   1.111   .     S
C994   N1044   1.446   .     S
C994   H1016   1.110   .     S
C994   H1014   1.111   .     S
C994   H1015   1.111   .     S
C995   H1019   1.109   .     S
C995   H1020   1.109   .     S
C995   N1045   1.447   .     S
C995   H1021   1.111   .     S
C996   H1024   1.104   .     S
C996   H1025   1.111   .     S
C996   N1046   1.451   .     S
C996   H1023   1.102   .     S
C997   H1027   1.109   .     S
C997   N1047   1.447   .     S
C997   H1028   1.108   .     S
C997   H1030   1.112   .     S
C998   H1032   1.106   .     S
C998   N1048   1.451   .     S
C998   H1034   1.112   .     S
C998   H1033   1.109   .     S
C999   H1037   1.084   .     S
C999   C200    1.390   1_556 S
C1000  H1038   1.078   .     S
C1001  C1004   1.402   .     A
C1001  H1039   1.083   .     S
C1001  C827    1.386   1_655 S
C1002  C1004   1.398   .     A
C1002  H1040   1.080   .     S
C1002  C824    1.380   1_655 S
C1003  H1008   1.083   .     S
Cu1005 O1053   1.956   .     S
Cu1005 O1049   1.965   .     S
Cu1005 Cu1006  2.704   .     S
Cu1005 N1041   2.032   .     S
Cu1005 O1055   1.958   .     S
Cu1005 O1051   1.965   .     S
Cu1006 O1054   1.956   .     S
Cu1006 O1050   1.965   .     S
Cu1006 O1056   1.958   .     S
Cu1006 N1042   2.032   .     S
Cu1006 O1052   1.965   .     S
H1009  N1043   1.030   .     S
H1013  N1044   1.031   .     S
H1017  N1045   1.030   .     S
H1022  N1046   1.029   .     S
H1026  N1047   1.029   .     S
H1031  N1048   1.030   .     S
C1057  O1140   1.301   .     A
C1057  O1137   1.297   .     A
C1057  C1058   1.452   .     S
C1058  C1091   1.402   .     A
C1058  C1088   1.398   .     A
C1059  N1130   1.373   .     A
C1059  N1133   1.422   .     S
C1060  N1134   1.421   .     S
C1060  N1129   1.376   .     A
C1060  C1325   1.440   .     S
C1061  N1130   1.372   .     A
C1061  N1135   1.424   .     S
C1062  N1136   1.422   .     S
C1062  N1129   1.375   .     A
C1062  C1323   1.438   .     S
C1063  O1144   1.296   .     A
C1063  C1069   1.446   .     S
C1063  O1141   1.298   .     A
C1064  O1143   1.301   .     A
C1064  C1067   1.446   .     S
C1064  O1142   1.293   .     A
C1065  H1095   1.085   .     S
C1065  C1076   1.389   .     A
C1065  C1067   1.391   .     A
C1066  C1077   1.390   .     A
C1066  C1069   1.393   .     A
C1066  H1106   1.086   .     S
C1067  C1070   1.406   .     A
C1068  C1092   1.451   .     S
C1068  O1139   1.297   .     A
C1068  O1138   1.301   .     A
C1069  C1071   1.406   .     A
C1070  C1072   1.413   .     A
C1070  N1131   1.426   .     S
C1071  N1132   1.426   .     S
C1071  C1073   1.412   .     A
C1072  C1078   1.408   .     A
C1072  C1074   1.419   .     A
C1073  C1075   1.419   .     A
C1073  C1080   1.408   .     A
C1074  C1076   1.410   .     A
C1074  C283    1.408   1_556 S
C1075  C1077   1.411   .     A
C1076  C1087   1.398   .     A
C1077  C1079   1.398   .     A
C1078  H1117   1.081   .     S
C1078  C287    1.391   1_556 S
C1079  H1124   1.084   .     S
C1080  H1123   1.081   .     S
C1081  H1099   1.110   .     S
C1081  H1100   1.111   .     S
C1081  N1131   1.446   .     S
C1081  H1098   1.111   .     S
C1082  N1132   1.446   .     S
C1082  H1104   1.110   .     S
C1082  H1102   1.111   .     S
C1082  H1103   1.111   .     S
C1083  H1107   1.109   .     S
C1083  H1108   1.109   .     S
C1083  N1133   1.447   .     S
C1083  H1109   1.111   .     S
C1084  H1112   1.104   .     S
C1084  H1113   1.111   .     S
C1084  N1134   1.451   .     S
C1084  H1111   1.102   .     S
C1085  H1115   1.109   .     S
C1085  N1135   1.447   .     S
C1085  H1116   1.108   .     S
C1085  H1118   1.112   .     S
C1086  H1120   1.106   .     S
C1086  N1136   1.451   .     S
C1086  H1122   1.112   .     S
C1086  H1121   1.109   .     S
C1087  H1125   1.084   .     S
C1087  C288    1.390   1_556 S
C1088  H1126   1.078   .     S
C1088  C1266   1.380   1_455 S
C1089  C1092   1.402   .     A
C1089  H1127   1.083   .     S
C1089  C1179   1.386   .     S
C1090  C1092   1.398   .     A
C1090  H1128   1.080   .     S
C1090  C1176   1.380   .     S
C1091  H1096   1.083   .     S
C1091  C1265   1.386   1_455 S
Cu1093 O1141   1.956   .     S
Cu1093 O1137   1.965   .     S
Cu1093 Cu1094  2.704   .     S
Cu1093 N1129   2.032   .     S
Cu1093 O1143   1.958   .     S
Cu1093 O1139   1.965   .     S
Cu1094 O1142   1.956   .     S
Cu1094 O1138   1.965   .     S
Cu1094 O1144   1.958   .     S
Cu1094 N1130   2.032   .     S
Cu1094 O1140   1.965   .     S
H1097  N1131   1.030   .     S
H1101  N1132   1.031   .     S
H1105  N1133   1.030   .     S
H1110  N1134   1.029   .     S
H1114  N1135   1.029   .     S
H1119  N1136   1.030   .     S
C1145  O1228   1.301   .     A
C1145  O1225   1.297   .     A
C1145  C1146   1.452   .     S
C1146  C1179   1.402   .     A
C1146  C1176   1.398   .     A
C1147  N1218   1.373   .     A
C1147  N1221   1.422   .     S
C1148  N1222   1.421   .     S
C1148  N1217   1.376   .     A
C1148  C1413   1.440   .     S
C1149  N1218   1.372   .     A
C1149  N1223   1.424   .     S
C1150  N1224   1.422   .     S
C1150  N1217   1.375   .     A
C1150  C1411   1.438   .     S
C1151  O1232   1.296   .     A
C1151  C1157   1.446   .     S
C1151  O1229   1.298   .     A
C1152  O1231   1.301   .     A
C1152  C1155   1.446   .     S
C1152  O1230   1.293   .     A
C1153  H1183   1.085   .     S
C1153  C1164   1.389   .     A
C1153  C1155   1.391   .     A
C1154  C1165   1.390   .     A
C1154  C1157   1.393   .     A
C1154  H1194   1.086   .     S
C1155  C1158   1.406   .     A
C1156  C1180   1.451   .     S
C1156  O1227   1.297   .     A
C1156  O1226   1.301   .     A
C1157  C1159   1.406   .     A
C1158  C1160   1.413   .     A
C1158  N1219   1.426   .     S
C1159  N1220   1.426   .     S
C1159  C1161   1.412   .     A
C1160  C1166   1.408   .     A
C1160  C1162   1.419   .     A
C1161  C1163   1.419   .     A
C1161  C1168   1.408   .     A
C1162  C1164   1.410   .     A
C1162  C371    1.408   1_556 S
C1163  C1165   1.411   .     A
C1164  C1175   1.398   .     A
C1165  C1167   1.398   .     A
C1166  H1205   1.081   .     S
C1166  C375    1.391   1_556 S
C1167  H1212   1.084   .     S
C1168  H1211   1.081   .     S
C1169  H1187   1.110   .     S
C1169  H1188   1.111   .     S
C1169  N1219   1.446   .     S
C1169  H1186   1.111   .     S
C1170  N1220   1.446   .     S
C1170  H1192   1.110   .     S
C1170  H1190   1.111   .     S
C1170  H1191   1.111   .     S
C1171  H1195   1.109   .     S
C1171  H1196   1.109   .     S
C1171  N1221   1.447   .     S
C1171  H1197   1.111   .     S
C1172  H1200   1.104   .     S
C1172  H1201   1.111   .     S
C1172  N1222   1.451   .     S
C1172  H1199   1.102   .     S
C1173  H1203   1.109   .     S
C1173  N1223   1.447   .     S
C1173  H1204   1.108   .     S
C1173  H1206   1.112   .     S
C1174  H1208   1.106   .     S
C1174  N1224   1.451   .     S
C1174  H1210   1.112   .     S
C1174  H1209   1.109   .     S
C1175  H1213   1.084   .     S
C1175  C376    1.390   1_556 S
C1176  H1214   1.078   .     S
C1177  C1180   1.402   .     A
C1177  H1215   1.083   .     S
C1177  C1267   1.386   .     S
C1178  C1180   1.398   .     A
C1178  H1216   1.080   .     S
C1178  C1264   1.380   .     S
C1179  H1184   1.083   .     S
Cu1181 O1229   1.956   .     S
Cu1181 O1225   1.965   .     S
Cu1181 Cu1182  2.704   .     S
Cu1181 N1217   2.032   .     S
Cu1181 O1231   1.958   .     S
Cu1181 O1227   1.965   .     S
Cu1182 O1230   1.956   .     S
Cu1182 O1226   1.965   .     S
Cu1182 O1232   1.958   .     S
Cu1182 N1218   2.032   .     S
Cu1182 O1228   1.965   .     S
H1185  N1219   1.030   .     S
H1189  N1220   1.031   .     S
H1193  N1221   1.030   .     S
H1198  N1222   1.029   .     S
H1202  N1223   1.029   .     S
H1207  N1224   1.030   .     S
C1233  O1316   1.301   .     A
C1233  O1313   1.297   .     A
C1233  C1234   1.452   .     S
C1234  C1267   1.402   .     A
C1234  C1264   1.398   .     A
C1235  N1306   1.373   .     A
C1235  N1309   1.422   .     S
C1236  N1310   1.421   .     S
C1236  N1305   1.376   .     A
C1236  C1501   1.440   .     S
C1237  N1306   1.372   .     A
C1237  N1311   1.424   .     S
C1238  N1312   1.422   .     S
C1238  N1305   1.375   .     A
C1238  C1499   1.438   .     S
C1239  O1320   1.296   .     A
C1239  C1245   1.446   .     S
C1239  O1317   1.298   .     A
C1240  O1319   1.301   .     A
C1240  C1243   1.446   .     S
C1240  O1318   1.293   .     A
C1241  H1271   1.085   .     S
C1241  C1252   1.389   .     A
C1241  C1243   1.391   .     A
C1242  C1253   1.390   .     A
C1242  C1245   1.393   .     A
C1242  H1282   1.086   .     S
C1243  C1246   1.406   .     A
C1244  C1268   1.451   .     S
C1244  O1315   1.297   .     A
C1244  O1314   1.301   .     A
C1245  C1247   1.406   .     A
C1246  C1248   1.413   .     A
C1246  N1307   1.426   .     S
C1247  N1308   1.426   .     S
C1247  C1249   1.412   .     A
C1248  C1254   1.408   .     A
C1248  C1250   1.419   .     A
C1249  C1251   1.419   .     A
C1249  C1256   1.408   .     A
C1250  C1252   1.410   .     A
C1250  C459    1.408   1_556 S
C1251  C1253   1.411   .     A
C1252  C1263   1.398   .     A
C1253  C1255   1.398   .     A
C1254  H1293   1.081   .     S
C1254  C463    1.391   1_556 S
C1255  H1300   1.084   .     S
C1256  H1299   1.081   .     S
C1257  H1275   1.110   .     S
C1257  H1276   1.111   .     S
C1257  N1307   1.446   .     S
C1257  H1274   1.111   .     S
C1258  N1308   1.446   .     S
C1258  H1280   1.110   .     S
C1258  H1278   1.111   .     S
C1258  H1279   1.111   .     S
C1259  H1283   1.109   .     S
C1259  H1284   1.109   .     S
C1259  N1309   1.447   .     S
C1259  H1285   1.111   .     S
C1260  H1288   1.104   .     S
C1260  H1289   1.111   .     S
C1260  N1310   1.451   .     S
C1260  H1287   1.102   .     S
C1261  H1291   1.109   .     S
C1261  N1311   1.447   .     S
C1261  H1292   1.108   .     S
C1261  H1294   1.112   .     S
C1262  H1296   1.106   .     S
C1262  N1312   1.451   .     S
C1262  H1298   1.112   .     S
C1262  H1297   1.109   .     S
C1263  H1301   1.084   .     S
C1263  C464    1.390   1_556 S
C1264  H1302   1.078   .     S
C1265  C1268   1.402   .     A
C1265  H1303   1.083   .     S
C1265  C1091   1.386   1_655 S
C1266  C1268   1.398   .     A
C1266  H1304   1.080   .     S
C1266  C1088   1.380   1_655 S
C1267  H1272   1.083   .     S
Cu1269 O1317   1.956   .     S
Cu1269 O1313   1.965   .     S
Cu1269 Cu1270  2.704   .     S
Cu1269 N1305   2.032   .     S
Cu1269 O1319   1.958   .     S
Cu1269 O1315   1.965   .     S
Cu1270 O1318   1.956   .     S
Cu1270 O1314   1.965   .     S
Cu1270 O1320   1.958   .     S
Cu1270 N1306   2.032   .     S
Cu1270 O1316   1.965   .     S
H1273  N1307   1.030   .     S
H1277  N1308   1.031   .     S
H1281  N1309   1.030   .     S
H1286  N1310   1.029   .     S
H1290  N1311   1.029   .     S
H1295  N1312   1.030   .     S
C1321  O1404   1.301   .     A
C1321  O1401   1.297   .     A
C1321  C1322   1.452   .     S
C1322  C1355   1.402   .     A
C1322  C1352   1.398   .     A
C1323  N1394   1.373   .     A
C1323  N1397   1.422   .     S
C1324  N1398   1.421   .     S
C1324  N1393   1.376   .     A
C1324  C797    1.440   1_565 S
C1325  N1394   1.372   .     A
C1325  N1399   1.424   .     S
C1326  N1400   1.422   .     S
C1326  N1393   1.375   .     A
C1326  C795    1.438   1_565 S
C1327  O1408   1.296   .     A
C1327  C1333   1.446   .     S
C1327  O1405   1.298   .     A
C1328  O1407   1.301   .     A
C1328  C1331   1.446   .     S
C1328  O1406   1.293   .     A
C1329  H1359   1.085   .     S
C1329  C1340   1.389   .     A
C1329  C1331   1.391   .     A
C1330  C1341   1.390   .     A
C1330  C1333   1.393   .     A
C1330  H1370   1.086   .     S
C1331  C1334   1.406   .     A
C1332  C1356   1.451   .     S
C1332  O1403   1.297   .     A
C1332  O1402   1.301   .     A
C1333  C1335   1.406   .     A
C1334  C1336   1.413   .     A
C1334  N1395   1.426   .     S
C1335  N1396   1.426   .     S
C1335  C1337   1.412   .     A
C1336  C1342   1.408   .     A
C1336  C1338   1.419   .     A
C1337  C1339   1.419   .     A
C1337  C1344   1.408   .     A
C1338  C1340   1.410   .     A
C1338  C547    1.408   1_556 S
C1339  C1341   1.411   .     A
C1340  C1351   1.398   .     A
C1341  C1343   1.398   .     A
C1342  H1381   1.081   .     S
C1342  C551    1.391   1_556 S
C1343  H1388   1.084   .     S
C1344  H1387   1.081   .     S
C1345  H1363   1.110   .     S
C1345  H1364   1.111   .     S
C1345  N1395   1.446   .     S
C1345  H1362   1.111   .     S
C1346  N1396   1.446   .     S
C1346  H1368   1.110   .     S
C1346  H1366   1.111   .     S
C1346  H1367   1.111   .     S
C1347  H1371   1.109   .     S
C1347  H1372   1.109   .     S
C1347  N1397   1.447   .     S
C1347  H1373   1.111   .     S
C1348  H1376   1.104   .     S
C1348  H1377   1.111   .     S
C1348  N1398   1.451   .     S
C1348  H1375   1.102   .     S
C1349  H1379   1.109   .     S
C1349  N1399   1.447   .     S
C1349  H1380   1.108   .     S
C1349  H1382   1.112   .     S
C1350  H1384   1.106   .     S
C1350  N1400   1.451   .     S
C1350  H1386   1.112   .     S
C1350  H1385   1.109   .     S
C1351  H1389   1.084   .     S
C1351  C552    1.390   1_556 S
C1352  H1390   1.078   .     S
C1352  C1530   1.380   1_455 S
C1353  C1356   1.402   .     A
C1353  H1391   1.083   .     S
C1353  C1443   1.386   .     S
C1354  C1356   1.398   .     A
C1354  H1392   1.080   .     S
C1354  C1440   1.380   .     S
C1355  H1360   1.083   .     S
C1355  C1529   1.386   1_455 S
Cu1357 O1405   1.956   .     S
Cu1357 O1401   1.965   .     S
Cu1357 Cu1358  2.704   .     S
Cu1357 N1393   2.032   .     S
Cu1357 O1407   1.958   .     S
Cu1357 O1403   1.965   .     S
Cu1358 O1406   1.956   .     S
Cu1358 O1402   1.965   .     S
Cu1358 O1408   1.958   .     S
Cu1358 N1394   2.032   .     S
Cu1358 O1404   1.965   .     S
H1361  N1395   1.030   .     S
H1365  N1396   1.031   .     S
H1369  N1397   1.030   .     S
H1374  N1398   1.029   .     S
H1378  N1399   1.029   .     S
H1383  N1400   1.030   .     S
C1409  O1492   1.301   .     A
C1409  O1489   1.297   .     A
C1409  C1410   1.452   .     S
C1410  C1443   1.402   .     A
C1410  C1440   1.398   .     A
C1411  N1482   1.373   .     A
C1411  N1485   1.422   .     S
C1412  N1486   1.421   .     S
C1412  N1481   1.376   .     A
C1412  C885    1.440   1_565 S
C1413  N1482   1.372   .     A
C1413  N1487   1.424   .     S
C1414  N1488   1.422   .     S
C1414  N1481   1.375   .     A
C1414  C883    1.438   1_565 S
C1415  O1496   1.296   .     A
C1415  C1421   1.446   .     S
C1415  O1493   1.298   .     A
C1416  O1495   1.301   .     A
C1416  C1419   1.446   .     S
C1416  O1494   1.293   .     A
C1417  H1447   1.085   .     S
C1417  C1428   1.389   .     A
C1417  C1419   1.391   .     A
C1418  C1429   1.390   .     A
C1418  C1421   1.393   .     A
C1418  H1458   1.086   .     S
C1419  C1422   1.406   .     A
C1420  C1444   1.451   .     S
C1420  O1491   1.297   .     A
C1420  O1490   1.301   .     A
C1421  C1423   1.406   .     A
C1422  C1424   1.413   .     A
C1422  N1483   1.426   .     S
C1423  N1484   1.426   .     S
C1423  C1425   1.412   .     A
C1424  C1430   1.408   .     A
C1424  C1426   1.419   .     A
C1425  C1427   1.419   .     A
C1425  C1432   1.408   .     A
C1426  C1428   1.410   .     A
C1426  C635    1.408   1_556 S
C1427  C1429   1.411   .     A
C1428  C1439   1.398   .     A
C1429  C1431   1.398   .     A
C1430  H1469   1.081   .     S
C1430  C639    1.391   1_556 S
C1431  H1476   1.084   .     S
C1432  H1475   1.081   .     S
C1433  H1451   1.110   .     S
C1433  H1452   1.111   .     S
C1433  N1483   1.446   .     S
C1433  H1450   1.111   .     S
C1434  N1484   1.446   .     S
C1434  H1456   1.110   .     S
C1434  H1454   1.111   .     S
C1434  H1455   1.111   .     S
C1435  H1459   1.109   .     S
C1435  H1460   1.109   .     S
C1435  N1485   1.447   .     S
C1435  H1461   1.111   .     S
C1436  H1464   1.104   .     S
C1436  H1465   1.111   .     S
C1436  N1486   1.451   .     S
C1436  H1463   1.102   .     S
C1437  H1467   1.109   .     S
C1437  N1487   1.447   .     S
C1437  H1468   1.108   .     S
C1437  H1470   1.112   .     S
C1438  H1472   1.106   .     S
C1438  N1488   1.451   .     S
C1438  H1474   1.112   .     S
C1438  H1473   1.109   .     S
C1439  H1477   1.084   .     S
C1439  C640    1.390   1_556 S
C1440  H1478   1.078   .     S
C1441  C1444   1.402   .     A
C1441  H1479   1.083   .     S
C1441  C1531   1.386   .     S
C1442  C1444   1.398   .     A
C1442  H1480   1.080   .     S
C1442  C1528   1.380   .     S
C1443  H1448   1.083   .     S
Cu1445 O1493   1.956   .     S
Cu1445 O1489   1.965   .     S
Cu1445 Cu1446  2.704   .     S
Cu1445 N1481   2.032   .     S
Cu1445 O1495   1.958   .     S
Cu1445 O1491   1.965   .     S
Cu1446 O1494   1.956   .     S
Cu1446 O1490   1.965   .     S
Cu1446 O1496   1.958   .     S
Cu1446 N1482   2.032   .     S
Cu1446 O1492   1.965   .     S
H1449  N1483   1.030   .     S
H1453  N1484   1.031   .     S
H1457  N1485   1.030   .     S
H1462  N1486   1.029   .     S
H1466  N1487   1.029   .     S
H1471  N1488   1.030   .     S
C1497  O1580   1.301   .     A
C1497  O1577   1.297   .     A
C1497  C1498   1.452   .     S
C1498  C1531   1.402   .     A
C1498  C1528   1.398   .     A
C1499  N1570   1.373   .     A
C1499  N1573   1.422   .     S
C1500  N1574   1.421   .     S
C1500  N1569   1.376   .     A
C1500  C973    1.440   1_565 S
C1501  N1570   1.372   .     A
C1501  N1575   1.424   .     S
C1502  N1576   1.422   .     S
C1502  N1569   1.375   .     A
C1502  C971    1.438   1_565 S
C1503  O1584   1.296   .     A
C1503  C1509   1.446   .     S
C1503  O1581   1.298   .     A
C1504  O1583   1.301   .     A
C1504  C1507   1.446   .     S
C1504  O1582   1.293   .     A
C1505  H1535   1.085   .     S
C1505  C1516   1.389   .     A
C1505  C1507   1.391   .     A
C1506  C1517   1.390   .     A
C1506  C1509   1.393   .     A
C1506  H1546   1.086   .     S
C1507  C1510   1.406   .     A
C1508  C1532   1.451   .     S
C1508  O1579   1.297   .     A
C1508  O1578   1.301   .     A
C1509  C1511   1.406   .     A
C1510  C1512   1.413   .     A
C1510  N1571   1.426   .     S
C1511  N1572   1.426   .     S
C1511  C1513   1.412   .     A
C1512  C1518   1.408   .     A
C1512  C1514   1.419   .     A
C1513  C1515   1.419   .     A
C1513  C1520   1.408   .     A
C1514  C1516   1.410   .     A
C1514  C723    1.408   1_556 S
C1515  C1517   1.411   .     A
C1516  C1527   1.398   .     A
C1517  C1519   1.398   .     A
C1518  H1557   1.081   .     S
C1518  C727    1.391   1_556 S
C1519  H1564   1.084   .     S
C1520  H1563   1.081   .     S
C1521  H1539   1.110   .     S
C1521  H1540   1.111   .     S
C1521  N1571   1.446   .     S
C1521  H1538   1.111   .     S
C1522  N1572   1.446   .     S
C1522  H1544   1.110   .     S
C1522  H1542   1.111   .     S
C1522  H1543   1.111   .     S
C1523  H1547   1.109   .     S
C1523  H1548   1.109   .     S
C1523  N1573   1.447   .     S
C1523  H1549   1.111   .     S
C1524  H1552   1.104   .     S
C1524  H1553   1.111   .     S
C1524  N1574   1.451   .     S
C1524  H1551   1.102   .     S
C1525  H1555   1.109   .     S
C1525  N1575   1.447   .     S
C1525  H1556   1.108   .     S
C1525  H1558   1.112   .     S
C1526  H1560   1.106   .     S
C1526  N1576   1.451   .     S
C1526  H1562   1.112   .     S
C1526  H1561   1.109   .     S
C1527  H1565   1.084   .     S
C1527  C728    1.390   1_556 S
C1528  H1566   1.078   .     S
C1529  C1532   1.402   .     A
C1529  H1567   1.083   .     S
C1529  C1355   1.386   1_655 S
C1530  C1532   1.398   .     A
C1530  H1568   1.080   .     S
C1530  C1352   1.380   1_655 S
C1531  H1536   1.083   .     S
Cu1533 O1581   1.956   .     S
Cu1533 O1577   1.965   .     S
Cu1533 Cu1534  2.704   .     S
Cu1533 N1569   2.032   .     S
Cu1533 O1583   1.958   .     S
Cu1533 O1579   1.965   .     S
Cu1534 O1582   1.956   .     S
Cu1534 O1578   1.965   .     S
Cu1534 O1584   1.958   .     S
Cu1534 N1570   2.032   .     S
Cu1534 O1580   1.965   .     S
H1537  N1571   1.030   .     S
H1541  N1572   1.031   .     S
H1545  N1573   1.030   .     S
H1550  N1574   1.029   .     S
H1554  N1575   1.029   .     S
H1559  N1576   1.030   .     S
