data_str_m2_o5_o17_pcu_sym.24
_audit_creation_date              2020-01-03
_audit_creation_method            'Materials Studio'
_symmetry_space_group_name_H-M    'P1'
_symmetry_Int_Tables_number       1
_symmetry_cell_setting            triclinic
loop_
_symmetry_equiv_pos_as_xyz
  x,y,z
_cell_length_a                    30.1292
_cell_length_b                    27.7690
_cell_length_c                    23.3389
_cell_angle_alpha                 89.9968
_cell_angle_beta                  90.0017
_cell_angle_gamma                 89.9951
loop_
_atom_site_label
_atom_site_type_symbol
_atom_site_fract_x
_atom_site_fract_y
_atom_site_fract_z
_atom_site_U_iso_or_equiv
_atom_site_adp_type
_atom_site_occupancy
C1     C     0.25000   0.07325   0.16667   0.00000  Uiso   1.00
C2     C     0.11631   0.16667   0.16667   0.00000  Uiso   1.00
C3     C     0.45313   0.12269   0.16273   0.00000  Uiso   1.00
C4     C     0.04687   0.21066   0.16278   0.00000  Uiso   1.00
C5     C     0.45312   0.21065   0.17061   0.00000  Uiso   1.00
C6     C     0.04688   0.12269   0.17057   0.00000  Uiso   1.00
C7     C     0.47647   0.16667   0.16667   0.00000  Uiso   1.00
C8     C     0.02353   0.16668   0.16667   0.00000  Uiso   1.00
C9     C     0.47771   0.07983   0.15869   0.00000  Uiso   1.00
C10    C     0.02230   0.25352   0.15873   0.00000  Uiso   1.00
C11    C     0.47768   0.25351   0.17466   0.00000  Uiso   1.00
C12    C     0.25000   0.26009   0.16667   0.00000  Uiso   1.00
C13    C     0.02232   0.07983   0.17463   0.00000  Uiso   1.00
C14    C     0.25000   0.02168   0.16667   0.00000  Uiso   1.00
C15    C     0.25000   0.31165   0.16667   0.00000  Uiso   1.00
C16    C     0.45681   0.04131   0.07755   0.00000  Uiso   1.00
C17    C     0.04330   0.29202   0.07760   0.00000  Uiso   1.00
C18    C     0.45678   0.29201   0.25581   0.00000  Uiso   1.00
C19    C     0.04331   0.04140   0.25581   0.00000  Uiso   1.00
C20    C     0.16438   0.16667   0.16667   0.00000  Uiso   1.00
C21    C     0.33562   0.16666   0.16667   0.00000  Uiso   1.00
C22    C     0.40636   0.21059   0.16850   0.00000  Uiso   1.00
C23    C     0.09364   0.12274   0.16842   0.00000  Uiso   1.00
C24    C     0.40637   0.12274   0.16483   0.00000  Uiso   1.00
C25    C     0.09364   0.21061   0.16492   0.00000  Uiso   1.00
C26    C     0.38369   0.16667   0.16667   0.00000  Uiso   1.00
Cl27   Cl    0.37502   0.26460   0.16251   0.00000  Uiso   1.00
Cl28   Cl    0.12496   0.06872   0.16225   0.00000  Uiso   1.00
Cl29   Cl    0.37505   0.06874   0.17083   0.00000  Uiso   1.00
Cl30   Cl    0.12497   0.26465   0.17109   0.00000  Uiso   1.00
Cu31   Cu    0.25000   0.16667   0.22303   0.00000  Uiso   1.00
Cu32   Cu    0.25000   0.16667   0.11031   0.00000  Uiso   1.00
H33    H     0.49002   0.04792   0.05817   0.00000  Uiso   1.00
H34    H     0.01012   0.04799   0.27524   0.00000  Uiso   1.00
H35    H     0.06688   0.07002   0.26939   0.00000  Uiso   1.00
H36    H     0.05600   0.00675   0.27285   0.00000  Uiso   1.00
H37    H     0.43321   0.06990   0.06389   0.00000  Uiso   1.00
H38    H     0.44418   0.00662   0.06055   0.00000  Uiso   1.00
H39    H     0.01012   0.28542   0.05814   0.00000  Uiso   1.00
H40    H     0.06692   0.26343   0.06402   0.00000  Uiso   1.00
H41    H     0.05598   0.32671   0.06061   0.00000  Uiso   1.00
H42    H     0.49000   0.28545   0.27519   0.00000  Uiso   1.00
H43    H     0.43323   0.26339   0.26948   0.00000  Uiso   1.00
H44    H     0.44410   0.32668   0.27281   0.00000  Uiso   1.00
N45    N     0.25000   0.16667   0.02561   0.00000  Uiso   1.00
N46    N     0.25000   0.16667   0.30773   0.00000  Uiso   1.00
O47    O     0.25000   0.09613   0.21425   0.00000  Uiso   1.00
O48    O     0.04070   0.29537   0.13789   0.00000  Uiso   1.00
O49    O     0.45927   0.29535   0.19552   0.00000  Uiso   1.00
O50    O     0.04073   0.03800   0.19553   0.00000  Uiso   1.00
O51    O     0.25000   0.23720   0.11908   0.00000  Uiso   1.00
O52    O     0.25000   0.23720   0.21425   0.00000  Uiso   1.00
O53    O     0.25000   0.09613   0.11908   0.00000  Uiso   1.00
O54    O     0.18513   0.16667   0.21427   0.00000  Uiso   1.00
O55    O     0.31487   0.16667   0.11907   0.00000  Uiso   1.00
O56    O     0.31487   0.16667   0.21427   0.00000  Uiso   1.00
O57    O     0.18513   0.16667   0.11907   0.00000  Uiso   1.00
O58    O     0.45931   0.03798   0.13784   0.00000  Uiso   1.00
C59    C     0.75000   0.07325   0.16667   0.00000  Uiso   1.00
C60    C     0.61631   0.16667   0.16667   0.00000  Uiso   1.00
C61    C     0.95313   0.12269   0.16273   0.00000  Uiso   1.00
C62    C     0.54687   0.21066   0.16278   0.00000  Uiso   1.00
C63    C     0.95312   0.21065   0.17061   0.00000  Uiso   1.00
C64    C     0.54688   0.12269   0.17057   0.00000  Uiso   1.00
C65    C     0.97647   0.16667   0.16667   0.00000  Uiso   1.00
C66    C     0.52353   0.16668   0.16667   0.00000  Uiso   1.00
C67    C     0.97771   0.07983   0.15869   0.00000  Uiso   1.00
C68    C     0.52230   0.25352   0.15873   0.00000  Uiso   1.00
C69    C     0.97768   0.25351   0.17466   0.00000  Uiso   1.00
C70    C     0.75000   0.26009   0.16667   0.00000  Uiso   1.00
C71    C     0.52232   0.07983   0.17463   0.00000  Uiso   1.00
C72    C     0.75000   0.02168   0.16667   0.00000  Uiso   1.00
C73    C     0.75000   0.31165   0.16667   0.00000  Uiso   1.00
C74    C     0.95681   0.04131   0.07755   0.00000  Uiso   1.00
C75    C     0.54330   0.29202   0.07760   0.00000  Uiso   1.00
C76    C     0.95678   0.29201   0.25581   0.00000  Uiso   1.00
C77    C     0.54331   0.04140   0.25581   0.00000  Uiso   1.00
C78    C     0.66438   0.16667   0.16667   0.00000  Uiso   1.00
C79    C     0.83562   0.16666   0.16667   0.00000  Uiso   1.00
C80    C     0.90636   0.21059   0.16850   0.00000  Uiso   1.00
C81    C     0.59364   0.12274   0.16842   0.00000  Uiso   1.00
C82    C     0.90637   0.12274   0.16483   0.00000  Uiso   1.00
C83    C     0.59364   0.21061   0.16492   0.00000  Uiso   1.00
C84    C     0.88369   0.16667   0.16667   0.00000  Uiso   1.00
Cl85   Cl    0.87502   0.26460   0.16251   0.00000  Uiso   1.00
Cl86   Cl    0.62496   0.06872   0.16225   0.00000  Uiso   1.00
Cl87   Cl    0.87505   0.06874   0.17083   0.00000  Uiso   1.00
Cl88   Cl    0.62497   0.26465   0.17109   0.00000  Uiso   1.00
Cu89   Cu    0.75000   0.16667   0.22303   0.00000  Uiso   1.00
Cu90   Cu    0.75000   0.16667   0.11031   0.00000  Uiso   1.00
H91    H     0.99002   0.04792   0.05817   0.00000  Uiso   1.00
H92    H     0.51012   0.04799   0.27524   0.00000  Uiso   1.00
H93    H     0.56688   0.07002   0.26939   0.00000  Uiso   1.00
H94    H     0.55600   0.00675   0.27285   0.00000  Uiso   1.00
H95    H     0.93321   0.06990   0.06389   0.00000  Uiso   1.00
H96    H     0.94418   0.00662   0.06055   0.00000  Uiso   1.00
H97    H     0.51012   0.28542   0.05814   0.00000  Uiso   1.00
H98    H     0.56692   0.26343   0.06402   0.00000  Uiso   1.00
H99    H     0.55598   0.32671   0.06061   0.00000  Uiso   1.00
H100   H     0.99000   0.28545   0.27519   0.00000  Uiso   1.00
H101   H     0.93323   0.26339   0.26948   0.00000  Uiso   1.00
H102   H     0.94410   0.32668   0.27281   0.00000  Uiso   1.00
N103   N     0.75000   0.16667   0.02561   0.00000  Uiso   1.00
N104   N     0.75000   0.16667   0.30773   0.00000  Uiso   1.00
O105   O     0.75000   0.09613   0.21425   0.00000  Uiso   1.00
O106   O     0.54070   0.29537   0.13789   0.00000  Uiso   1.00
O107   O     0.95927   0.29535   0.19552   0.00000  Uiso   1.00
O108   O     0.54073   0.03800   0.19553   0.00000  Uiso   1.00
O109   O     0.75000   0.23720   0.11908   0.00000  Uiso   1.00
O110   O     0.75000   0.23720   0.21425   0.00000  Uiso   1.00
O111   O     0.75000   0.09613   0.11908   0.00000  Uiso   1.00
O112   O     0.68513   0.16667   0.21427   0.00000  Uiso   1.00
O113   O     0.81487   0.16667   0.11907   0.00000  Uiso   1.00
O114   O     0.81487   0.16667   0.21427   0.00000  Uiso   1.00
O115   O     0.68513   0.16667   0.11907   0.00000  Uiso   1.00
O116   O     0.95931   0.03798   0.13784   0.00000  Uiso   1.00
C117   C     0.25000   0.40658   0.16667   0.00000  Uiso   1.00
C118   C     0.11631   0.50001   0.16667   0.00000  Uiso   1.00
C119   C     0.45313   0.45602   0.16273   0.00000  Uiso   1.00
C120   C     0.04687   0.54400   0.16278   0.00000  Uiso   1.00
C121   C     0.45312   0.54398   0.17061   0.00000  Uiso   1.00
C122   C     0.04688   0.45603   0.17057   0.00000  Uiso   1.00
C123   C     0.47647   0.50001   0.16667   0.00000  Uiso   1.00
C124   C     0.02353   0.50001   0.16667   0.00000  Uiso   1.00
C125   C     0.47771   0.41316   0.15869   0.00000  Uiso   1.00
C126   C     0.02230   0.58686   0.15873   0.00000  Uiso   1.00
C127   C     0.47768   0.58685   0.17466   0.00000  Uiso   1.00
C128   C     0.25000   0.59342   0.16667   0.00000  Uiso   1.00
C129   C     0.02232   0.41316   0.17463   0.00000  Uiso   1.00
C130   C     0.25000   0.35501   0.16667   0.00000  Uiso   1.00
C131   C     0.25000   0.64499   0.16667   0.00000  Uiso   1.00
C132   C     0.45681   0.37464   0.07755   0.00000  Uiso   1.00
C133   C     0.04330   0.62536   0.07760   0.00000  Uiso   1.00
C134   C     0.45678   0.62535   0.25581   0.00000  Uiso   1.00
C135   C     0.04331   0.37473   0.25581   0.00000  Uiso   1.00
C136   C     0.16438   0.50000   0.16667   0.00000  Uiso   1.00
C137   C     0.33562   0.50000   0.16667   0.00000  Uiso   1.00
C138   C     0.40636   0.54393   0.16850   0.00000  Uiso   1.00
C139   C     0.09364   0.45607   0.16842   0.00000  Uiso   1.00
C140   C     0.40637   0.45608   0.16483   0.00000  Uiso   1.00
C141   C     0.09364   0.54395   0.16492   0.00000  Uiso   1.00
C142   C     0.38369   0.50000   0.16667   0.00000  Uiso   1.00
Cl143  Cl    0.37502   0.59793   0.16251   0.00000  Uiso   1.00
Cl144  Cl    0.12496   0.40205   0.16225   0.00000  Uiso   1.00
Cl145  Cl    0.37505   0.40207   0.17083   0.00000  Uiso   1.00
Cl146  Cl    0.12497   0.59799   0.17109   0.00000  Uiso   1.00
Cu147  Cu    0.25000   0.50000   0.22303   0.00000  Uiso   1.00
Cu148  Cu    0.25000   0.50000   0.11031   0.00000  Uiso   1.00
H149   H     0.49002   0.38125   0.05817   0.00000  Uiso   1.00
H150   H     0.01012   0.38132   0.27524   0.00000  Uiso   1.00
H151   H     0.06688   0.40336   0.26939   0.00000  Uiso   1.00
H152   H     0.05600   0.34009   0.27285   0.00000  Uiso   1.00
H153   H     0.43321   0.40324   0.06389   0.00000  Uiso   1.00
H154   H     0.44418   0.33995   0.06055   0.00000  Uiso   1.00
H155   H     0.01012   0.61875   0.05814   0.00000  Uiso   1.00
H156   H     0.06692   0.59676   0.06402   0.00000  Uiso   1.00
H157   H     0.05598   0.66004   0.06061   0.00000  Uiso   1.00
H158   H     0.49000   0.61879   0.27519   0.00000  Uiso   1.00
H159   H     0.43323   0.59672   0.26948   0.00000  Uiso   1.00
H160   H     0.44410   0.66001   0.27281   0.00000  Uiso   1.00
N161   N     0.25000   0.50000   0.02561   0.00000  Uiso   1.00
N162   N     0.25000   0.50000   0.30773   0.00000  Uiso   1.00
O163   O     0.25000   0.42946   0.21425   0.00000  Uiso   1.00
O164   O     0.04070   0.62870   0.13789   0.00000  Uiso   1.00
O165   O     0.45927   0.62868   0.19552   0.00000  Uiso   1.00
O166   O     0.04073   0.37133   0.19553   0.00000  Uiso   1.00
O167   O     0.25000   0.57054   0.11908   0.00000  Uiso   1.00
O168   O     0.25000   0.57054   0.21425   0.00000  Uiso   1.00
O169   O     0.25000   0.42946   0.11908   0.00000  Uiso   1.00
O170   O     0.18513   0.50000   0.21427   0.00000  Uiso   1.00
O171   O     0.31487   0.50000   0.11907   0.00000  Uiso   1.00
O172   O     0.31487   0.50000   0.21427   0.00000  Uiso   1.00
O173   O     0.18513   0.50000   0.11907   0.00000  Uiso   1.00
O174   O     0.45931   0.37132   0.13784   0.00000  Uiso   1.00
C175   C     0.75000   0.40658   0.16667   0.00000  Uiso   1.00
C176   C     0.61631   0.50001   0.16667   0.00000  Uiso   1.00
C177   C     0.95313   0.45602   0.16273   0.00000  Uiso   1.00
C178   C     0.54687   0.54400   0.16278   0.00000  Uiso   1.00
C179   C     0.95312   0.54398   0.17061   0.00000  Uiso   1.00
C180   C     0.54688   0.45603   0.17057   0.00000  Uiso   1.00
C181   C     0.97647   0.50001   0.16667   0.00000  Uiso   1.00
C182   C     0.52353   0.50001   0.16667   0.00000  Uiso   1.00
C183   C     0.97771   0.41316   0.15869   0.00000  Uiso   1.00
C184   C     0.52230   0.58686   0.15873   0.00000  Uiso   1.00
C185   C     0.97768   0.58685   0.17466   0.00000  Uiso   1.00
C186   C     0.75000   0.59342   0.16667   0.00000  Uiso   1.00
C187   C     0.52232   0.41316   0.17463   0.00000  Uiso   1.00
C188   C     0.75000   0.35501   0.16667   0.00000  Uiso   1.00
C189   C     0.75000   0.64499   0.16667   0.00000  Uiso   1.00
C190   C     0.95681   0.37464   0.07755   0.00000  Uiso   1.00
C191   C     0.54330   0.62536   0.07760   0.00000  Uiso   1.00
C192   C     0.95678   0.62535   0.25581   0.00000  Uiso   1.00
C193   C     0.54331   0.37473   0.25581   0.00000  Uiso   1.00
C194   C     0.66438   0.50000   0.16667   0.00000  Uiso   1.00
C195   C     0.83562   0.50000   0.16667   0.00000  Uiso   1.00
C196   C     0.90636   0.54393   0.16850   0.00000  Uiso   1.00
C197   C     0.59364   0.45607   0.16842   0.00000  Uiso   1.00
C198   C     0.90637   0.45608   0.16483   0.00000  Uiso   1.00
C199   C     0.59364   0.54395   0.16492   0.00000  Uiso   1.00
C200   C     0.88369   0.50000   0.16667   0.00000  Uiso   1.00
Cl201  Cl    0.87502   0.59793   0.16251   0.00000  Uiso   1.00
Cl202  Cl    0.62496   0.40205   0.16225   0.00000  Uiso   1.00
Cl203  Cl    0.87505   0.40207   0.17083   0.00000  Uiso   1.00
Cl204  Cl    0.62497   0.59799   0.17109   0.00000  Uiso   1.00
Cu205  Cu    0.75000   0.50000   0.22303   0.00000  Uiso   1.00
Cu206  Cu    0.75000   0.50000   0.11031   0.00000  Uiso   1.00
H207   H     0.99002   0.38125   0.05817   0.00000  Uiso   1.00
H208   H     0.51012   0.38132   0.27524   0.00000  Uiso   1.00
H209   H     0.56688   0.40336   0.26939   0.00000  Uiso   1.00
H210   H     0.55600   0.34009   0.27285   0.00000  Uiso   1.00
H211   H     0.93321   0.40324   0.06389   0.00000  Uiso   1.00
H212   H     0.94418   0.33995   0.06055   0.00000  Uiso   1.00
H213   H     0.51012   0.61875   0.05814   0.00000  Uiso   1.00
H214   H     0.56692   0.59676   0.06402   0.00000  Uiso   1.00
H215   H     0.55598   0.66004   0.06061   0.00000  Uiso   1.00
H216   H     0.99000   0.61879   0.27519   0.00000  Uiso   1.00
H217   H     0.93323   0.59672   0.26948   0.00000  Uiso   1.00
H218   H     0.94410   0.66001   0.27281   0.00000  Uiso   1.00
N219   N     0.75000   0.50000   0.02561   0.00000  Uiso   1.00
N220   N     0.75000   0.50000   0.30773   0.00000  Uiso   1.00
O221   O     0.75000   0.42946   0.21425   0.00000  Uiso   1.00
O222   O     0.54070   0.62870   0.13789   0.00000  Uiso   1.00
O223   O     0.95927   0.62868   0.19552   0.00000  Uiso   1.00
O224   O     0.54073   0.37133   0.19553   0.00000  Uiso   1.00
O225   O     0.75000   0.57054   0.11908   0.00000  Uiso   1.00
O226   O     0.75000   0.57054   0.21425   0.00000  Uiso   1.00
O227   O     0.75000   0.42946   0.11908   0.00000  Uiso   1.00
O228   O     0.68513   0.50000   0.21427   0.00000  Uiso   1.00
O229   O     0.81487   0.50000   0.11907   0.00000  Uiso   1.00
O230   O     0.81487   0.50000   0.21427   0.00000  Uiso   1.00
O231   O     0.68513   0.50000   0.11907   0.00000  Uiso   1.00
O232   O     0.95931   0.37132   0.13784   0.00000  Uiso   1.00
C233   C     0.25000   0.73991   0.16667   0.00000  Uiso   1.00
C234   C     0.11631   0.83334   0.16667   0.00000  Uiso   1.00
C235   C     0.45313   0.78936   0.16273   0.00000  Uiso   1.00
C236   C     0.04687   0.87733   0.16278   0.00000  Uiso   1.00
C237   C     0.45312   0.87732   0.17061   0.00000  Uiso   1.00
C238   C     0.04688   0.78936   0.17057   0.00000  Uiso   1.00
C239   C     0.47647   0.83334   0.16667   0.00000  Uiso   1.00
C240   C     0.02353   0.83334   0.16667   0.00000  Uiso   1.00
C241   C     0.47771   0.74649   0.15869   0.00000  Uiso   1.00
C242   C     0.02230   0.92019   0.15873   0.00000  Uiso   1.00
C243   C     0.47768   0.92018   0.17466   0.00000  Uiso   1.00
C244   C     0.25000   0.92675   0.16667   0.00000  Uiso   1.00
C245   C     0.02232   0.74650   0.17463   0.00000  Uiso   1.00
C246   C     0.25000   0.68835   0.16667   0.00000  Uiso   1.00
C247   C     0.25000   0.97832   0.16667   0.00000  Uiso   1.00
C248   C     0.45681   0.70798   0.07755   0.00000  Uiso   1.00
C249   C     0.04330   0.95869   0.07760   0.00000  Uiso   1.00
C250   C     0.45678   0.95868   0.25581   0.00000  Uiso   1.00
C251   C     0.04331   0.70806   0.25581   0.00000  Uiso   1.00
C252   C     0.16438   0.83334   0.16667   0.00000  Uiso   1.00
C253   C     0.33562   0.83333   0.16667   0.00000  Uiso   1.00
C254   C     0.40636   0.87726   0.16850   0.00000  Uiso   1.00
C255   C     0.09364   0.78941   0.16842   0.00000  Uiso   1.00
C256   C     0.40637   0.78941   0.16483   0.00000  Uiso   1.00
C257   C     0.09364   0.87728   0.16492   0.00000  Uiso   1.00
C258   C     0.38369   0.83333   0.16667   0.00000  Uiso   1.00
Cl259  Cl    0.37502   0.93126   0.16251   0.00000  Uiso   1.00
Cl260  Cl    0.12496   0.73539   0.16225   0.00000  Uiso   1.00
Cl261  Cl    0.37505   0.73540   0.17083   0.00000  Uiso   1.00
Cl262  Cl    0.12497   0.93132   0.17109   0.00000  Uiso   1.00
Cu263  Cu    0.25000   0.83333   0.22303   0.00000  Uiso   1.00
Cu264  Cu    0.25000   0.83333   0.11031   0.00000  Uiso   1.00
H265   H     0.49002   0.71459   0.05817   0.00000  Uiso   1.00
H266   H     0.01012   0.71465   0.27524   0.00000  Uiso   1.00
H267   H     0.06688   0.73669   0.26939   0.00000  Uiso   1.00
H268   H     0.05600   0.67342   0.27285   0.00000  Uiso   1.00
H269   H     0.43321   0.73657   0.06389   0.00000  Uiso   1.00
H270   H     0.44418   0.67328   0.06055   0.00000  Uiso   1.00
H271   H     0.01012   0.95209   0.05814   0.00000  Uiso   1.00
H272   H     0.06692   0.93009   0.06402   0.00000  Uiso   1.00
H273   H     0.05598   0.99337   0.06061   0.00000  Uiso   1.00
H274   H     0.49000   0.95212   0.27519   0.00000  Uiso   1.00
H275   H     0.43323   0.93005   0.26948   0.00000  Uiso   1.00
H276   H     0.44410   0.99335   0.27281   0.00000  Uiso   1.00
N277   N     0.25000   0.83333   0.02561   0.00000  Uiso   1.00
N278   N     0.25000   0.83333   0.30773   0.00000  Uiso   1.00
O279   O     0.25000   0.76280   0.21425   0.00000  Uiso   1.00
O280   O     0.04070   0.96204   0.13789   0.00000  Uiso   1.00
O281   O     0.45927   0.96202   0.19552   0.00000  Uiso   1.00
O282   O     0.04073   0.70467   0.19553   0.00000  Uiso   1.00
O283   O     0.25000   0.90387   0.11908   0.00000  Uiso   1.00
O284   O     0.25000   0.90387   0.21425   0.00000  Uiso   1.00
O285   O     0.25000   0.76280   0.11908   0.00000  Uiso   1.00
O286   O     0.18513   0.83333   0.21427   0.00000  Uiso   1.00
O287   O     0.31487   0.83333   0.11907   0.00000  Uiso   1.00
O288   O     0.31487   0.83333   0.21427   0.00000  Uiso   1.00
O289   O     0.18513   0.83333   0.11907   0.00000  Uiso   1.00
O290   O     0.45931   0.70465   0.13784   0.00000  Uiso   1.00
C291   C     0.75000   0.73991   0.16667   0.00000  Uiso   1.00
C292   C     0.61631   0.83334   0.16667   0.00000  Uiso   1.00
C293   C     0.95313   0.78936   0.16273   0.00000  Uiso   1.00
C294   C     0.54687   0.87733   0.16278   0.00000  Uiso   1.00
C295   C     0.95312   0.87732   0.17061   0.00000  Uiso   1.00
C296   C     0.54688   0.78936   0.17057   0.00000  Uiso   1.00
C297   C     0.97647   0.83334   0.16667   0.00000  Uiso   1.00
C298   C     0.52353   0.83334   0.16667   0.00000  Uiso   1.00
C299   C     0.97771   0.74649   0.15869   0.00000  Uiso   1.00
C300   C     0.52230   0.92019   0.15873   0.00000  Uiso   1.00
C301   C     0.97768   0.92018   0.17466   0.00000  Uiso   1.00
C302   C     0.75000   0.92675   0.16667   0.00000  Uiso   1.00
C303   C     0.52232   0.74650   0.17463   0.00000  Uiso   1.00
C304   C     0.75000   0.68835   0.16667   0.00000  Uiso   1.00
C305   C     0.75000   0.97832   0.16667   0.00000  Uiso   1.00
C306   C     0.95681   0.70798   0.07755   0.00000  Uiso   1.00
C307   C     0.54330   0.95869   0.07760   0.00000  Uiso   1.00
C308   C     0.95678   0.95868   0.25581   0.00000  Uiso   1.00
C309   C     0.54331   0.70806   0.25581   0.00000  Uiso   1.00
C310   C     0.66438   0.83334   0.16667   0.00000  Uiso   1.00
C311   C     0.83562   0.83333   0.16667   0.00000  Uiso   1.00
C312   C     0.90636   0.87726   0.16850   0.00000  Uiso   1.00
C313   C     0.59364   0.78941   0.16842   0.00000  Uiso   1.00
C314   C     0.90637   0.78941   0.16483   0.00000  Uiso   1.00
C315   C     0.59364   0.87728   0.16492   0.00000  Uiso   1.00
C316   C     0.88369   0.83333   0.16667   0.00000  Uiso   1.00
Cl317  Cl    0.87502   0.93126   0.16251   0.00000  Uiso   1.00
Cl318  Cl    0.62496   0.73539   0.16225   0.00000  Uiso   1.00
Cl319  Cl    0.87505   0.73540   0.17083   0.00000  Uiso   1.00
Cl320  Cl    0.62497   0.93132   0.17109   0.00000  Uiso   1.00
Cu321  Cu    0.75000   0.83333   0.22303   0.00000  Uiso   1.00
Cu322  Cu    0.75000   0.83333   0.11031   0.00000  Uiso   1.00
H323   H     0.99002   0.71459   0.05817   0.00000  Uiso   1.00
H324   H     0.51012   0.71465   0.27524   0.00000  Uiso   1.00
H325   H     0.56688   0.73669   0.26939   0.00000  Uiso   1.00
H326   H     0.55600   0.67342   0.27285   0.00000  Uiso   1.00
H327   H     0.93321   0.73657   0.06389   0.00000  Uiso   1.00
H328   H     0.94418   0.67328   0.06055   0.00000  Uiso   1.00
H329   H     0.51012   0.95209   0.05814   0.00000  Uiso   1.00
H330   H     0.56692   0.93009   0.06402   0.00000  Uiso   1.00
H331   H     0.55598   0.99337   0.06061   0.00000  Uiso   1.00
H332   H     0.99000   0.95212   0.27519   0.00000  Uiso   1.00
H333   H     0.93323   0.93005   0.26948   0.00000  Uiso   1.00
H334   H     0.94410   0.99335   0.27281   0.00000  Uiso   1.00
N335   N     0.75000   0.83333   0.02561   0.00000  Uiso   1.00
N336   N     0.75000   0.83333   0.30773   0.00000  Uiso   1.00
O337   O     0.75000   0.76280   0.21425   0.00000  Uiso   1.00
O338   O     0.54070   0.96204   0.13789   0.00000  Uiso   1.00
O339   O     0.95927   0.96202   0.19552   0.00000  Uiso   1.00
O340   O     0.54073   0.70467   0.19553   0.00000  Uiso   1.00
O341   O     0.75000   0.90387   0.11908   0.00000  Uiso   1.00
O342   O     0.75000   0.90387   0.21425   0.00000  Uiso   1.00
O343   O     0.75000   0.76280   0.11908   0.00000  Uiso   1.00
O344   O     0.68513   0.83333   0.21427   0.00000  Uiso   1.00
O345   O     0.81487   0.83333   0.11907   0.00000  Uiso   1.00
O346   O     0.81487   0.83333   0.21427   0.00000  Uiso   1.00
O347   O     0.68513   0.83333   0.11907   0.00000  Uiso   1.00
O348   O     0.95931   0.70465   0.13784   0.00000  Uiso   1.00
C349   C     0.25000   0.07325   0.50000   0.00000  Uiso   1.00
C350   C     0.11631   0.16667   0.50000   0.00000  Uiso   1.00
C351   C     0.45313   0.12269   0.49607   0.00000  Uiso   1.00
C352   C     0.04687   0.21066   0.49611   0.00000  Uiso   1.00
C353   C     0.45312   0.21065   0.50394   0.00000  Uiso   1.00
C354   C     0.04688   0.12269   0.50391   0.00000  Uiso   1.00
C355   C     0.47647   0.16667   0.50000   0.00000  Uiso   1.00
C356   C     0.02353   0.16668   0.50001   0.00000  Uiso   1.00
C357   C     0.47771   0.07983   0.49203   0.00000  Uiso   1.00
C358   C     0.02230   0.25352   0.49207   0.00000  Uiso   1.00
C359   C     0.47768   0.25351   0.50800   0.00000  Uiso   1.00
C360   C     0.25000   0.26009   0.50000   0.00000  Uiso   1.00
C361   C     0.02232   0.07983   0.50797   0.00000  Uiso   1.00
C362   C     0.25000   0.02168   0.50000   0.00000  Uiso   1.00
C363   C     0.25000   0.31165   0.50000   0.00000  Uiso   1.00
C364   C     0.45681   0.04131   0.41089   0.00000  Uiso   1.00
C365   C     0.04330   0.29202   0.41094   0.00000  Uiso   1.00
C366   C     0.45678   0.29201   0.58915   0.00000  Uiso   1.00
C367   C     0.04331   0.04140   0.58915   0.00000  Uiso   1.00
C368   C     0.16438   0.16667   0.50000   0.00000  Uiso   1.00
C369   C     0.33562   0.16666   0.50000   0.00000  Uiso   1.00
C370   C     0.40636   0.21059   0.50184   0.00000  Uiso   1.00
C371   C     0.09364   0.12274   0.50175   0.00000  Uiso   1.00
C372   C     0.40637   0.12274   0.49817   0.00000  Uiso   1.00
C373   C     0.09364   0.21061   0.49825   0.00000  Uiso   1.00
C374   C     0.38369   0.16667   0.50000   0.00000  Uiso   1.00
Cl375  Cl    0.37502   0.26460   0.49585   0.00000  Uiso   1.00
Cl376  Cl    0.12496   0.06872   0.49558   0.00000  Uiso   1.00
Cl377  Cl    0.37505   0.06874   0.50416   0.00000  Uiso   1.00
Cl378  Cl    0.12497   0.26465   0.50442   0.00000  Uiso   1.00
Cu379  Cu    0.25000   0.16667   0.55636   0.00000  Uiso   1.00
Cu380  Cu    0.25000   0.16667   0.44364   0.00000  Uiso   1.00
H381   H     0.49002   0.04792   0.39150   0.00000  Uiso   1.00
H382   H     0.01012   0.04799   0.60858   0.00000  Uiso   1.00
H383   H     0.06688   0.07002   0.60272   0.00000  Uiso   1.00
H384   H     0.05600   0.00675   0.60618   0.00000  Uiso   1.00
H385   H     0.43321   0.06990   0.39722   0.00000  Uiso   1.00
H386   H     0.44418   0.00662   0.39389   0.00000  Uiso   1.00
H387   H     0.01012   0.28542   0.39147   0.00000  Uiso   1.00
H388   H     0.06692   0.26343   0.39736   0.00000  Uiso   1.00
H389   H     0.05598   0.32671   0.39395   0.00000  Uiso   1.00
H390   H     0.49000   0.28545   0.60852   0.00000  Uiso   1.00
H391   H     0.43323   0.26339   0.60281   0.00000  Uiso   1.00
H392   H     0.44410   0.32668   0.60615   0.00000  Uiso   1.00
N393   N     0.25000   0.16667   0.35894   0.00000  Uiso   1.00
N394   N     0.25000   0.16667   0.64106   0.00000  Uiso   1.00
O395   O     0.25000   0.09613   0.54759   0.00000  Uiso   1.00
O396   O     0.04070   0.29537   0.47123   0.00000  Uiso   1.00
O397   O     0.45927   0.29535   0.52886   0.00000  Uiso   1.00
O398   O     0.04073   0.03800   0.52886   0.00000  Uiso   1.00
O399   O     0.25000   0.23720   0.45241   0.00000  Uiso   1.00
O400   O     0.25000   0.23720   0.54759   0.00000  Uiso   1.00
O401   O     0.25000   0.09613   0.45241   0.00000  Uiso   1.00
O402   O     0.18513   0.16667   0.54760   0.00000  Uiso   1.00
O403   O     0.31487   0.16667   0.45240   0.00000  Uiso   1.00
O404   O     0.31487   0.16667   0.54760   0.00000  Uiso   1.00
O405   O     0.18513   0.16667   0.45240   0.00000  Uiso   1.00
O406   O     0.45931   0.03798   0.47118   0.00000  Uiso   1.00
C407   C     0.75000   0.07325   0.50000   0.00000  Uiso   1.00
C408   C     0.61631   0.16667   0.50000   0.00000  Uiso   1.00
C409   C     0.95313   0.12269   0.49607   0.00000  Uiso   1.00
C410   C     0.54687   0.21066   0.49611   0.00000  Uiso   1.00
C411   C     0.95312   0.21065   0.50394   0.00000  Uiso   1.00
C412   C     0.54688   0.12269   0.50391   0.00000  Uiso   1.00
C413   C     0.97647   0.16667   0.50000   0.00000  Uiso   1.00
C414   C     0.52353   0.16668   0.50001   0.00000  Uiso   1.00
C415   C     0.97771   0.07983   0.49203   0.00000  Uiso   1.00
C416   C     0.52230   0.25352   0.49207   0.00000  Uiso   1.00
C417   C     0.97768   0.25351   0.50800   0.00000  Uiso   1.00
C418   C     0.75000   0.26009   0.50000   0.00000  Uiso   1.00
C419   C     0.52232   0.07983   0.50797   0.00000  Uiso   1.00
C420   C     0.75000   0.02168   0.50000   0.00000  Uiso   1.00
C421   C     0.75000   0.31165   0.50000   0.00000  Uiso   1.00
C422   C     0.95681   0.04131   0.41089   0.00000  Uiso   1.00
C423   C     0.54330   0.29202   0.41094   0.00000  Uiso   1.00
C424   C     0.95678   0.29201   0.58915   0.00000  Uiso   1.00
C425   C     0.54331   0.04140   0.58915   0.00000  Uiso   1.00
C426   C     0.66438   0.16667   0.50000   0.00000  Uiso   1.00
C427   C     0.83562   0.16666   0.50000   0.00000  Uiso   1.00
C428   C     0.90636   0.21059   0.50184   0.00000  Uiso   1.00
C429   C     0.59364   0.12274   0.50175   0.00000  Uiso   1.00
C430   C     0.90637   0.12274   0.49817   0.00000  Uiso   1.00
C431   C     0.59364   0.21061   0.49825   0.00000  Uiso   1.00
C432   C     0.88369   0.16667   0.50000   0.00000  Uiso   1.00
Cl433  Cl    0.87502   0.26460   0.49585   0.00000  Uiso   1.00
Cl434  Cl    0.62496   0.06872   0.49558   0.00000  Uiso   1.00
Cl435  Cl    0.87505   0.06874   0.50416   0.00000  Uiso   1.00
Cl436  Cl    0.62497   0.26465   0.50442   0.00000  Uiso   1.00
Cu437  Cu    0.75000   0.16667   0.55636   0.00000  Uiso   1.00
Cu438  Cu    0.75000   0.16667   0.44364   0.00000  Uiso   1.00
H439   H     0.99002   0.04792   0.39150   0.00000  Uiso   1.00
H440   H     0.51012   0.04799   0.60858   0.00000  Uiso   1.00
H441   H     0.56688   0.07002   0.60272   0.00000  Uiso   1.00
H442   H     0.55600   0.00675   0.60618   0.00000  Uiso   1.00
H443   H     0.93321   0.06990   0.39722   0.00000  Uiso   1.00
H444   H     0.94418   0.00662   0.39389   0.00000  Uiso   1.00
H445   H     0.51012   0.28542   0.39147   0.00000  Uiso   1.00
H446   H     0.56692   0.26343   0.39736   0.00000  Uiso   1.00
H447   H     0.55598   0.32671   0.39395   0.00000  Uiso   1.00
H448   H     0.99000   0.28545   0.60852   0.00000  Uiso   1.00
H449   H     0.93323   0.26339   0.60281   0.00000  Uiso   1.00
H450   H     0.94410   0.32668   0.60615   0.00000  Uiso   1.00
N451   N     0.75000   0.16667   0.35894   0.00000  Uiso   1.00
N452   N     0.75000   0.16667   0.64106   0.00000  Uiso   1.00
O453   O     0.75000   0.09613   0.54759   0.00000  Uiso   1.00
O454   O     0.54070   0.29537   0.47123   0.00000  Uiso   1.00
O455   O     0.95927   0.29535   0.52886   0.00000  Uiso   1.00
O456   O     0.54073   0.03800   0.52886   0.00000  Uiso   1.00
O457   O     0.75000   0.23720   0.45241   0.00000  Uiso   1.00
O458   O     0.75000   0.23720   0.54759   0.00000  Uiso   1.00
O459   O     0.75000   0.09613   0.45241   0.00000  Uiso   1.00
O460   O     0.68513   0.16667   0.54760   0.00000  Uiso   1.00
O461   O     0.81487   0.16667   0.45240   0.00000  Uiso   1.00
O462   O     0.81487   0.16667   0.54760   0.00000  Uiso   1.00
O463   O     0.68513   0.16667   0.45240   0.00000  Uiso   1.00
O464   O     0.95931   0.03798   0.47118   0.00000  Uiso   1.00
C465   C     0.25000   0.40658   0.50000   0.00000  Uiso   1.00
C466   C     0.11631   0.50001   0.50000   0.00000  Uiso   1.00
C467   C     0.45313   0.45602   0.49607   0.00000  Uiso   1.00
C468   C     0.04687   0.54400   0.49611   0.00000  Uiso   1.00
C469   C     0.45312   0.54398   0.50394   0.00000  Uiso   1.00
C470   C     0.04688   0.45603   0.50391   0.00000  Uiso   1.00
C471   C     0.47647   0.50001   0.50000   0.00000  Uiso   1.00
C472   C     0.02353   0.50001   0.50001   0.00000  Uiso   1.00
C473   C     0.47771   0.41316   0.49203   0.00000  Uiso   1.00
C474   C     0.02230   0.58686   0.49207   0.00000  Uiso   1.00
C475   C     0.47768   0.58685   0.50800   0.00000  Uiso   1.00
C476   C     0.25000   0.59342   0.50000   0.00000  Uiso   1.00
C477   C     0.02232   0.41316   0.50797   0.00000  Uiso   1.00
C478   C     0.25000   0.35501   0.50000   0.00000  Uiso   1.00
C479   C     0.25000   0.64499   0.50000   0.00000  Uiso   1.00
C480   C     0.45681   0.37464   0.41089   0.00000  Uiso   1.00
C481   C     0.04330   0.62536   0.41094   0.00000  Uiso   1.00
C482   C     0.45678   0.62535   0.58915   0.00000  Uiso   1.00
C483   C     0.04331   0.37473   0.58915   0.00000  Uiso   1.00
C484   C     0.16438   0.50000   0.50000   0.00000  Uiso   1.00
C485   C     0.33562   0.50000   0.50000   0.00000  Uiso   1.00
C486   C     0.40636   0.54393   0.50184   0.00000  Uiso   1.00
C487   C     0.09364   0.45607   0.50175   0.00000  Uiso   1.00
C488   C     0.40637   0.45608   0.49817   0.00000  Uiso   1.00
C489   C     0.09364   0.54395   0.49825   0.00000  Uiso   1.00
C490   C     0.38369   0.50000   0.50000   0.00000  Uiso   1.00
Cl491  Cl    0.37502   0.59793   0.49585   0.00000  Uiso   1.00
Cl492  Cl    0.12496   0.40205   0.49558   0.00000  Uiso   1.00
Cl493  Cl    0.37505   0.40207   0.50416   0.00000  Uiso   1.00
Cl494  Cl    0.12497   0.59799   0.50442   0.00000  Uiso   1.00
Cu495  Cu    0.25000   0.50000   0.55636   0.00000  Uiso   1.00
Cu496  Cu    0.25000   0.50000   0.44364   0.00000  Uiso   1.00
H497   H     0.49002   0.38125   0.39150   0.00000  Uiso   1.00
H498   H     0.01012   0.38132   0.60858   0.00000  Uiso   1.00
H499   H     0.06688   0.40336   0.60272   0.00000  Uiso   1.00
H500   H     0.05600   0.34009   0.60618   0.00000  Uiso   1.00
H501   H     0.43321   0.40324   0.39722   0.00000  Uiso   1.00
H502   H     0.44418   0.33995   0.39389   0.00000  Uiso   1.00
H503   H     0.01012   0.61875   0.39147   0.00000  Uiso   1.00
H504   H     0.06692   0.59676   0.39736   0.00000  Uiso   1.00
H505   H     0.05598   0.66004   0.39395   0.00000  Uiso   1.00
H506   H     0.49000   0.61879   0.60852   0.00000  Uiso   1.00
H507   H     0.43323   0.59672   0.60281   0.00000  Uiso   1.00
H508   H     0.44410   0.66001   0.60615   0.00000  Uiso   1.00
N509   N     0.25000   0.50000   0.35894   0.00000  Uiso   1.00
N510   N     0.25000   0.50000   0.64106   0.00000  Uiso   1.00
O511   O     0.25000   0.42946   0.54759   0.00000  Uiso   1.00
O512   O     0.04070   0.62870   0.47123   0.00000  Uiso   1.00
O513   O     0.45927   0.62868   0.52886   0.00000  Uiso   1.00
O514   O     0.04073   0.37133   0.52886   0.00000  Uiso   1.00
O515   O     0.25000   0.57054   0.45241   0.00000  Uiso   1.00
O516   O     0.25000   0.57054   0.54759   0.00000  Uiso   1.00
O517   O     0.25000   0.42946   0.45241   0.00000  Uiso   1.00
O518   O     0.18513   0.50000   0.54760   0.00000  Uiso   1.00
O519   O     0.31487   0.50000   0.45240   0.00000  Uiso   1.00
O520   O     0.31487   0.50000   0.54760   0.00000  Uiso   1.00
O521   O     0.18513   0.50000   0.45240   0.00000  Uiso   1.00
O522   O     0.45931   0.37132   0.47118   0.00000  Uiso   1.00
C523   C     0.75000   0.40658   0.50000   0.00000  Uiso   1.00
C524   C     0.61631   0.50001   0.50000   0.00000  Uiso   1.00
C525   C     0.95313   0.45602   0.49607   0.00000  Uiso   1.00
C526   C     0.54687   0.54400   0.49611   0.00000  Uiso   1.00
C527   C     0.95312   0.54398   0.50394   0.00000  Uiso   1.00
C528   C     0.54688   0.45603   0.50391   0.00000  Uiso   1.00
C529   C     0.97647   0.50001   0.50000   0.00000  Uiso   1.00
C530   C     0.52353   0.50001   0.50001   0.00000  Uiso   1.00
C531   C     0.97771   0.41316   0.49203   0.00000  Uiso   1.00
C532   C     0.52230   0.58686   0.49207   0.00000  Uiso   1.00
C533   C     0.97768   0.58685   0.50800   0.00000  Uiso   1.00
C534   C     0.75000   0.59342   0.50000   0.00000  Uiso   1.00
C535   C     0.52232   0.41316   0.50797   0.00000  Uiso   1.00
C536   C     0.75000   0.35501   0.50000   0.00000  Uiso   1.00
C537   C     0.75000   0.64499   0.50000   0.00000  Uiso   1.00
C538   C     0.95681   0.37464   0.41089   0.00000  Uiso   1.00
C539   C     0.54330   0.62536   0.41094   0.00000  Uiso   1.00
C540   C     0.95678   0.62535   0.58915   0.00000  Uiso   1.00
C541   C     0.54331   0.37473   0.58915   0.00000  Uiso   1.00
C542   C     0.66438   0.50000   0.50000   0.00000  Uiso   1.00
C543   C     0.83562   0.50000   0.50000   0.00000  Uiso   1.00
C544   C     0.90636   0.54393   0.50184   0.00000  Uiso   1.00
C545   C     0.59364   0.45607   0.50175   0.00000  Uiso   1.00
C546   C     0.90637   0.45608   0.49817   0.00000  Uiso   1.00
C547   C     0.59364   0.54395   0.49825   0.00000  Uiso   1.00
C548   C     0.88369   0.50000   0.50000   0.00000  Uiso   1.00
Cl549  Cl    0.87502   0.59793   0.49585   0.00000  Uiso   1.00
Cl550  Cl    0.62496   0.40205   0.49558   0.00000  Uiso   1.00
Cl551  Cl    0.87505   0.40207   0.50416   0.00000  Uiso   1.00
Cl552  Cl    0.62497   0.59799   0.50442   0.00000  Uiso   1.00
Cu553  Cu    0.75000   0.50000   0.55636   0.00000  Uiso   1.00
Cu554  Cu    0.75000   0.50000   0.44364   0.00000  Uiso   1.00
H555   H     0.99002   0.38125   0.39150   0.00000  Uiso   1.00
H556   H     0.51012   0.38132   0.60858   0.00000  Uiso   1.00
H557   H     0.56688   0.40336   0.60272   0.00000  Uiso   1.00
H558   H     0.55600   0.34009   0.60618   0.00000  Uiso   1.00
H559   H     0.93321   0.40324   0.39722   0.00000  Uiso   1.00
H560   H     0.94418   0.33995   0.39389   0.00000  Uiso   1.00
H561   H     0.51012   0.61875   0.39147   0.00000  Uiso   1.00
H562   H     0.56692   0.59676   0.39736   0.00000  Uiso   1.00
H563   H     0.55598   0.66004   0.39395   0.00000  Uiso   1.00
H564   H     0.99000   0.61879   0.60852   0.00000  Uiso   1.00
H565   H     0.93323   0.59672   0.60281   0.00000  Uiso   1.00
H566   H     0.94410   0.66001   0.60615   0.00000  Uiso   1.00
N567   N     0.75000   0.50000   0.35894   0.00000  Uiso   1.00
N568   N     0.75000   0.50000   0.64106   0.00000  Uiso   1.00
O569   O     0.75000   0.42946   0.54759   0.00000  Uiso   1.00
O570   O     0.54070   0.62870   0.47123   0.00000  Uiso   1.00
O571   O     0.95927   0.62868   0.52886   0.00000  Uiso   1.00
O572   O     0.54073   0.37133   0.52886   0.00000  Uiso   1.00
O573   O     0.75000   0.57054   0.45241   0.00000  Uiso   1.00
O574   O     0.75000   0.57054   0.54759   0.00000  Uiso   1.00
O575   O     0.75000   0.42946   0.45241   0.00000  Uiso   1.00
O576   O     0.68513   0.50000   0.54760   0.00000  Uiso   1.00
O577   O     0.81487   0.50000   0.45240   0.00000  Uiso   1.00
O578   O     0.81487   0.50000   0.54760   0.00000  Uiso   1.00
O579   O     0.68513   0.50000   0.45240   0.00000  Uiso   1.00
O580   O     0.95931   0.37132   0.47118   0.00000  Uiso   1.00
C581   C     0.25000   0.73991   0.50000   0.00000  Uiso   1.00
C582   C     0.11631   0.83334   0.50000   0.00000  Uiso   1.00
C583   C     0.45313   0.78936   0.49607   0.00000  Uiso   1.00
C584   C     0.04687   0.87733   0.49611   0.00000  Uiso   1.00
C585   C     0.45312   0.87732   0.50394   0.00000  Uiso   1.00
C586   C     0.04688   0.78936   0.50391   0.00000  Uiso   1.00
C587   C     0.47647   0.83334   0.50000   0.00000  Uiso   1.00
C588   C     0.02353   0.83334   0.50001   0.00000  Uiso   1.00
C589   C     0.47771   0.74649   0.49203   0.00000  Uiso   1.00
C590   C     0.02230   0.92019   0.49207   0.00000  Uiso   1.00
C591   C     0.47768   0.92018   0.50800   0.00000  Uiso   1.00
C592   C     0.25000   0.92675   0.50000   0.00000  Uiso   1.00
C593   C     0.02232   0.74650   0.50797   0.00000  Uiso   1.00
C594   C     0.25000   0.68835   0.50000   0.00000  Uiso   1.00
C595   C     0.25000   0.97832   0.50000   0.00000  Uiso   1.00
C596   C     0.45681   0.70798   0.41089   0.00000  Uiso   1.00
C597   C     0.04330   0.95869   0.41094   0.00000  Uiso   1.00
C598   C     0.45678   0.95868   0.58915   0.00000  Uiso   1.00
C599   C     0.04331   0.70806   0.58915   0.00000  Uiso   1.00
C600   C     0.16438   0.83334   0.50000   0.00000  Uiso   1.00
C601   C     0.33562   0.83333   0.50000   0.00000  Uiso   1.00
C602   C     0.40636   0.87726   0.50184   0.00000  Uiso   1.00
C603   C     0.09364   0.78941   0.50175   0.00000  Uiso   1.00
C604   C     0.40637   0.78941   0.49817   0.00000  Uiso   1.00
C605   C     0.09364   0.87728   0.49825   0.00000  Uiso   1.00
C606   C     0.38369   0.83333   0.50000   0.00000  Uiso   1.00
Cl607  Cl    0.37502   0.93126   0.49585   0.00000  Uiso   1.00
Cl608  Cl    0.12496   0.73539   0.49558   0.00000  Uiso   1.00
Cl609  Cl    0.37505   0.73540   0.50416   0.00000  Uiso   1.00
Cl610  Cl    0.12497   0.93132   0.50442   0.00000  Uiso   1.00
Cu611  Cu    0.25000   0.83333   0.55636   0.00000  Uiso   1.00
Cu612  Cu    0.25000   0.83333   0.44364   0.00000  Uiso   1.00
H613   H     0.49002   0.71459   0.39150   0.00000  Uiso   1.00
H614   H     0.01012   0.71465   0.60858   0.00000  Uiso   1.00
H615   H     0.06688   0.73669   0.60272   0.00000  Uiso   1.00
H616   H     0.05600   0.67342   0.60618   0.00000  Uiso   1.00
H617   H     0.43321   0.73657   0.39722   0.00000  Uiso   1.00
H618   H     0.44418   0.67328   0.39389   0.00000  Uiso   1.00
H619   H     0.01012   0.95209   0.39147   0.00000  Uiso   1.00
H620   H     0.06692   0.93009   0.39736   0.00000  Uiso   1.00
H621   H     0.05598   0.99337   0.39395   0.00000  Uiso   1.00
H622   H     0.49000   0.95212   0.60852   0.00000  Uiso   1.00
H623   H     0.43323   0.93005   0.60281   0.00000  Uiso   1.00
H624   H     0.44410   0.99335   0.60615   0.00000  Uiso   1.00
N625   N     0.25000   0.83333   0.35894   0.00000  Uiso   1.00
N626   N     0.25000   0.83333   0.64106   0.00000  Uiso   1.00
O627   O     0.25000   0.76280   0.54759   0.00000  Uiso   1.00
O628   O     0.04070   0.96204   0.47123   0.00000  Uiso   1.00
O629   O     0.45927   0.96202   0.52886   0.00000  Uiso   1.00
O630   O     0.04073   0.70467   0.52886   0.00000  Uiso   1.00
O631   O     0.25000   0.90387   0.45241   0.00000  Uiso   1.00
O632   O     0.25000   0.90387   0.54759   0.00000  Uiso   1.00
O633   O     0.25000   0.76280   0.45241   0.00000  Uiso   1.00
O634   O     0.18513   0.83333   0.54760   0.00000  Uiso   1.00
O635   O     0.31487   0.83333   0.45240   0.00000  Uiso   1.00
O636   O     0.31487   0.83333   0.54760   0.00000  Uiso   1.00
O637   O     0.18513   0.83333   0.45240   0.00000  Uiso   1.00
O638   O     0.45931   0.70465   0.47118   0.00000  Uiso   1.00
C639   C     0.75000   0.73991   0.50000   0.00000  Uiso   1.00
C640   C     0.61631   0.83334   0.50000   0.00000  Uiso   1.00
C641   C     0.95313   0.78936   0.49607   0.00000  Uiso   1.00
C642   C     0.54687   0.87733   0.49611   0.00000  Uiso   1.00
C643   C     0.95312   0.87732   0.50394   0.00000  Uiso   1.00
C644   C     0.54688   0.78936   0.50391   0.00000  Uiso   1.00
C645   C     0.97647   0.83334   0.50000   0.00000  Uiso   1.00
C646   C     0.52353   0.83334   0.50001   0.00000  Uiso   1.00
C647   C     0.97771   0.74649   0.49203   0.00000  Uiso   1.00
C648   C     0.52230   0.92019   0.49207   0.00000  Uiso   1.00
C649   C     0.97768   0.92018   0.50800   0.00000  Uiso   1.00
C650   C     0.75000   0.92675   0.50000   0.00000  Uiso   1.00
C651   C     0.52232   0.74650   0.50797   0.00000  Uiso   1.00
C652   C     0.75000   0.68835   0.50000   0.00000  Uiso   1.00
C653   C     0.75000   0.97832   0.50000   0.00000  Uiso   1.00
C654   C     0.95681   0.70798   0.41089   0.00000  Uiso   1.00
C655   C     0.54330   0.95869   0.41094   0.00000  Uiso   1.00
C656   C     0.95678   0.95868   0.58915   0.00000  Uiso   1.00
C657   C     0.54331   0.70806   0.58915   0.00000  Uiso   1.00
C658   C     0.66438   0.83334   0.50000   0.00000  Uiso   1.00
C659   C     0.83562   0.83333   0.50000   0.00000  Uiso   1.00
C660   C     0.90636   0.87726   0.50184   0.00000  Uiso   1.00
C661   C     0.59364   0.78941   0.50175   0.00000  Uiso   1.00
C662   C     0.90637   0.78941   0.49817   0.00000  Uiso   1.00
C663   C     0.59364   0.87728   0.49825   0.00000  Uiso   1.00
C664   C     0.88369   0.83333   0.50000   0.00000  Uiso   1.00
Cl665  Cl    0.87502   0.93126   0.49585   0.00000  Uiso   1.00
Cl666  Cl    0.62496   0.73539   0.49558   0.00000  Uiso   1.00
Cl667  Cl    0.87505   0.73540   0.50416   0.00000  Uiso   1.00
Cl668  Cl    0.62497   0.93132   0.50442   0.00000  Uiso   1.00
Cu669  Cu    0.75000   0.83333   0.55636   0.00000  Uiso   1.00
Cu670  Cu    0.75000   0.83333   0.44364   0.00000  Uiso   1.00
H671   H     0.99002   0.71459   0.39150   0.00000  Uiso   1.00
H672   H     0.51012   0.71465   0.60858   0.00000  Uiso   1.00
H673   H     0.56688   0.73669   0.60272   0.00000  Uiso   1.00
H674   H     0.55600   0.67342   0.60618   0.00000  Uiso   1.00
H675   H     0.93321   0.73657   0.39722   0.00000  Uiso   1.00
H676   H     0.94418   0.67328   0.39389   0.00000  Uiso   1.00
H677   H     0.51012   0.95209   0.39147   0.00000  Uiso   1.00
H678   H     0.56692   0.93009   0.39736   0.00000  Uiso   1.00
H679   H     0.55598   0.99337   0.39395   0.00000  Uiso   1.00
H680   H     0.99000   0.95212   0.60852   0.00000  Uiso   1.00
H681   H     0.93323   0.93005   0.60281   0.00000  Uiso   1.00
H682   H     0.94410   0.99335   0.60615   0.00000  Uiso   1.00
N683   N     0.75000   0.83333   0.35894   0.00000  Uiso   1.00
N684   N     0.75000   0.83333   0.64106   0.00000  Uiso   1.00
O685   O     0.75000   0.76280   0.54759   0.00000  Uiso   1.00
O686   O     0.54070   0.96204   0.47123   0.00000  Uiso   1.00
O687   O     0.95927   0.96202   0.52886   0.00000  Uiso   1.00
O688   O     0.54073   0.70467   0.52886   0.00000  Uiso   1.00
O689   O     0.75000   0.90387   0.45241   0.00000  Uiso   1.00
O690   O     0.75000   0.90387   0.54759   0.00000  Uiso   1.00
O691   O     0.75000   0.76280   0.45241   0.00000  Uiso   1.00
O692   O     0.68513   0.83333   0.54760   0.00000  Uiso   1.00
O693   O     0.81487   0.83333   0.45240   0.00000  Uiso   1.00
O694   O     0.81487   0.83333   0.54760   0.00000  Uiso   1.00
O695   O     0.68513   0.83333   0.45240   0.00000  Uiso   1.00
O696   O     0.95931   0.70465   0.47118   0.00000  Uiso   1.00
C697   C     0.25000   0.07325   0.83333   0.00000  Uiso   1.00
C698   C     0.11631   0.16667   0.83333   0.00000  Uiso   1.00
C699   C     0.45313   0.12269   0.82940   0.00000  Uiso   1.00
C700   C     0.04687   0.21066   0.82944   0.00000  Uiso   1.00
C701   C     0.45312   0.21065   0.83728   0.00000  Uiso   1.00
C702   C     0.04688   0.12269   0.83724   0.00000  Uiso   1.00
C703   C     0.47647   0.16667   0.83334   0.00000  Uiso   1.00
C704   C     0.02353   0.16668   0.83334   0.00000  Uiso   1.00
C705   C     0.47771   0.07983   0.82536   0.00000  Uiso   1.00
C706   C     0.02230   0.25352   0.82540   0.00000  Uiso   1.00
C707   C     0.47768   0.25351   0.84133   0.00000  Uiso   1.00
C708   C     0.25000   0.26009   0.83333   0.00000  Uiso   1.00
C709   C     0.02232   0.07983   0.84130   0.00000  Uiso   1.00
C710   C     0.25000   0.02168   0.83333   0.00000  Uiso   1.00
C711   C     0.25000   0.31165   0.83333   0.00000  Uiso   1.00
C712   C     0.45681   0.04131   0.74422   0.00000  Uiso   1.00
C713   C     0.04330   0.29202   0.74427   0.00000  Uiso   1.00
C714   C     0.45678   0.29201   0.92248   0.00000  Uiso   1.00
C715   C     0.04331   0.04140   0.92248   0.00000  Uiso   1.00
C716   C     0.16438   0.16667   0.83333   0.00000  Uiso   1.00
C717   C     0.33562   0.16666   0.83333   0.00000  Uiso   1.00
C718   C     0.40636   0.21059   0.83517   0.00000  Uiso   1.00
C719   C     0.09364   0.12274   0.83509   0.00000  Uiso   1.00
C720   C     0.40637   0.12274   0.83150   0.00000  Uiso   1.00
C721   C     0.09364   0.21061   0.83159   0.00000  Uiso   1.00
C722   C     0.38369   0.16667   0.83334   0.00000  Uiso   1.00
Cl723  Cl    0.37502   0.26460   0.82918   0.00000  Uiso   1.00
Cl724  Cl    0.12496   0.06872   0.82891   0.00000  Uiso   1.00
Cl725  Cl    0.37505   0.06874   0.83749   0.00000  Uiso   1.00
Cl726  Cl    0.12497   0.26465   0.83776   0.00000  Uiso   1.00
Cu727  Cu    0.25000   0.16667   0.88969   0.00000  Uiso   1.00
Cu728  Cu    0.25000   0.16667   0.77697   0.00000  Uiso   1.00
H729   H     0.49002   0.04792   0.72484   0.00000  Uiso   1.00
H730   H     0.01012   0.04799   0.94191   0.00000  Uiso   1.00
H731   H     0.06688   0.07002   0.93606   0.00000  Uiso   1.00
H732   H     0.05600   0.00675   0.93952   0.00000  Uiso   1.00
H733   H     0.43321   0.06990   0.73056   0.00000  Uiso   1.00
H734   H     0.44418   0.00662   0.72722   0.00000  Uiso   1.00
H735   H     0.01012   0.28542   0.72480   0.00000  Uiso   1.00
H736   H     0.06692   0.26343   0.73069   0.00000  Uiso   1.00
H737   H     0.05598   0.32671   0.72728   0.00000  Uiso   1.00
H738   H     0.49000   0.28545   0.94185   0.00000  Uiso   1.00
H739   H     0.43323   0.26339   0.93614   0.00000  Uiso   1.00
H740   H     0.44410   0.32668   0.93948   0.00000  Uiso   1.00
N741   N     0.25000   0.16667   0.69227   0.00000  Uiso   1.00
N742   N     0.25000   0.16667   0.97439   0.00000  Uiso   1.00
O743   O     0.25000   0.09613   0.88092   0.00000  Uiso   1.00
O744   O     0.04070   0.29537   0.80456   0.00000  Uiso   1.00
O745   O     0.45927   0.29535   0.86219   0.00000  Uiso   1.00
O746   O     0.04073   0.03800   0.86219   0.00000  Uiso   1.00
O747   O     0.25000   0.23720   0.78575   0.00000  Uiso   1.00
O748   O     0.25000   0.23720   0.88092   0.00000  Uiso   1.00
O749   O     0.25000   0.09613   0.78575   0.00000  Uiso   1.00
O750   O     0.18513   0.16667   0.88093   0.00000  Uiso   1.00
O751   O     0.31487   0.16667   0.78573   0.00000  Uiso   1.00
O752   O     0.31487   0.16667   0.88093   0.00000  Uiso   1.00
O753   O     0.18513   0.16667   0.78573   0.00000  Uiso   1.00
O754   O     0.45931   0.03798   0.80451   0.00000  Uiso   1.00
C755   C     0.75000   0.07325   0.83333   0.00000  Uiso   1.00
C756   C     0.61631   0.16667   0.83333   0.00000  Uiso   1.00
C757   C     0.95313   0.12269   0.82940   0.00000  Uiso   1.00
C758   C     0.54687   0.21066   0.82944   0.00000  Uiso   1.00
C759   C     0.95312   0.21065   0.83728   0.00000  Uiso   1.00
C760   C     0.54688   0.12269   0.83724   0.00000  Uiso   1.00
C761   C     0.97647   0.16667   0.83334   0.00000  Uiso   1.00
C762   C     0.52353   0.16668   0.83334   0.00000  Uiso   1.00
C763   C     0.97771   0.07983   0.82536   0.00000  Uiso   1.00
C764   C     0.52230   0.25352   0.82540   0.00000  Uiso   1.00
C765   C     0.97768   0.25351   0.84133   0.00000  Uiso   1.00
C766   C     0.75000   0.26009   0.83333   0.00000  Uiso   1.00
C767   C     0.52232   0.07983   0.84130   0.00000  Uiso   1.00
C768   C     0.75000   0.02168   0.83333   0.00000  Uiso   1.00
C769   C     0.75000   0.31165   0.83333   0.00000  Uiso   1.00
C770   C     0.95681   0.04131   0.74422   0.00000  Uiso   1.00
C771   C     0.54330   0.29202   0.74427   0.00000  Uiso   1.00
C772   C     0.95678   0.29201   0.92248   0.00000  Uiso   1.00
C773   C     0.54331   0.04140   0.92248   0.00000  Uiso   1.00
C774   C     0.66438   0.16667   0.83333   0.00000  Uiso   1.00
C775   C     0.83562   0.16666   0.83333   0.00000  Uiso   1.00
C776   C     0.90636   0.21059   0.83517   0.00000  Uiso   1.00
C777   C     0.59364   0.12274   0.83509   0.00000  Uiso   1.00
C778   C     0.90637   0.12274   0.83150   0.00000  Uiso   1.00
C779   C     0.59364   0.21061   0.83159   0.00000  Uiso   1.00
C780   C     0.88369   0.16667   0.83334   0.00000  Uiso   1.00
Cl781  Cl    0.87502   0.26460   0.82918   0.00000  Uiso   1.00
Cl782  Cl    0.62496   0.06872   0.82891   0.00000  Uiso   1.00
Cl783  Cl    0.87505   0.06874   0.83749   0.00000  Uiso   1.00
Cl784  Cl    0.62497   0.26465   0.83776   0.00000  Uiso   1.00
Cu785  Cu    0.75000   0.16667   0.88969   0.00000  Uiso   1.00
Cu786  Cu    0.75000   0.16667   0.77697   0.00000  Uiso   1.00
H787   H     0.99002   0.04792   0.72484   0.00000  Uiso   1.00
H788   H     0.51012   0.04799   0.94191   0.00000  Uiso   1.00
H789   H     0.56688   0.07002   0.93606   0.00000  Uiso   1.00
H790   H     0.55600   0.00675   0.93952   0.00000  Uiso   1.00
H791   H     0.93321   0.06990   0.73056   0.00000  Uiso   1.00
H792   H     0.94418   0.00662   0.72722   0.00000  Uiso   1.00
H793   H     0.51012   0.28542   0.72480   0.00000  Uiso   1.00
H794   H     0.56692   0.26343   0.73069   0.00000  Uiso   1.00
H795   H     0.55598   0.32671   0.72728   0.00000  Uiso   1.00
H796   H     0.99000   0.28545   0.94185   0.00000  Uiso   1.00
H797   H     0.93323   0.26339   0.93614   0.00000  Uiso   1.00
H798   H     0.94410   0.32668   0.93948   0.00000  Uiso   1.00
N799   N     0.75000   0.16667   0.69227   0.00000  Uiso   1.00
N800   N     0.75000   0.16667   0.97439   0.00000  Uiso   1.00
O801   O     0.75000   0.09613   0.88092   0.00000  Uiso   1.00
O802   O     0.54070   0.29537   0.80456   0.00000  Uiso   1.00
O803   O     0.95927   0.29535   0.86219   0.00000  Uiso   1.00
O804   O     0.54073   0.03800   0.86219   0.00000  Uiso   1.00
O805   O     0.75000   0.23720   0.78575   0.00000  Uiso   1.00
O806   O     0.75000   0.23720   0.88092   0.00000  Uiso   1.00
O807   O     0.75000   0.09613   0.78575   0.00000  Uiso   1.00
O808   O     0.68513   0.16667   0.88093   0.00000  Uiso   1.00
O809   O     0.81487   0.16667   0.78573   0.00000  Uiso   1.00
O810   O     0.81487   0.16667   0.88093   0.00000  Uiso   1.00
O811   O     0.68513   0.16667   0.78573   0.00000  Uiso   1.00
O812   O     0.95931   0.03798   0.80451   0.00000  Uiso   1.00
C813   C     0.25000   0.40658   0.83333   0.00000  Uiso   1.00
C814   C     0.11631   0.50001   0.83333   0.00000  Uiso   1.00
C815   C     0.45313   0.45602   0.82940   0.00000  Uiso   1.00
C816   C     0.04687   0.54400   0.82944   0.00000  Uiso   1.00
C817   C     0.45312   0.54398   0.83728   0.00000  Uiso   1.00
C818   C     0.04688   0.45603   0.83724   0.00000  Uiso   1.00
C819   C     0.47647   0.50001   0.83334   0.00000  Uiso   1.00
C820   C     0.02353   0.50001   0.83334   0.00000  Uiso   1.00
C821   C     0.47771   0.41316   0.82536   0.00000  Uiso   1.00
C822   C     0.02230   0.58686   0.82540   0.00000  Uiso   1.00
C823   C     0.47768   0.58685   0.84133   0.00000  Uiso   1.00
C824   C     0.25000   0.59342   0.83333   0.00000  Uiso   1.00
C825   C     0.02232   0.41316   0.84130   0.00000  Uiso   1.00
C826   C     0.25000   0.35501   0.83333   0.00000  Uiso   1.00
C827   C     0.25000   0.64499   0.83333   0.00000  Uiso   1.00
C828   C     0.45681   0.37464   0.74422   0.00000  Uiso   1.00
C829   C     0.04330   0.62536   0.74427   0.00000  Uiso   1.00
C830   C     0.45678   0.62535   0.92248   0.00000  Uiso   1.00
C831   C     0.04331   0.37473   0.92248   0.00000  Uiso   1.00
C832   C     0.16438   0.50000   0.83333   0.00000  Uiso   1.00
C833   C     0.33562   0.50000   0.83333   0.00000  Uiso   1.00
C834   C     0.40636   0.54393   0.83517   0.00000  Uiso   1.00
C835   C     0.09364   0.45607   0.83509   0.00000  Uiso   1.00
C836   C     0.40637   0.45608   0.83150   0.00000  Uiso   1.00
C837   C     0.09364   0.54395   0.83159   0.00000  Uiso   1.00
C838   C     0.38369   0.50000   0.83334   0.00000  Uiso   1.00
Cl839  Cl    0.37502   0.59793   0.82918   0.00000  Uiso   1.00
Cl840  Cl    0.12496   0.40205   0.82891   0.00000  Uiso   1.00
Cl841  Cl    0.37505   0.40207   0.83749   0.00000  Uiso   1.00
Cl842  Cl    0.12497   0.59799   0.83776   0.00000  Uiso   1.00
Cu843  Cu    0.25000   0.50000   0.88969   0.00000  Uiso   1.00
Cu844  Cu    0.25000   0.50000   0.77697   0.00000  Uiso   1.00
H845   H     0.49002   0.38125   0.72484   0.00000  Uiso   1.00
H846   H     0.01012   0.38132   0.94191   0.00000  Uiso   1.00
H847   H     0.06688   0.40336   0.93606   0.00000  Uiso   1.00
H848   H     0.05600   0.34009   0.93952   0.00000  Uiso   1.00
H849   H     0.43321   0.40324   0.73056   0.00000  Uiso   1.00
H850   H     0.44418   0.33995   0.72722   0.00000  Uiso   1.00
H851   H     0.01012   0.61875   0.72480   0.00000  Uiso   1.00
H852   H     0.06692   0.59676   0.73069   0.00000  Uiso   1.00
H853   H     0.05598   0.66004   0.72728   0.00000  Uiso   1.00
H854   H     0.49000   0.61879   0.94185   0.00000  Uiso   1.00
H855   H     0.43323   0.59672   0.93614   0.00000  Uiso   1.00
H856   H     0.44410   0.66001   0.93948   0.00000  Uiso   1.00
N857   N     0.25000   0.50000   0.69227   0.00000  Uiso   1.00
N858   N     0.25000   0.50000   0.97439   0.00000  Uiso   1.00
O859   O     0.25000   0.42946   0.88092   0.00000  Uiso   1.00
O860   O     0.04070   0.62870   0.80456   0.00000  Uiso   1.00
O861   O     0.45927   0.62868   0.86219   0.00000  Uiso   1.00
O862   O     0.04073   0.37133   0.86219   0.00000  Uiso   1.00
O863   O     0.25000   0.57054   0.78575   0.00000  Uiso   1.00
O864   O     0.25000   0.57054   0.88092   0.00000  Uiso   1.00
O865   O     0.25000   0.42946   0.78575   0.00000  Uiso   1.00
O866   O     0.18513   0.50000   0.88093   0.00000  Uiso   1.00
O867   O     0.31487   0.50000   0.78573   0.00000  Uiso   1.00
O868   O     0.31487   0.50000   0.88093   0.00000  Uiso   1.00
O869   O     0.18513   0.50000   0.78573   0.00000  Uiso   1.00
O870   O     0.45931   0.37132   0.80451   0.00000  Uiso   1.00
C871   C     0.75000   0.40658   0.83333   0.00000  Uiso   1.00
C872   C     0.61631   0.50001   0.83333   0.00000  Uiso   1.00
C873   C     0.95313   0.45602   0.82940   0.00000  Uiso   1.00
C874   C     0.54687   0.54400   0.82944   0.00000  Uiso   1.00
C875   C     0.95312   0.54398   0.83728   0.00000  Uiso   1.00
C876   C     0.54688   0.45603   0.83724   0.00000  Uiso   1.00
C877   C     0.97647   0.50001   0.83334   0.00000  Uiso   1.00
C878   C     0.52353   0.50001   0.83334   0.00000  Uiso   1.00
C879   C     0.97771   0.41316   0.82536   0.00000  Uiso   1.00
C880   C     0.52230   0.58686   0.82540   0.00000  Uiso   1.00
C881   C     0.97768   0.58685   0.84133   0.00000  Uiso   1.00
C882   C     0.75000   0.59342   0.83333   0.00000  Uiso   1.00
C883   C     0.52232   0.41316   0.84130   0.00000  Uiso   1.00
C884   C     0.75000   0.35501   0.83333   0.00000  Uiso   1.00
C885   C     0.75000   0.64499   0.83333   0.00000  Uiso   1.00
C886   C     0.95681   0.37464   0.74422   0.00000  Uiso   1.00
C887   C     0.54330   0.62536   0.74427   0.00000  Uiso   1.00
C888   C     0.95678   0.62535   0.92248   0.00000  Uiso   1.00
C889   C     0.54331   0.37473   0.92248   0.00000  Uiso   1.00
C890   C     0.66438   0.50000   0.83333   0.00000  Uiso   1.00
C891   C     0.83562   0.50000   0.83333   0.00000  Uiso   1.00
C892   C     0.90636   0.54393   0.83517   0.00000  Uiso   1.00
C893   C     0.59364   0.45607   0.83509   0.00000  Uiso   1.00
C894   C     0.90637   0.45608   0.83150   0.00000  Uiso   1.00
C895   C     0.59364   0.54395   0.83159   0.00000  Uiso   1.00
C896   C     0.88369   0.50000   0.83334   0.00000  Uiso   1.00
Cl897  Cl    0.87502   0.59793   0.82918   0.00000  Uiso   1.00
Cl898  Cl    0.62496   0.40205   0.82891   0.00000  Uiso   1.00
Cl899  Cl    0.87505   0.40207   0.83749   0.00000  Uiso   1.00
Cl900  Cl    0.62497   0.59799   0.83776   0.00000  Uiso   1.00
Cu901  Cu    0.75000   0.50000   0.88969   0.00000  Uiso   1.00
Cu902  Cu    0.75000   0.50000   0.77697   0.00000  Uiso   1.00
H903   H     0.99002   0.38125   0.72484   0.00000  Uiso   1.00
H904   H     0.51012   0.38132   0.94191   0.00000  Uiso   1.00
H905   H     0.56688   0.40336   0.93606   0.00000  Uiso   1.00
H906   H     0.55600   0.34009   0.93952   0.00000  Uiso   1.00
H907   H     0.93321   0.40324   0.73056   0.00000  Uiso   1.00
H908   H     0.94418   0.33995   0.72722   0.00000  Uiso   1.00
H909   H     0.51012   0.61875   0.72480   0.00000  Uiso   1.00
H910   H     0.56692   0.59676   0.73069   0.00000  Uiso   1.00
H911   H     0.55598   0.66004   0.72728   0.00000  Uiso   1.00
H912   H     0.99000   0.61879   0.94185   0.00000  Uiso   1.00
H913   H     0.93323   0.59672   0.93614   0.00000  Uiso   1.00
H914   H     0.94410   0.66001   0.93948   0.00000  Uiso   1.00
N915   N     0.75000   0.50000   0.69227   0.00000  Uiso   1.00
N916   N     0.75000   0.50000   0.97439   0.00000  Uiso   1.00
O917   O     0.75000   0.42946   0.88092   0.00000  Uiso   1.00
O918   O     0.54070   0.62870   0.80456   0.00000  Uiso   1.00
O919   O     0.95927   0.62868   0.86219   0.00000  Uiso   1.00
O920   O     0.54073   0.37133   0.86219   0.00000  Uiso   1.00
O921   O     0.75000   0.57054   0.78575   0.00000  Uiso   1.00
O922   O     0.75000   0.57054   0.88092   0.00000  Uiso   1.00
O923   O     0.75000   0.42946   0.78575   0.00000  Uiso   1.00
O924   O     0.68513   0.50000   0.88093   0.00000  Uiso   1.00
O925   O     0.81487   0.50000   0.78573   0.00000  Uiso   1.00
O926   O     0.81487   0.50000   0.88093   0.00000  Uiso   1.00
O927   O     0.68513   0.50000   0.78573   0.00000  Uiso   1.00
O928   O     0.95931   0.37132   0.80451   0.00000  Uiso   1.00
C929   C     0.25000   0.73991   0.83333   0.00000  Uiso   1.00
C930   C     0.11631   0.83334   0.83333   0.00000  Uiso   1.00
C931   C     0.45313   0.78936   0.82940   0.00000  Uiso   1.00
C932   C     0.04687   0.87733   0.82944   0.00000  Uiso   1.00
C933   C     0.45312   0.87732   0.83728   0.00000  Uiso   1.00
C934   C     0.04688   0.78936   0.83724   0.00000  Uiso   1.00
C935   C     0.47647   0.83334   0.83334   0.00000  Uiso   1.00
C936   C     0.02353   0.83334   0.83334   0.00000  Uiso   1.00
C937   C     0.47771   0.74649   0.82536   0.00000  Uiso   1.00
C938   C     0.02230   0.92019   0.82540   0.00000  Uiso   1.00
C939   C     0.47768   0.92018   0.84133   0.00000  Uiso   1.00
C940   C     0.25000   0.92675   0.83333   0.00000  Uiso   1.00
C941   C     0.02232   0.74650   0.84130   0.00000  Uiso   1.00
C942   C     0.25000   0.68835   0.83333   0.00000  Uiso   1.00
C943   C     0.25000   0.97832   0.83333   0.00000  Uiso   1.00
C944   C     0.45681   0.70798   0.74422   0.00000  Uiso   1.00
C945   C     0.04330   0.95869   0.74427   0.00000  Uiso   1.00
C946   C     0.45678   0.95868   0.92248   0.00000  Uiso   1.00
C947   C     0.04331   0.70806   0.92248   0.00000  Uiso   1.00
C948   C     0.16438   0.83334   0.83333   0.00000  Uiso   1.00
C949   C     0.33562   0.83333   0.83333   0.00000  Uiso   1.00
C950   C     0.40636   0.87726   0.83517   0.00000  Uiso   1.00
C951   C     0.09364   0.78941   0.83509   0.00000  Uiso   1.00
C952   C     0.40637   0.78941   0.83150   0.00000  Uiso   1.00
C953   C     0.09364   0.87728   0.83159   0.00000  Uiso   1.00
C954   C     0.38369   0.83333   0.83334   0.00000  Uiso   1.00
Cl955  Cl    0.37502   0.93126   0.82918   0.00000  Uiso   1.00
Cl956  Cl    0.12496   0.73539   0.82891   0.00000  Uiso   1.00
Cl957  Cl    0.37505   0.73540   0.83749   0.00000  Uiso   1.00
Cl958  Cl    0.12497   0.93132   0.83776   0.00000  Uiso   1.00
Cu959  Cu    0.25000   0.83333   0.88969   0.00000  Uiso   1.00
Cu960  Cu    0.25000   0.83333   0.77697   0.00000  Uiso   1.00
H961   H     0.49002   0.71459   0.72484   0.00000  Uiso   1.00
H962   H     0.01012   0.71465   0.94191   0.00000  Uiso   1.00
H963   H     0.06688   0.73669   0.93606   0.00000  Uiso   1.00
H964   H     0.05600   0.67342   0.93952   0.00000  Uiso   1.00
H965   H     0.43321   0.73657   0.73056   0.00000  Uiso   1.00
H966   H     0.44418   0.67328   0.72722   0.00000  Uiso   1.00
H967   H     0.01012   0.95209   0.72480   0.00000  Uiso   1.00
H968   H     0.06692   0.93009   0.73069   0.00000  Uiso   1.00
H969   H     0.05598   0.99337   0.72728   0.00000  Uiso   1.00
H970   H     0.49000   0.95212   0.94185   0.00000  Uiso   1.00
H971   H     0.43323   0.93005   0.93614   0.00000  Uiso   1.00
H972   H     0.44410   0.99335   0.93948   0.00000  Uiso   1.00
N973   N     0.25000   0.83333   0.69227   0.00000  Uiso   1.00
N974   N     0.25000   0.83333   0.97439   0.00000  Uiso   1.00
O975   O     0.25000   0.76280   0.88092   0.00000  Uiso   1.00
O976   O     0.04070   0.96204   0.80456   0.00000  Uiso   1.00
O977   O     0.45927   0.96202   0.86219   0.00000  Uiso   1.00
O978   O     0.04073   0.70467   0.86219   0.00000  Uiso   1.00
O979   O     0.25000   0.90387   0.78575   0.00000  Uiso   1.00
O980   O     0.25000   0.90387   0.88092   0.00000  Uiso   1.00
O981   O     0.25000   0.76280   0.78575   0.00000  Uiso   1.00
O982   O     0.18513   0.83333   0.88093   0.00000  Uiso   1.00
O983   O     0.31487   0.83333   0.78573   0.00000  Uiso   1.00
O984   O     0.31487   0.83333   0.88093   0.00000  Uiso   1.00
O985   O     0.18513   0.83333   0.78573   0.00000  Uiso   1.00
O986   O     0.45931   0.70465   0.80451   0.00000  Uiso   1.00
C987   C     0.75000   0.73991   0.83333   0.00000  Uiso   1.00
C988   C     0.61631   0.83334   0.83333   0.00000  Uiso   1.00
C989   C     0.95313   0.78936   0.82940   0.00000  Uiso   1.00
C990   C     0.54687   0.87733   0.82944   0.00000  Uiso   1.00
C991   C     0.95312   0.87732   0.83728   0.00000  Uiso   1.00
C992   C     0.54688   0.78936   0.83724   0.00000  Uiso   1.00
C993   C     0.97647   0.83334   0.83334   0.00000  Uiso   1.00
C994   C     0.52353   0.83334   0.83334   0.00000  Uiso   1.00
C995   C     0.97771   0.74649   0.82536   0.00000  Uiso   1.00
C996   C     0.52230   0.92019   0.82540   0.00000  Uiso   1.00
C997   C     0.97768   0.92018   0.84133   0.00000  Uiso   1.00
C998   C     0.75000   0.92675   0.83333   0.00000  Uiso   1.00
C999   C     0.52232   0.74650   0.84130   0.00000  Uiso   1.00
C1000  C     0.75000   0.68835   0.83333   0.00000  Uiso   1.00
C1001  C     0.75000   0.97832   0.83333   0.00000  Uiso   1.00
C1002  C     0.95681   0.70798   0.74422   0.00000  Uiso   1.00
C1003  C     0.54330   0.95869   0.74427   0.00000  Uiso   1.00
C1004  C     0.95678   0.95868   0.92248   0.00000  Uiso   1.00
C1005  C     0.54331   0.70806   0.92248   0.00000  Uiso   1.00
C1006  C     0.66438   0.83334   0.83333   0.00000  Uiso   1.00
C1007  C     0.83562   0.83333   0.83333   0.00000  Uiso   1.00
C1008  C     0.90636   0.87726   0.83517   0.00000  Uiso   1.00
C1009  C     0.59364   0.78941   0.83509   0.00000  Uiso   1.00
C1010  C     0.90637   0.78941   0.83150   0.00000  Uiso   1.00
C1011  C     0.59364   0.87728   0.83159   0.00000  Uiso   1.00
C1012  C     0.88369   0.83333   0.83334   0.00000  Uiso   1.00
Cl1013 Cl    0.87502   0.93126   0.82918   0.00000  Uiso   1.00
Cl1014 Cl    0.62496   0.73539   0.82891   0.00000  Uiso   1.00
Cl1015 Cl    0.87505   0.73540   0.83749   0.00000  Uiso   1.00
Cl1016 Cl    0.62497   0.93132   0.83776   0.00000  Uiso   1.00
Cu1017 Cu    0.75000   0.83333   0.88969   0.00000  Uiso   1.00
Cu1018 Cu    0.75000   0.83333   0.77697   0.00000  Uiso   1.00
H1019  H     0.99002   0.71459   0.72484   0.00000  Uiso   1.00
H1020  H     0.51012   0.71465   0.94191   0.00000  Uiso   1.00
H1021  H     0.56688   0.73669   0.93606   0.00000  Uiso   1.00
H1022  H     0.55600   0.67342   0.93952   0.00000  Uiso   1.00
H1023  H     0.93321   0.73657   0.73056   0.00000  Uiso   1.00
H1024  H     0.94418   0.67328   0.72722   0.00000  Uiso   1.00
H1025  H     0.51012   0.95209   0.72480   0.00000  Uiso   1.00
H1026  H     0.56692   0.93009   0.73069   0.00000  Uiso   1.00
H1027  H     0.55598   0.99337   0.72728   0.00000  Uiso   1.00
H1028  H     0.99000   0.95212   0.94185   0.00000  Uiso   1.00
H1029  H     0.93323   0.93005   0.93614   0.00000  Uiso   1.00
H1030  H     0.94410   0.99335   0.93948   0.00000  Uiso   1.00
N1031  N     0.75000   0.83333   0.69227   0.00000  Uiso   1.00
N1032  N     0.75000   0.83333   0.97439   0.00000  Uiso   1.00
O1033  O     0.75000   0.76280   0.88092   0.00000  Uiso   1.00
O1034  O     0.54070   0.96204   0.80456   0.00000  Uiso   1.00
O1035  O     0.95927   0.96202   0.86219   0.00000  Uiso   1.00
O1036  O     0.54073   0.70467   0.86219   0.00000  Uiso   1.00
O1037  O     0.75000   0.90387   0.78575   0.00000  Uiso   1.00
O1038  O     0.75000   0.90387   0.88092   0.00000  Uiso   1.00
O1039  O     0.75000   0.76280   0.78575   0.00000  Uiso   1.00
O1040  O     0.68513   0.83333   0.88093   0.00000  Uiso   1.00
O1041  O     0.81487   0.83333   0.78573   0.00000  Uiso   1.00
O1042  O     0.81487   0.83333   0.88093   0.00000  Uiso   1.00
O1043  O     0.68513   0.83333   0.78573   0.00000  Uiso   1.00
O1044  O     0.95931   0.70465   0.80451   0.00000  Uiso   1.00
loop_
_geom_bond_atom_site_label_1
_geom_bond_atom_site_label_2
_geom_bond_distance
_geom_bond_site_symmetry_2
_ccdc_geom_bond_type
C1     O53     1.280   .     A
C1     O47     1.280   .     A
C1     C14     1.432   .     S
C2     C25     1.399   .     A
C2     C20     1.448   .     S
C2     C23     1.399   .     A
C3     C9      1.405   .     A
C3     C24     1.410   .     A
C3     C7      1.412   .     A
C4     C8      1.412   .     A
C4     C25     1.410   .     A
C4     C10     1.405   .     A
C5     C7      1.412   .     A
C5     C11     1.405   .     A
C5     C22     1.410   .     A
C6     C13     1.405   .     A
C6     C23     1.410   .     A
C6     C8      1.412   .     A
C7     C66     1.418   .     S
C8     C65     1.418   1_455 S
C9     O58     1.376   .     S
C9     C71     1.395   .     S
C10    O48     1.376   .     S
C10    C69     1.395   1_455 S
C11    O49     1.376   .     S
C11    C68     1.395   .     S
C12    C15     1.432   .     S
C12    O52     1.280   .     A
C12    O51     1.280   .     A
C13    O50     1.376   .     S
C13    C67     1.395   1_455 S
C14    C247    1.204   1_545 S
C15    C130    1.204   .     S
C16    H37     1.112   .     S
C16    O58     1.412   .     S
C16    H33     1.113   .     S
C16    H38     1.109   .     S
C17    O48     1.412   .     S
C17    H41     1.109   .     S
C17    H39     1.113   .     S
C17    H40     1.112   .     S
C18    H44     1.109   .     S
C18    H42     1.113   .     S
C18    H43     1.112   .     S
C18    O49     1.412   .     S
C19    O50     1.412   .     S
C19    H35     1.112   .     S
C19    H36     1.109   .     S
C19    H34     1.113   .     S
C20    O54     1.275   .     A
C20    O57     1.275   .     A
C21    O56     1.275   .     A
C21    C26     1.448   .     S
C21    O55     1.275   .     A
C22    C26     1.399   .     A
C22    Cl27    1.778   .     S
C23    Cl28    1.778   .     S
C24    C26     1.399   .     A
C24    Cl29    1.777   .     S
C25    Cl30    1.779   .     S
Cu31   O56     1.965   .     S
Cu31   Cu32    2.631   .     S
Cu31   O52     1.969   .     S
Cu31   O47     1.969   .     S
Cu31   O54     1.965   .     S
Cu31   N46     1.977   .     S
Cu32   O51     1.969   .     S
Cu32   N45     1.977   .     S
Cu32   O55     1.965   .     S
Cu32   O57     1.965   .     S
Cu32   O53     1.969   .     S
N45    N742    1.195   1_554 S
N46    N393    1.195   .     S
C59    O111    1.280   .     A
C59    O105    1.280   .     A
C59    C72     1.432   .     S
C60    C83     1.399   .     A
C60    C78     1.448   .     S
C60    C81     1.399   .     A
C61    C67     1.405   .     A
C61    C82     1.410   .     A
C61    C65     1.412   .     A
C62    C66     1.412   .     A
C62    C83     1.410   .     A
C62    C68     1.405   .     A
C63    C65     1.412   .     A
C63    C69     1.405   .     A
C63    C80     1.410   .     A
C64    C71     1.405   .     A
C64    C81     1.410   .     A
C64    C66     1.412   .     A
C65    C8      1.418   1_655 S
C67    O116    1.376   .     S
C67    C13     1.395   1_655 S
C68    O106    1.376   .     S
C69    O107    1.376   .     S
C69    C10     1.395   1_655 S
C70    C73     1.432   .     S
C70    O110    1.280   .     A
C70    O109    1.280   .     A
C71    O108    1.376   .     S
C72    C305    1.204   1_545 S
C73    C188    1.204   .     S
C74    H95     1.112   .     S
C74    O116    1.412   .     S
C74    H91     1.113   .     S
C74    H96     1.109   .     S
C75    O106    1.412   .     S
C75    H99     1.109   .     S
C75    H97     1.113   .     S
C75    H98     1.112   .     S
C76    H102    1.109   .     S
C76    H100    1.113   .     S
C76    H101    1.112   .     S
C76    O107    1.412   .     S
C77    O108    1.412   .     S
C77    H93     1.112   .     S
C77    H94     1.109   .     S
C77    H92     1.113   .     S
C78    O112    1.275   .     A
C78    O115    1.275   .     A
C79    O114    1.275   .     A
C79    C84     1.448   .     S
C79    O113    1.275   .     A
C80    C84     1.399   .     A
C80    Cl85    1.778   .     S
C81    Cl86    1.778   .     S
C82    C84     1.399   .     A
C82    Cl87    1.777   .     S
C83    Cl88    1.779   .     S
Cu89   O114    1.965   .     S
Cu89   Cu90    2.631   .     S
Cu89   O110    1.969   .     S
Cu89   O105    1.969   .     S
Cu89   O112    1.965   .     S
Cu89   N104    1.977   .     S
Cu90   O109    1.969   .     S
Cu90   N103    1.977   .     S
Cu90   O113    1.965   .     S
Cu90   O115    1.965   .     S
Cu90   O111    1.969   .     S
N103   N800    1.195   1_554 S
N104   N451    1.195   .     S
C117   O169    1.280   .     A
C117   O163    1.280   .     A
C117   C130    1.432   .     S
C118   C141    1.399   .     A
C118   C136    1.448   .     S
C118   C139    1.399   .     A
C119   C125    1.405   .     A
C119   C140    1.410   .     A
C119   C123    1.412   .     A
C120   C124    1.412   .     A
C120   C141    1.410   .     A
C120   C126    1.405   .     A
C121   C123    1.412   .     A
C121   C127    1.405   .     A
C121   C138    1.410   .     A
C122   C129    1.405   .     A
C122   C139    1.410   .     A
C122   C124    1.412   .     A
C123   C182    1.418   .     S
C124   C181    1.418   1_455 S
C125   O174    1.376   .     S
C125   C187    1.395   .     S
C126   O164    1.376   .     S
C126   C185    1.395   1_455 S
C127   O165    1.376   .     S
C127   C184    1.395   .     S
C128   C131    1.432   .     S
C128   O168    1.280   .     A
C128   O167    1.280   .     A
C129   O166    1.376   .     S
C129   C183    1.395   1_455 S
C131   C246    1.204   .     S
C132   H153    1.112   .     S
C132   O174    1.412   .     S
C132   H149    1.113   .     S
C132   H154    1.109   .     S
C133   O164    1.412   .     S
C133   H157    1.109   .     S
C133   H155    1.113   .     S
C133   H156    1.112   .     S
C134   H160    1.109   .     S
C134   H158    1.113   .     S
C134   H159    1.112   .     S
C134   O165    1.412   .     S
C135   O166    1.412   .     S
C135   H151    1.112   .     S
C135   H152    1.109   .     S
C135   H150    1.113   .     S
C136   O170    1.275   .     A
C136   O173    1.275   .     A
C137   O172    1.275   .     A
C137   C142    1.448   .     S
C137   O171    1.275   .     A
C138   C142    1.399   .     A
C138   Cl143   1.778   .     S
C139   Cl144   1.778   .     S
C140   C142    1.399   .     A
C140   Cl145   1.777   .     S
C141   Cl146   1.779   .     S
Cu147  O172    1.965   .     S
Cu147  Cu148   2.631   .     S
Cu147  O168    1.969   .     S
Cu147  O163    1.969   .     S
Cu147  O170    1.965   .     S
Cu147  N162    1.977   .     S
Cu148  O167    1.969   .     S
Cu148  N161    1.977   .     S
Cu148  O171    1.965   .     S
Cu148  O173    1.965   .     S
Cu148  O169    1.969   .     S
N161   N858    1.195   1_554 S
N162   N509    1.195   .     S
C175   O227    1.280   .     A
C175   O221    1.280   .     A
C175   C188    1.432   .     S
C176   C199    1.399   .     A
C176   C194    1.448   .     S
C176   C197    1.399   .     A
C177   C183    1.405   .     A
C177   C198    1.410   .     A
C177   C181    1.412   .     A
C178   C182    1.412   .     A
C178   C199    1.410   .     A
C178   C184    1.405   .     A
C179   C181    1.412   .     A
C179   C185    1.405   .     A
C179   C196    1.410   .     A
C180   C187    1.405   .     A
C180   C197    1.410   .     A
C180   C182    1.412   .     A
C181   C124    1.418   1_655 S
C183   O232    1.376   .     S
C183   C129    1.395   1_655 S
C184   O222    1.376   .     S
C185   O223    1.376   .     S
C185   C126    1.395   1_655 S
C186   C189    1.432   .     S
C186   O226    1.280   .     A
C186   O225    1.280   .     A
C187   O224    1.376   .     S
C189   C304    1.204   .     S
C190   H211    1.112   .     S
C190   O232    1.412   .     S
C190   H207    1.113   .     S
C190   H212    1.109   .     S
C191   O222    1.412   .     S
C191   H215    1.109   .     S
C191   H213    1.113   .     S
C191   H214    1.112   .     S
C192   H218    1.109   .     S
C192   H216    1.113   .     S
C192   H217    1.112   .     S
C192   O223    1.412   .     S
C193   O224    1.412   .     S
C193   H209    1.112   .     S
C193   H210    1.109   .     S
C193   H208    1.113   .     S
C194   O228    1.275   .     A
C194   O231    1.275   .     A
C195   O230    1.275   .     A
C195   C200    1.448   .     S
C195   O229    1.275   .     A
C196   C200    1.399   .     A
C196   Cl201   1.778   .     S
C197   Cl202   1.778   .     S
C198   C200    1.399   .     A
C198   Cl203   1.777   .     S
C199   Cl204   1.779   .     S
Cu205  O230    1.965   .     S
Cu205  Cu206   2.631   .     S
Cu205  O226    1.969   .     S
Cu205  O221    1.969   .     S
Cu205  O228    1.965   .     S
Cu205  N220    1.977   .     S
Cu206  O225    1.969   .     S
Cu206  N219    1.977   .     S
Cu206  O229    1.965   .     S
Cu206  O231    1.965   .     S
Cu206  O227    1.969   .     S
N219   N916    1.195   1_554 S
N220   N567    1.195   .     S
C233   O285    1.280   .     A
C233   O279    1.280   .     A
C233   C246    1.432   .     S
C234   C257    1.399   .     A
C234   C252    1.448   .     S
C234   C255    1.399   .     A
C235   C241    1.405   .     A
C235   C256    1.410   .     A
C235   C239    1.412   .     A
C236   C240    1.412   .     A
C236   C257    1.410   .     A
C236   C242    1.405   .     A
C237   C239    1.412   .     A
C237   C243    1.405   .     A
C237   C254    1.410   .     A
C238   C245    1.405   .     A
C238   C255    1.410   .     A
C238   C240    1.412   .     A
C239   C298    1.418   .     S
C240   C297    1.418   1_455 S
C241   O290    1.376   .     S
C241   C303    1.395   .     S
C242   O280    1.376   .     S
C242   C301    1.395   1_455 S
C243   O281    1.376   .     S
C243   C300    1.395   .     S
C244   C247    1.432   .     S
C244   O284    1.280   .     A
C244   O283    1.280   .     A
C245   O282    1.376   .     S
C245   C299    1.395   1_455 S
C247   C14     1.204   1_565 S
C248   H269    1.112   .     S
C248   O290    1.412   .     S
C248   H265    1.113   .     S
C248   H270    1.109   .     S
C249   O280    1.412   .     S
C249   H273    1.109   .     S
C249   H271    1.113   .     S
C249   H272    1.112   .     S
C250   H276    1.109   .     S
C250   H274    1.113   .     S
C250   H275    1.112   .     S
C250   O281    1.412   .     S
C251   O282    1.412   .     S
C251   H267    1.112   .     S
C251   H268    1.109   .     S
C251   H266    1.113   .     S
C252   O286    1.275   .     A
C252   O289    1.275   .     A
C253   O288    1.275   .     A
C253   C258    1.448   .     S
C253   O287    1.275   .     A
C254   C258    1.399   .     A
C254   Cl259   1.778   .     S
C255   Cl260   1.778   .     S
C256   C258    1.399   .     A
C256   Cl261   1.777   .     S
C257   Cl262   1.779   .     S
Cu263  O288    1.965   .     S
Cu263  Cu264   2.631   .     S
Cu263  O284    1.969   .     S
Cu263  O279    1.969   .     S
Cu263  O286    1.965   .     S
Cu263  N278    1.977   .     S
Cu264  O283    1.969   .     S
Cu264  N277    1.977   .     S
Cu264  O287    1.965   .     S
Cu264  O289    1.965   .     S
Cu264  O285    1.969   .     S
N277   N974    1.195   1_554 S
N278   N625    1.195   .     S
C291   O343    1.280   .     A
C291   O337    1.280   .     A
C291   C304    1.432   .     S
C292   C315    1.399   .     A
C292   C310    1.448   .     S
C292   C313    1.399   .     A
C293   C299    1.405   .     A
C293   C314    1.410   .     A
C293   C297    1.412   .     A
C294   C298    1.412   .     A
C294   C315    1.410   .     A
C294   C300    1.405   .     A
C295   C297    1.412   .     A
C295   C301    1.405   .     A
C295   C312    1.410   .     A
C296   C303    1.405   .     A
C296   C313    1.410   .     A
C296   C298    1.412   .     A
C297   C240    1.418   1_655 S
C299   O348    1.376   .     S
C299   C245    1.395   1_655 S
C300   O338    1.376   .     S
C301   O339    1.376   .     S
C301   C242    1.395   1_655 S
C302   C305    1.432   .     S
C302   O342    1.280   .     A
C302   O341    1.280   .     A
C303   O340    1.376   .     S
C305   C72     1.204   1_565 S
C306   H327    1.112   .     S
C306   O348    1.412   .     S
C306   H323    1.113   .     S
C306   H328    1.109   .     S
C307   O338    1.412   .     S
C307   H331    1.109   .     S
C307   H329    1.113   .     S
C307   H330    1.112   .     S
C308   H334    1.109   .     S
C308   H332    1.113   .     S
C308   H333    1.112   .     S
C308   O339    1.412   .     S
C309   O340    1.412   .     S
C309   H325    1.112   .     S
C309   H326    1.109   .     S
C309   H324    1.113   .     S
C310   O344    1.275   .     A
C310   O347    1.275   .     A
C311   O346    1.275   .     A
C311   C316    1.448   .     S
C311   O345    1.275   .     A
C312   C316    1.399   .     A
C312   Cl317   1.778   .     S
C313   Cl318   1.778   .     S
C314   C316    1.399   .     A
C314   Cl319   1.777   .     S
C315   Cl320   1.779   .     S
Cu321  O346    1.965   .     S
Cu321  Cu322   2.631   .     S
Cu321  O342    1.969   .     S
Cu321  O337    1.969   .     S
Cu321  O344    1.965   .     S
Cu321  N336    1.977   .     S
Cu322  O341    1.969   .     S
Cu322  N335    1.977   .     S
Cu322  O345    1.965   .     S
Cu322  O347    1.965   .     S
Cu322  O343    1.969   .     S
N335   N1032   1.195   1_554 S
N336   N683    1.195   .     S
C349   O401    1.280   .     A
C349   O395    1.280   .     A
C349   C362    1.432   .     S
C350   C373    1.399   .     A
C350   C368    1.448   .     S
C350   C371    1.399   .     A
C351   C357    1.405   .     A
C351   C372    1.410   .     A
C351   C355    1.412   .     A
C352   C356    1.412   .     A
C352   C373    1.410   .     A
C352   C358    1.405   .     A
C353   C355    1.412   .     A
C353   C359    1.405   .     A
C353   C370    1.410   .     A
C354   C361    1.405   .     A
C354   C371    1.410   .     A
C354   C356    1.412   .     A
C355   C414    1.418   .     S
C356   C413    1.418   1_455 S
C357   O406    1.376   .     S
C357   C419    1.395   .     S
C358   O396    1.376   .     S
C358   C417    1.395   1_455 S
C359   O397    1.376   .     S
C359   C416    1.395   .     S
C360   C363    1.432   .     S
C360   O400    1.280   .     A
C360   O399    1.280   .     A
C361   O398    1.376   .     S
C361   C415    1.395   1_455 S
C362   C595    1.204   1_545 S
C363   C478    1.204   .     S
C364   H385    1.112   .     S
C364   O406    1.412   .     S
C364   H381    1.113   .     S
C364   H386    1.109   .     S
C365   O396    1.412   .     S
C365   H389    1.109   .     S
C365   H387    1.113   .     S
C365   H388    1.112   .     S
C366   H392    1.109   .     S
C366   H390    1.113   .     S
C366   H391    1.112   .     S
C366   O397    1.412   .     S
C367   O398    1.412   .     S
C367   H383    1.112   .     S
C367   H384    1.109   .     S
C367   H382    1.113   .     S
C368   O402    1.275   .     A
C368   O405    1.275   .     A
C369   O404    1.275   .     A
C369   C374    1.448   .     S
C369   O403    1.275   .     A
C370   C374    1.399   .     A
C370   Cl375   1.778   .     S
C371   Cl376   1.778   .     S
C372   C374    1.399   .     A
C372   Cl377   1.777   .     S
C373   Cl378   1.779   .     S
Cu379  O404    1.965   .     S
Cu379  Cu380   2.631   .     S
Cu379  O400    1.969   .     S
Cu379  O395    1.969   .     S
Cu379  O402    1.965   .     S
Cu379  N394    1.977   .     S
Cu380  O399    1.969   .     S
Cu380  N393    1.977   .     S
Cu380  O403    1.965   .     S
Cu380  O405    1.965   .     S
Cu380  O401    1.969   .     S
N394   N741    1.195   .     S
C407   O459    1.280   .     A
C407   O453    1.280   .     A
C407   C420    1.432   .     S
C408   C431    1.399   .     A
C408   C426    1.448   .     S
C408   C429    1.399   .     A
C409   C415    1.405   .     A
C409   C430    1.410   .     A
C409   C413    1.412   .     A
C410   C414    1.412   .     A
C410   C431    1.410   .     A
C410   C416    1.405   .     A
C411   C413    1.412   .     A
C411   C417    1.405   .     A
C411   C428    1.410   .     A
C412   C419    1.405   .     A
C412   C429    1.410   .     A
C412   C414    1.412   .     A
C413   C356    1.418   1_655 S
C415   O464    1.376   .     S
C415   C361    1.395   1_655 S
C416   O454    1.376   .     S
C417   O455    1.376   .     S
C417   C358    1.395   1_655 S
C418   C421    1.432   .     S
C418   O458    1.280   .     A
C418   O457    1.280   .     A
C419   O456    1.376   .     S
C420   C653    1.204   1_545 S
C421   C536    1.204   .     S
C422   H443    1.112   .     S
C422   O464    1.412   .     S
C422   H439    1.113   .     S
C422   H444    1.109   .     S
C423   O454    1.412   .     S
C423   H447    1.109   .     S
C423   H445    1.113   .     S
C423   H446    1.112   .     S
C424   H450    1.109   .     S
C424   H448    1.113   .     S
C424   H449    1.112   .     S
C424   O455    1.412   .     S
C425   O456    1.412   .     S
C425   H441    1.112   .     S
C425   H442    1.109   .     S
C425   H440    1.113   .     S
C426   O460    1.275   .     A
C426   O463    1.275   .     A
C427   O462    1.275   .     A
C427   C432    1.448   .     S
C427   O461    1.275   .     A
C428   C432    1.399   .     A
C428   Cl433   1.778   .     S
C429   Cl434   1.778   .     S
C430   C432    1.399   .     A
C430   Cl435   1.777   .     S
C431   Cl436   1.779   .     S
Cu437  O462    1.965   .     S
Cu437  Cu438   2.631   .     S
Cu437  O458    1.969   .     S
Cu437  O453    1.969   .     S
Cu437  O460    1.965   .     S
Cu437  N452    1.977   .     S
Cu438  O457    1.969   .     S
Cu438  N451    1.977   .     S
Cu438  O461    1.965   .     S
Cu438  O463    1.965   .     S
Cu438  O459    1.969   .     S
N452   N799    1.195   .     S
C465   O517    1.280   .     A
C465   O511    1.280   .     A
C465   C478    1.432   .     S
C466   C489    1.399   .     A
C466   C484    1.448   .     S
C466   C487    1.399   .     A
C467   C473    1.405   .     A
C467   C488    1.410   .     A
C467   C471    1.412   .     A
C468   C472    1.412   .     A
C468   C489    1.410   .     A
C468   C474    1.405   .     A
C469   C471    1.412   .     A
C469   C475    1.405   .     A
C469   C486    1.410   .     A
C470   C477    1.405   .     A
C470   C487    1.410   .     A
C470   C472    1.412   .     A
C471   C530    1.418   .     S
C472   C529    1.418   1_455 S
C473   O522    1.376   .     S
C473   C535    1.395   .     S
C474   O512    1.376   .     S
C474   C533    1.395   1_455 S
C475   O513    1.376   .     S
C475   C532    1.395   .     S
C476   C479    1.432   .     S
C476   O516    1.280   .     A
C476   O515    1.280   .     A
C477   O514    1.376   .     S
C477   C531    1.395   1_455 S
C479   C594    1.204   .     S
C480   H501    1.112   .     S
C480   O522    1.412   .     S
C480   H497    1.113   .     S
C480   H502    1.109   .     S
C481   O512    1.412   .     S
C481   H505    1.109   .     S
C481   H503    1.113   .     S
C481   H504    1.112   .     S
C482   H508    1.109   .     S
C482   H506    1.113   .     S
C482   H507    1.112   .     S
C482   O513    1.412   .     S
C483   O514    1.412   .     S
C483   H499    1.112   .     S
C483   H500    1.109   .     S
C483   H498    1.113   .     S
C484   O518    1.275   .     A
C484   O521    1.275   .     A
C485   O520    1.275   .     A
C485   C490    1.448   .     S
C485   O519    1.275   .     A
C486   C490    1.399   .     A
C486   Cl491   1.778   .     S
C487   Cl492   1.778   .     S
C488   C490    1.399   .     A
C488   Cl493   1.777   .     S
C489   Cl494   1.779   .     S
Cu495  O520    1.965   .     S
Cu495  Cu496   2.631   .     S
Cu495  O516    1.969   .     S
Cu495  O511    1.969   .     S
Cu495  O518    1.965   .     S
Cu495  N510    1.977   .     S
Cu496  O515    1.969   .     S
Cu496  N509    1.977   .     S
Cu496  O519    1.965   .     S
Cu496  O521    1.965   .     S
Cu496  O517    1.969   .     S
N510   N857    1.195   .     S
C523   O575    1.280   .     A
C523   O569    1.280   .     A
C523   C536    1.432   .     S
C524   C547    1.399   .     A
C524   C542    1.448   .     S
C524   C545    1.399   .     A
C525   C531    1.405   .     A
C525   C546    1.410   .     A
C525   C529    1.412   .     A
C526   C530    1.412   .     A
C526   C547    1.410   .     A
C526   C532    1.405   .     A
C527   C529    1.412   .     A
C527   C533    1.405   .     A
C527   C544    1.410   .     A
C528   C535    1.405   .     A
C528   C545    1.410   .     A
C528   C530    1.412   .     A
C529   C472    1.418   1_655 S
C531   O580    1.376   .     S
C531   C477    1.395   1_655 S
C532   O570    1.376   .     S
C533   O571    1.376   .     S
C533   C474    1.395   1_655 S
C534   C537    1.432   .     S
C534   O574    1.280   .     A
C534   O573    1.280   .     A
C535   O572    1.376   .     S
C537   C652    1.204   .     S
C538   H559    1.112   .     S
C538   O580    1.412   .     S
C538   H555    1.113   .     S
C538   H560    1.109   .     S
C539   O570    1.412   .     S
C539   H563    1.109   .     S
C539   H561    1.113   .     S
C539   H562    1.112   .     S
C540   H566    1.109   .     S
C540   H564    1.113   .     S
C540   H565    1.112   .     S
C540   O571    1.412   .     S
C541   O572    1.412   .     S
C541   H557    1.112   .     S
C541   H558    1.109   .     S
C541   H556    1.113   .     S
C542   O576    1.275   .     A
C542   O579    1.275   .     A
C543   O578    1.275   .     A
C543   C548    1.448   .     S
C543   O577    1.275   .     A
C544   C548    1.399   .     A
C544   Cl549   1.778   .     S
C545   Cl550   1.778   .     S
C546   C548    1.399   .     A
C546   Cl551   1.777   .     S
C547   Cl552   1.779   .     S
Cu553  O578    1.965   .     S
Cu553  Cu554   2.631   .     S
Cu553  O574    1.969   .     S
Cu553  O569    1.969   .     S
Cu553  O576    1.965   .     S
Cu553  N568    1.977   .     S
Cu554  O573    1.969   .     S
Cu554  N567    1.977   .     S
Cu554  O577    1.965   .     S
Cu554  O579    1.965   .     S
Cu554  O575    1.969   .     S
N568   N915    1.195   .     S
C581   O633    1.280   .     A
C581   O627    1.280   .     A
C581   C594    1.432   .     S
C582   C605    1.399   .     A
C582   C600    1.448   .     S
C582   C603    1.399   .     A
C583   C589    1.405   .     A
C583   C604    1.410   .     A
C583   C587    1.412   .     A
C584   C588    1.412   .     A
C584   C605    1.410   .     A
C584   C590    1.405   .     A
C585   C587    1.412   .     A
C585   C591    1.405   .     A
C585   C602    1.410   .     A
C586   C593    1.405   .     A
C586   C603    1.410   .     A
C586   C588    1.412   .     A
C587   C646    1.418   .     S
C588   C645    1.418   1_455 S
C589   O638    1.376   .     S
C589   C651    1.395   .     S
C590   O628    1.376   .     S
C590   C649    1.395   1_455 S
C591   O629    1.376   .     S
C591   C648    1.395   .     S
C592   C595    1.432   .     S
C592   O632    1.280   .     A
C592   O631    1.280   .     A
C593   O630    1.376   .     S
C593   C647    1.395   1_455 S
C595   C362    1.204   1_565 S
C596   H617    1.112   .     S
C596   O638    1.412   .     S
C596   H613    1.113   .     S
C596   H618    1.109   .     S
C597   O628    1.412   .     S
C597   H621    1.109   .     S
C597   H619    1.113   .     S
C597   H620    1.112   .     S
C598   H624    1.109   .     S
C598   H622    1.113   .     S
C598   H623    1.112   .     S
C598   O629    1.412   .     S
C599   O630    1.412   .     S
C599   H615    1.112   .     S
C599   H616    1.109   .     S
C599   H614    1.113   .     S
C600   O634    1.275   .     A
C600   O637    1.275   .     A
C601   O636    1.275   .     A
C601   C606    1.448   .     S
C601   O635    1.275   .     A
C602   C606    1.399   .     A
C602   Cl607   1.778   .     S
C603   Cl608   1.778   .     S
C604   C606    1.399   .     A
C604   Cl609   1.777   .     S
C605   Cl610   1.779   .     S
Cu611  O636    1.965   .     S
Cu611  Cu612   2.631   .     S
Cu611  O632    1.969   .     S
Cu611  O627    1.969   .     S
Cu611  O634    1.965   .     S
Cu611  N626    1.977   .     S
Cu612  O631    1.969   .     S
Cu612  N625    1.977   .     S
Cu612  O635    1.965   .     S
Cu612  O637    1.965   .     S
Cu612  O633    1.969   .     S
N626   N973    1.195   .     S
C639   O691    1.280   .     A
C639   O685    1.280   .     A
C639   C652    1.432   .     S
C640   C663    1.399   .     A
C640   C658    1.448   .     S
C640   C661    1.399   .     A
C641   C647    1.405   .     A
C641   C662    1.410   .     A
C641   C645    1.412   .     A
C642   C646    1.412   .     A
C642   C663    1.410   .     A
C642   C648    1.405   .     A
C643   C645    1.412   .     A
C643   C649    1.405   .     A
C643   C660    1.410   .     A
C644   C651    1.405   .     A
C644   C661    1.410   .     A
C644   C646    1.412   .     A
C645   C588    1.418   1_655 S
C647   O696    1.376   .     S
C647   C593    1.395   1_655 S
C648   O686    1.376   .     S
C649   O687    1.376   .     S
C649   C590    1.395   1_655 S
C650   C653    1.432   .     S
C650   O690    1.280   .     A
C650   O689    1.280   .     A
C651   O688    1.376   .     S
C653   C420    1.204   1_565 S
C654   H675    1.112   .     S
C654   O696    1.412   .     S
C654   H671    1.113   .     S
C654   H676    1.109   .     S
C655   O686    1.412   .     S
C655   H679    1.109   .     S
C655   H677    1.113   .     S
C655   H678    1.112   .     S
C656   H682    1.109   .     S
C656   H680    1.113   .     S
C656   H681    1.112   .     S
C656   O687    1.412   .     S
C657   O688    1.412   .     S
C657   H673    1.112   .     S
C657   H674    1.109   .     S
C657   H672    1.113   .     S
C658   O692    1.275   .     A
C658   O695    1.275   .     A
C659   O694    1.275   .     A
C659   C664    1.448   .     S
C659   O693    1.275   .     A
C660   C664    1.399   .     A
C660   Cl665   1.778   .     S
C661   Cl666   1.778   .     S
C662   C664    1.399   .     A
C662   Cl667   1.777   .     S
C663   Cl668   1.779   .     S
Cu669  O694    1.965   .     S
Cu669  Cu670   2.631   .     S
Cu669  O690    1.969   .     S
Cu669  O685    1.969   .     S
Cu669  O692    1.965   .     S
Cu669  N684    1.977   .     S
Cu670  O689    1.969   .     S
Cu670  N683    1.977   .     S
Cu670  O693    1.965   .     S
Cu670  O695    1.965   .     S
Cu670  O691    1.969   .     S
N684   N1031   1.195   .     S
C697   O749    1.280   .     A
C697   O743    1.280   .     A
C697   C710    1.432   .     S
C698   C721    1.399   .     A
C698   C716    1.448   .     S
C698   C719    1.399   .     A
C699   C705    1.405   .     A
C699   C720    1.410   .     A
C699   C703    1.412   .     A
C700   C704    1.412   .     A
C700   C721    1.410   .     A
C700   C706    1.405   .     A
C701   C703    1.412   .     A
C701   C707    1.405   .     A
C701   C718    1.410   .     A
C702   C709    1.405   .     A
C702   C719    1.410   .     A
C702   C704    1.412   .     A
C703   C762    1.418   .     S
C704   C761    1.418   1_455 S
C705   O754    1.376   .     S
C705   C767    1.395   .     S
C706   O744    1.376   .     S
C706   C765    1.395   1_455 S
C707   O745    1.376   .     S
C707   C764    1.395   .     S
C708   C711    1.432   .     S
C708   O748    1.280   .     A
C708   O747    1.280   .     A
C709   O746    1.376   .     S
C709   C763    1.395   1_455 S
C710   C943    1.204   1_545 S
C711   C826    1.204   .     S
C712   H733    1.112   .     S
C712   O754    1.412   .     S
C712   H729    1.113   .     S
C712   H734    1.109   .     S
C713   O744    1.412   .     S
C713   H737    1.109   .     S
C713   H735    1.113   .     S
C713   H736    1.112   .     S
C714   H740    1.109   .     S
C714   H738    1.113   .     S
C714   H739    1.112   .     S
C714   O745    1.412   .     S
C715   O746    1.412   .     S
C715   H731    1.112   .     S
C715   H732    1.109   .     S
C715   H730    1.113   .     S
C716   O750    1.275   .     A
C716   O753    1.275   .     A
C717   O752    1.275   .     A
C717   C722    1.448   .     S
C717   O751    1.275   .     A
C718   C722    1.399   .     A
C718   Cl723   1.778   .     S
C719   Cl724   1.778   .     S
C720   C722    1.399   .     A
C720   Cl725   1.777   .     S
C721   Cl726   1.779   .     S
Cu727  O752    1.965   .     S
Cu727  Cu728   2.631   .     S
Cu727  O748    1.969   .     S
Cu727  O743    1.969   .     S
Cu727  O750    1.965   .     S
Cu727  N742    1.977   .     S
Cu728  O747    1.969   .     S
Cu728  N741    1.977   .     S
Cu728  O751    1.965   .     S
Cu728  O753    1.965   .     S
Cu728  O749    1.969   .     S
N742   N45     1.195   1_556 S
C755   O807    1.280   .     A
C755   O801    1.280   .     A
C755   C768    1.432   .     S
C756   C779    1.399   .     A
C756   C774    1.448   .     S
C756   C777    1.399   .     A
C757   C763    1.405   .     A
C757   C778    1.410   .     A
C757   C761    1.412   .     A
C758   C762    1.412   .     A
C758   C779    1.410   .     A
C758   C764    1.405   .     A
C759   C761    1.412   .     A
C759   C765    1.405   .     A
C759   C776    1.410   .     A
C760   C767    1.405   .     A
C760   C777    1.410   .     A
C760   C762    1.412   .     A
C761   C704    1.418   1_655 S
C763   O812    1.376   .     S
C763   C709    1.395   1_655 S
C764   O802    1.376   .     S
C765   O803    1.376   .     S
C765   C706    1.395   1_655 S
C766   C769    1.432   .     S
C766   O806    1.280   .     A
C766   O805    1.280   .     A
C767   O804    1.376   .     S
C768   C1001   1.204   1_545 S
C769   C884    1.204   .     S
C770   H791    1.112   .     S
C770   O812    1.412   .     S
C770   H787    1.113   .     S
C770   H792    1.109   .     S
C771   O802    1.412   .     S
C771   H795    1.109   .     S
C771   H793    1.113   .     S
C771   H794    1.112   .     S
C772   H798    1.109   .     S
C772   H796    1.113   .     S
C772   H797    1.112   .     S
C772   O803    1.412   .     S
C773   O804    1.412   .     S
C773   H789    1.112   .     S
C773   H790    1.109   .     S
C773   H788    1.113   .     S
C774   O808    1.275   .     A
C774   O811    1.275   .     A
C775   O810    1.275   .     A
C775   C780    1.448   .     S
C775   O809    1.275   .     A
C776   C780    1.399   .     A
C776   Cl781   1.778   .     S
C777   Cl782   1.778   .     S
C778   C780    1.399   .     A
C778   Cl783   1.777   .     S
C779   Cl784   1.779   .     S
Cu785  O810    1.965   .     S
Cu785  Cu786   2.631   .     S
Cu785  O806    1.969   .     S
Cu785  O801    1.969   .     S
Cu785  O808    1.965   .     S
Cu785  N800    1.977   .     S
Cu786  O805    1.969   .     S
Cu786  N799    1.977   .     S
Cu786  O809    1.965   .     S
Cu786  O811    1.965   .     S
Cu786  O807    1.969   .     S
N800   N103    1.195   1_556 S
C813   O865    1.280   .     A
C813   O859    1.280   .     A
C813   C826    1.432   .     S
C814   C837    1.399   .     A
C814   C832    1.448   .     S
C814   C835    1.399   .     A
C815   C821    1.405   .     A
C815   C836    1.410   .     A
C815   C819    1.412   .     A
C816   C820    1.412   .     A
C816   C837    1.410   .     A
C816   C822    1.405   .     A
C817   C819    1.412   .     A
C817   C823    1.405   .     A
C817   C834    1.410   .     A
C818   C825    1.405   .     A
C818   C835    1.410   .     A
C818   C820    1.412   .     A
C819   C878    1.418   .     S
C820   C877    1.418   1_455 S
C821   O870    1.376   .     S
C821   C883    1.395   .     S
C822   O860    1.376   .     S
C822   C881    1.395   1_455 S
C823   O861    1.376   .     S
C823   C880    1.395   .     S
C824   C827    1.432   .     S
C824   O864    1.280   .     A
C824   O863    1.280   .     A
C825   O862    1.376   .     S
C825   C879    1.395   1_455 S
C827   C942    1.204   .     S
C828   H849    1.112   .     S
C828   O870    1.412   .     S
C828   H845    1.113   .     S
C828   H850    1.109   .     S
C829   O860    1.412   .     S
C829   H853    1.109   .     S
C829   H851    1.113   .     S
C829   H852    1.112   .     S
C830   H856    1.109   .     S
C830   H854    1.113   .     S
C830   H855    1.112   .     S
C830   O861    1.412   .     S
C831   O862    1.412   .     S
C831   H847    1.112   .     S
C831   H848    1.109   .     S
C831   H846    1.113   .     S
C832   O866    1.275   .     A
C832   O869    1.275   .     A
C833   O868    1.275   .     A
C833   C838    1.448   .     S
C833   O867    1.275   .     A
C834   C838    1.399   .     A
C834   Cl839   1.778   .     S
C835   Cl840   1.778   .     S
C836   C838    1.399   .     A
C836   Cl841   1.777   .     S
C837   Cl842   1.779   .     S
Cu843  O868    1.965   .     S
Cu843  Cu844   2.631   .     S
Cu843  O864    1.969   .     S
Cu843  O859    1.969   .     S
Cu843  O866    1.965   .     S
Cu843  N858    1.977   .     S
Cu844  O863    1.969   .     S
Cu844  N857    1.977   .     S
Cu844  O867    1.965   .     S
Cu844  O869    1.965   .     S
Cu844  O865    1.969   .     S
N858   N161    1.195   1_556 S
C871   O923    1.280   .     A
C871   O917    1.280   .     A
C871   C884    1.432   .     S
C872   C895    1.399   .     A
C872   C890    1.448   .     S
C872   C893    1.399   .     A
C873   C879    1.405   .     A
C873   C894    1.410   .     A
C873   C877    1.412   .     A
C874   C878    1.412   .     A
C874   C895    1.410   .     A
C874   C880    1.405   .     A
C875   C877    1.412   .     A
C875   C881    1.405   .     A
C875   C892    1.410   .     A
C876   C883    1.405   .     A
C876   C893    1.410   .     A
C876   C878    1.412   .     A
C877   C820    1.418   1_655 S
C879   O928    1.376   .     S
C879   C825    1.395   1_655 S
C880   O918    1.376   .     S
C881   O919    1.376   .     S
C881   C822    1.395   1_655 S
C882   C885    1.432   .     S
C882   O922    1.280   .     A
C882   O921    1.280   .     A
C883   O920    1.376   .     S
C885   C1000   1.204   .     S
C886   H907    1.112   .     S
C886   O928    1.412   .     S
C886   H903    1.113   .     S
C886   H908    1.109   .     S
C887   O918    1.412   .     S
C887   H911    1.109   .     S
C887   H909    1.113   .     S
C887   H910    1.112   .     S
C888   H914    1.109   .     S
C888   H912    1.113   .     S
C888   H913    1.112   .     S
C888   O919    1.412   .     S
C889   O920    1.412   .     S
C889   H905    1.112   .     S
C889   H906    1.109   .     S
C889   H904    1.113   .     S
C890   O924    1.275   .     A
C890   O927    1.275   .     A
C891   O926    1.275   .     A
C891   C896    1.448   .     S
C891   O925    1.275   .     A
C892   C896    1.399   .     A
C892   Cl897   1.778   .     S
C893   Cl898   1.778   .     S
C894   C896    1.399   .     A
C894   Cl899   1.777   .     S
C895   Cl900   1.779   .     S
Cu901  O926    1.965   .     S
Cu901  Cu902   2.631   .     S
Cu901  O922    1.969   .     S
Cu901  O917    1.969   .     S
Cu901  O924    1.965   .     S
Cu901  N916    1.977   .     S
Cu902  O921    1.969   .     S
Cu902  N915    1.977   .     S
Cu902  O925    1.965   .     S
Cu902  O927    1.965   .     S
Cu902  O923    1.969   .     S
N916   N219    1.195   1_556 S
C929   O981    1.280   .     A
C929   O975    1.280   .     A
C929   C942    1.432   .     S
C930   C953    1.399   .     A
C930   C948    1.448   .     S
C930   C951    1.399   .     A
C931   C937    1.405   .     A
C931   C952    1.410   .     A
C931   C935    1.412   .     A
C932   C936    1.412   .     A
C932   C953    1.410   .     A
C932   C938    1.405   .     A
C933   C935    1.412   .     A
C933   C939    1.405   .     A
C933   C950    1.410   .     A
C934   C941    1.405   .     A
C934   C951    1.410   .     A
C934   C936    1.412   .     A
C935   C994    1.418   .     S
C936   C993    1.418   1_455 S
C937   O986    1.376   .     S
C937   C999    1.395   .     S
C938   O976    1.376   .     S
C938   C997    1.395   1_455 S
C939   O977    1.376   .     S
C939   C996    1.395   .     S
C940   C943    1.432   .     S
C940   O980    1.280   .     A
C940   O979    1.280   .     A
C941   O978    1.376   .     S
C941   C995    1.395   1_455 S
C943   C710    1.204   1_565 S
C944   H965    1.112   .     S
C944   O986    1.412   .     S
C944   H961    1.113   .     S
C944   H966    1.109   .     S
C945   O976    1.412   .     S
C945   H969    1.109   .     S
C945   H967    1.113   .     S
C945   H968    1.112   .     S
C946   H972    1.109   .     S
C946   H970    1.113   .     S
C946   H971    1.112   .     S
C946   O977    1.412   .     S
C947   O978    1.412   .     S
C947   H963    1.112   .     S
C947   H964    1.109   .     S
C947   H962    1.113   .     S
C948   O982    1.275   .     A
C948   O985    1.275   .     A
C949   O984    1.275   .     A
C949   C954    1.448   .     S
C949   O983    1.275   .     A
C950   C954    1.399   .     A
C950   Cl955   1.778   .     S
C951   Cl956   1.778   .     S
C952   C954    1.399   .     A
C952   Cl957   1.777   .     S
C953   Cl958   1.779   .     S
Cu959  O984    1.965   .     S
Cu959  Cu960   2.631   .     S
Cu959  O980    1.969   .     S
Cu959  O975    1.969   .     S
Cu959  O982    1.965   .     S
Cu959  N974    1.977   .     S
Cu960  O979    1.969   .     S
Cu960  N973    1.977   .     S
Cu960  O983    1.965   .     S
Cu960  O985    1.965   .     S
Cu960  O981    1.969   .     S
N974   N277    1.195   1_556 S
C987   O1039   1.280   .     A
C987   O1033   1.280   .     A
C987   C1000   1.432   .     S
C988   C1011   1.399   .     A
C988   C1006   1.448   .     S
C988   C1009   1.399   .     A
C989   C995    1.405   .     A
C989   C1010   1.410   .     A
C989   C993    1.412   .     A
C990   C994    1.412   .     A
C990   C1011   1.410   .     A
C990   C996    1.405   .     A
C991   C993    1.412   .     A
C991   C997    1.405   .     A
C991   C1008   1.410   .     A
C992   C999    1.405   .     A
C992   C1009   1.410   .     A
C992   C994    1.412   .     A
C993   C936    1.418   1_655 S
C995   O1044   1.376   .     S
C995   C941    1.395   1_655 S
C996   O1034   1.376   .     S
C997   O1035   1.376   .     S
C997   C938    1.395   1_655 S
C998   C1001   1.432   .     S
C998   O1038   1.280   .     A
C998   O1037   1.280   .     A
C999   O1036   1.376   .     S
C1001  C768    1.204   1_565 S
C1002  H1023   1.112   .     S
C1002  O1044   1.412   .     S
C1002  H1019   1.113   .     S
C1002  H1024   1.109   .     S
C1003  O1034   1.412   .     S
C1003  H1027   1.109   .     S
C1003  H1025   1.113   .     S
C1003  H1026   1.112   .     S
C1004  H1030   1.109   .     S
C1004  H1028   1.113   .     S
C1004  H1029   1.112   .     S
C1004  O1035   1.412   .     S
C1005  O1036   1.412   .     S
C1005  H1021   1.112   .     S
C1005  H1022   1.109   .     S
C1005  H1020   1.113   .     S
C1006  O1040   1.275   .     A
C1006  O1043   1.275   .     A
C1007  O1042   1.275   .     A
C1007  C1012   1.448   .     S
C1007  O1041   1.275   .     A
C1008  C1012   1.399   .     A
C1008  Cl1013  1.778   .     S
C1009  Cl1014  1.778   .     S
C1010  C1012   1.399   .     A
C1010  Cl1015  1.777   .     S
C1011  Cl1016  1.779   .     S
Cu1017 O1042   1.965   .     S
Cu1017 Cu1018  2.631   .     S
Cu1017 O1038   1.969   .     S
Cu1017 O1033   1.969   .     S
Cu1017 O1040   1.965   .     S
Cu1017 N1032   1.977   .     S
Cu1018 O1037   1.969   .     S
Cu1018 N1031   1.977   .     S
Cu1018 O1041   1.965   .     S
Cu1018 O1043   1.965   .     S
Cu1018 O1039   1.969   .     S
N1032  N335    1.195   1_556 S
