data_str_m2_o10_o18_pcu_sym.22
_audit_creation_date              2020-01-03
_audit_creation_method            'Materials Studio'
_symmetry_space_group_name_H-M    'P1'
_symmetry_Int_Tables_number       1
_symmetry_cell_setting            triclinic
loop_
_symmetry_equiv_pos_as_xyz
  x,y,z
_cell_length_a                    22.2512
_cell_length_b                    26.0767
_cell_length_c                    31.6261
_cell_angle_alpha                 94.2582
_cell_angle_beta                  75.0237
_cell_angle_gamma                 102.6740
loop_
_atom_site_label
_atom_site_type_symbol
_atom_site_fract_x
_atom_site_fract_y
_atom_site_fract_z
_atom_site_U_iso_or_equiv
_atom_site_adp_type
_atom_site_occupancy
C1     C     0.18026   0.26654   0.25347   0.00000  Uiso   1.00
C2     C     0.20539   0.17091   0.16687   0.00000  Uiso   1.00
C3     C     0.10444   0.15550   0.38052   0.00000  Uiso   1.00
C4     C     0.22879   0.17574   0.11920   0.00000  Uiso   1.00
C5     C     0.02605   0.11386   0.44293   0.00000  Uiso   1.00
C6     C     0.31041   0.20859   0.05498   0.00000  Uiso   1.00
C7     C     0.04311   0.12740   0.39901   0.00000  Uiso   1.00
C8     C     0.29199   0.19866   0.09965   0.00000  Uiso   1.00
C9     C     0.14739   0.17198   0.40666   0.00000  Uiso   1.00
C10    C     0.18513   0.16045   0.09340   0.00000  Uiso   1.00
C11    C     0.13242   0.15714   0.45060   0.00000  Uiso   1.00
C12    C     0.15314   0.06690   0.24685   0.00000  Uiso   1.00
C13    C     0.20258   0.16919   0.04814   0.00000  Uiso   1.00
C14    C     0.07030   0.12787   0.46863   0.00000  Uiso   1.00
C15    C     0.26605   0.19502   0.02935   0.00000  Uiso   1.00
C16    C     0.17751   0.16965   0.47676   0.00000  Uiso   1.00
C17    C     0.15836   0.15466   0.02148   0.00000  Uiso   1.00
C18    C     0.27015   0.01714   0.29126   0.00000  Uiso   1.00
C19    C     0.27780   0.32293   0.33010   0.00000  Uiso   1.00
C20    C     0.01416   0.32441   0.32764   0.00000  Uiso   1.00
C21    C     0.16186   0.31329   0.16784   0.00000  Uiso   1.00
C22    C     0.16801   0.02529   0.13787   0.00000  Uiso   1.00
C23    C     0.09597   0.12505   0.03785   0.00000  Uiso   1.00
C24    C     0.20887   0.01703   0.09206   0.00000  Uiso   1.00
C25    C     0.24142   0.19562   0.45951   0.00000  Uiso   1.00
C26    C     0.05308   0.11205   0.01187   0.00000  Uiso   1.00
C27    C     0.28460   0.20768   0.48532   0.00000  Uiso   1.00
C28    C     0.18401   0.32220   0.25978   0.00000  Uiso   1.00
C29    C     0.15191   0.01209   0.23874   0.00000  Uiso   1.00
C30    C     0.12795   0.16264   0.33312   0.00000  Uiso   1.00
Cu31   Cu    0.10737   0.16108   0.24517   0.00000  Uiso   1.00
Cu32   Cu    0.22596   0.17225   0.25484   0.00000  Uiso   1.00
H33    H     0.00589   0.08926   0.02584   0.00000  Uiso   1.00
H34    H     0.26060   0.20651   0.42579   0.00000  Uiso   1.00
H35    H     0.00115   0.20475   0.28458   0.00000  Uiso   1.00
H36    H     0.33208   0.12838   0.21556   0.00000  Uiso   1.00
H37    H     0.29349   0.05928   0.29278   0.00000  Uiso   1.00
H38    H     0.29570   0.00130   0.25958   0.00000  Uiso   1.00
H39    H     0.25680   0.00933   0.36107   0.00000  Uiso   1.00
H40    H     0.25184   0.28131   0.33086   0.00000  Uiso   1.00
H41    H     0.03526   0.30305   0.29778   0.00000  Uiso   1.00
H42    H     0.01782   0.30500   0.35669   0.00000  Uiso   1.00
H43    H     0.04120   0.03234   0.32712   0.00000  Uiso   1.00
H44    H     0.33309   0.22731   0.47059   0.00000  Uiso   1.00
H45    H     0.14188   0.27589   0.15250   0.00000  Uiso   1.00
H46    H     0.20994   0.30984   0.17038   0.00000  Uiso   1.00
H47    H     0.12001   0.02859   0.13552   0.00000  Uiso   1.00
H48    H     0.19034   0.06256   0.15199   0.00000  Uiso   1.00
H49    H     0.25758   0.01490   0.09361   0.00000  Uiso   1.00
H50    H     0.21236   0.05048   0.07116   0.00000  Uiso   1.00
H51    H     0.18728   0.31347   0.07688   0.00000  Uiso   1.00
H52    H     0.13700   0.14340   0.10993   0.00000  Uiso   1.00
H53    H     0.19278   0.19571   0.39129   0.00000  Uiso   1.00
H54    H     0.32644   0.21069   0.11909   0.00000  Uiso   1.00
H55    H     0.00927   0.11431   0.37923   0.00000  Uiso   1.00
H56    H     0.31190   0.09148   0.45665   0.00000  Uiso   1.00
H57    H     0.02586   0.22770   0.04053   0.00000  Uiso   1.00
H58    H     0.07872   0.10991   0.07048   0.00000  Uiso   1.00
N59    N     0.31506   0.18068   0.26212   0.00000  Uiso   1.00
N60    N     0.01827   0.15265   0.23788   0.00000  Uiso   1.00
O61    O     0.12815   0.23809   0.24686   0.00000  Uiso   1.00
O62    O     0.11903   0.31913   0.20889   0.00000  Uiso   1.00
O63    O     0.20518   0.09524   0.25314   0.00000  Uiso   1.00
O64    O     0.22829   0.24753   0.25502   0.00000  Uiso   1.00
O65    O     0.10504   0.08580   0.24498   0.00000  Uiso   1.00
O66    O     0.08851   0.15930   0.30855   0.00000  Uiso   1.00
O67    O     0.24482   0.17403   0.19146   0.00000  Uiso   1.00
O68    O     0.18866   0.16874   0.31671   0.00000  Uiso   1.00
O69    O     0.14468   0.16460   0.18329   0.00000  Uiso   1.00
O70    O     0.20465   0.01448   0.29542   0.00000  Uiso   1.00
C71    C     0.51360   0.26654   0.25347   0.00000  Uiso   1.00
C72    C     0.53873   0.17091   0.16687   0.00000  Uiso   1.00
C73    C     0.43778   0.15550   0.38052   0.00000  Uiso   1.00
C74    C     0.56213   0.17574   0.11920   0.00000  Uiso   1.00
C75    C     0.35938   0.11386   0.44293   0.00000  Uiso   1.00
C76    C     0.64374   0.20859   0.05498   0.00000  Uiso   1.00
C77    C     0.37644   0.12740   0.39901   0.00000  Uiso   1.00
C78    C     0.62533   0.19866   0.09965   0.00000  Uiso   1.00
C79    C     0.48073   0.17198   0.40666   0.00000  Uiso   1.00
C80    C     0.51846   0.16045   0.09340   0.00000  Uiso   1.00
C81    C     0.46575   0.15714   0.45060   0.00000  Uiso   1.00
C82    C     0.48647   0.06690   0.24685   0.00000  Uiso   1.00
C83    C     0.53591   0.16919   0.04814   0.00000  Uiso   1.00
C84    C     0.40363   0.12787   0.46863   0.00000  Uiso   1.00
C85    C     0.59938   0.19502   0.02935   0.00000  Uiso   1.00
C86    C     0.51084   0.16965   0.47676   0.00000  Uiso   1.00
C87    C     0.49169   0.15466   0.02148   0.00000  Uiso   1.00
C88    C     0.60348   0.01714   0.29126   0.00000  Uiso   1.00
C89    C     0.61114   0.32293   0.33010   0.00000  Uiso   1.00
C90    C     0.34749   0.32441   0.32764   0.00000  Uiso   1.00
C91    C     0.49520   0.31329   0.16784   0.00000  Uiso   1.00
C92    C     0.50134   0.02529   0.13787   0.00000  Uiso   1.00
C93    C     0.42930   0.12505   0.03785   0.00000  Uiso   1.00
C94    C     0.54221   0.01703   0.09206   0.00000  Uiso   1.00
C95    C     0.57475   0.19562   0.45951   0.00000  Uiso   1.00
C96    C     0.38641   0.11205   0.01187   0.00000  Uiso   1.00
C97    C     0.61794   0.20768   0.48532   0.00000  Uiso   1.00
C98    C     0.51734   0.32220   0.25978   0.00000  Uiso   1.00
C99    C     0.48525   0.01209   0.23874   0.00000  Uiso   1.00
C100   C     0.46128   0.16264   0.33312   0.00000  Uiso   1.00
Cu101  Cu    0.44071   0.16108   0.24517   0.00000  Uiso   1.00
Cu102  Cu    0.55929   0.17225   0.25484   0.00000  Uiso   1.00
H103   H     0.33922   0.08926   0.02584   0.00000  Uiso   1.00
H104   H     0.59394   0.20651   0.42579   0.00000  Uiso   1.00
H105   H     0.33449   0.20475   0.28458   0.00000  Uiso   1.00
H106   H     0.66541   0.12838   0.21556   0.00000  Uiso   1.00
H107   H     0.62682   0.05928   0.29278   0.00000  Uiso   1.00
H108   H     0.62903   0.00130   0.25958   0.00000  Uiso   1.00
H109   H     0.59014   0.00933   0.36107   0.00000  Uiso   1.00
H110   H     0.58518   0.28131   0.33086   0.00000  Uiso   1.00
H111   H     0.36860   0.30305   0.29778   0.00000  Uiso   1.00
H112   H     0.35115   0.30500   0.35669   0.00000  Uiso   1.00
H113   H     0.37453   0.03234   0.32712   0.00000  Uiso   1.00
H114   H     0.66643   0.22731   0.47059   0.00000  Uiso   1.00
H115   H     0.47521   0.27589   0.15250   0.00000  Uiso   1.00
H116   H     0.54327   0.30984   0.17038   0.00000  Uiso   1.00
H117   H     0.45335   0.02859   0.13552   0.00000  Uiso   1.00
H118   H     0.52368   0.06256   0.15199   0.00000  Uiso   1.00
H119   H     0.59091   0.01490   0.09361   0.00000  Uiso   1.00
H120   H     0.54569   0.05048   0.07116   0.00000  Uiso   1.00
H121   H     0.52061   0.31347   0.07688   0.00000  Uiso   1.00
H122   H     0.47033   0.14340   0.10993   0.00000  Uiso   1.00
H123   H     0.52611   0.19571   0.39129   0.00000  Uiso   1.00
H124   H     0.65977   0.21069   0.11909   0.00000  Uiso   1.00
H125   H     0.34261   0.11431   0.37923   0.00000  Uiso   1.00
H126   H     0.64523   0.09148   0.45665   0.00000  Uiso   1.00
H127   H     0.35919   0.22770   0.04053   0.00000  Uiso   1.00
H128   H     0.41206   0.10991   0.07048   0.00000  Uiso   1.00
N129   N     0.64839   0.18068   0.26212   0.00000  Uiso   1.00
N130   N     0.35161   0.15265   0.23788   0.00000  Uiso   1.00
O131   O     0.46148   0.23809   0.24686   0.00000  Uiso   1.00
O132   O     0.45237   0.31913   0.20889   0.00000  Uiso   1.00
O133   O     0.53852   0.09524   0.25314   0.00000  Uiso   1.00
O134   O     0.56163   0.24753   0.25502   0.00000  Uiso   1.00
O135   O     0.43837   0.08580   0.24498   0.00000  Uiso   1.00
O136   O     0.42185   0.15930   0.30855   0.00000  Uiso   1.00
O137   O     0.57815   0.17403   0.19146   0.00000  Uiso   1.00
O138   O     0.52199   0.16874   0.31671   0.00000  Uiso   1.00
O139   O     0.47801   0.16460   0.18329   0.00000  Uiso   1.00
O140   O     0.53798   0.01448   0.29542   0.00000  Uiso   1.00
C141   C     0.84693   0.26654   0.25347   0.00000  Uiso   1.00
C142   C     0.87206   0.17091   0.16687   0.00000  Uiso   1.00
C143   C     0.77111   0.15550   0.38052   0.00000  Uiso   1.00
C144   C     0.89546   0.17574   0.11920   0.00000  Uiso   1.00
C145   C     0.69271   0.11386   0.44293   0.00000  Uiso   1.00
C146   C     0.97708   0.20859   0.05498   0.00000  Uiso   1.00
C147   C     0.70978   0.12740   0.39901   0.00000  Uiso   1.00
C148   C     0.95866   0.19866   0.09965   0.00000  Uiso   1.00
C149   C     0.81406   0.17198   0.40666   0.00000  Uiso   1.00
C150   C     0.85180   0.16045   0.09340   0.00000  Uiso   1.00
C151   C     0.79908   0.15714   0.45060   0.00000  Uiso   1.00
C152   C     0.81980   0.06690   0.24685   0.00000  Uiso   1.00
C153   C     0.86924   0.16919   0.04814   0.00000  Uiso   1.00
C154   C     0.73696   0.12787   0.46863   0.00000  Uiso   1.00
C155   C     0.93271   0.19502   0.02935   0.00000  Uiso   1.00
C156   C     0.84417   0.16965   0.47676   0.00000  Uiso   1.00
C157   C     0.82502   0.15466   0.02148   0.00000  Uiso   1.00
C158   C     0.93681   0.01714   0.29126   0.00000  Uiso   1.00
C159   C     0.94447   0.32293   0.33010   0.00000  Uiso   1.00
C160   C     0.68082   0.32441   0.32764   0.00000  Uiso   1.00
C161   C     0.82853   0.31329   0.16784   0.00000  Uiso   1.00
C162   C     0.83467   0.02529   0.13787   0.00000  Uiso   1.00
C163   C     0.76264   0.12505   0.03785   0.00000  Uiso   1.00
C164   C     0.87554   0.01703   0.09206   0.00000  Uiso   1.00
C165   C     0.90808   0.19562   0.45951   0.00000  Uiso   1.00
C166   C     0.71975   0.11205   0.01187   0.00000  Uiso   1.00
C167   C     0.95127   0.20768   0.48532   0.00000  Uiso   1.00
C168   C     0.85068   0.32220   0.25978   0.00000  Uiso   1.00
C169   C     0.81858   0.01209   0.23874   0.00000  Uiso   1.00
C170   C     0.79461   0.16264   0.33312   0.00000  Uiso   1.00
Cu171  Cu    0.77404   0.16108   0.24517   0.00000  Uiso   1.00
Cu172  Cu    0.89263   0.17225   0.25484   0.00000  Uiso   1.00
H173   H     0.67256   0.08926   0.02584   0.00000  Uiso   1.00
H174   H     0.92727   0.20651   0.42579   0.00000  Uiso   1.00
H175   H     0.66782   0.20475   0.28458   0.00000  Uiso   1.00
H176   H     0.99874   0.12838   0.21556   0.00000  Uiso   1.00
H177   H     0.96016   0.05928   0.29278   0.00000  Uiso   1.00
H178   H     0.96236   0.00130   0.25958   0.00000  Uiso   1.00
H179   H     0.92347   0.00933   0.36107   0.00000  Uiso   1.00
H180   H     0.91851   0.28131   0.33086   0.00000  Uiso   1.00
H181   H     0.70193   0.30305   0.29778   0.00000  Uiso   1.00
H182   H     0.68448   0.30500   0.35669   0.00000  Uiso   1.00
H183   H     0.70787   0.03234   0.32712   0.00000  Uiso   1.00
H184   H     0.99976   0.22731   0.47059   0.00000  Uiso   1.00
H185   H     0.80855   0.27589   0.15250   0.00000  Uiso   1.00
H186   H     0.87660   0.30984   0.17038   0.00000  Uiso   1.00
H187   H     0.78668   0.02859   0.13552   0.00000  Uiso   1.00
H188   H     0.85701   0.06256   0.15199   0.00000  Uiso   1.00
H189   H     0.92424   0.01490   0.09361   0.00000  Uiso   1.00
H190   H     0.87902   0.05048   0.07116   0.00000  Uiso   1.00
H191   H     0.85395   0.31347   0.07688   0.00000  Uiso   1.00
H192   H     0.80367   0.14340   0.10993   0.00000  Uiso   1.00
H193   H     0.85944   0.19571   0.39129   0.00000  Uiso   1.00
H194   H     0.99311   0.21069   0.11909   0.00000  Uiso   1.00
H195   H     0.67594   0.11431   0.37923   0.00000  Uiso   1.00
H196   H     0.97856   0.09148   0.45665   0.00000  Uiso   1.00
H197   H     0.69252   0.22770   0.04053   0.00000  Uiso   1.00
H198   H     0.74539   0.10991   0.07048   0.00000  Uiso   1.00
N199   N     0.98173   0.18068   0.26212   0.00000  Uiso   1.00
N200   N     0.68494   0.15265   0.23788   0.00000  Uiso   1.00
O201   O     0.79482   0.23809   0.24686   0.00000  Uiso   1.00
O202   O     0.78570   0.31913   0.20889   0.00000  Uiso   1.00
O203   O     0.87185   0.09524   0.25314   0.00000  Uiso   1.00
O204   O     0.89496   0.24753   0.25502   0.00000  Uiso   1.00
O205   O     0.77171   0.08580   0.24498   0.00000  Uiso   1.00
O206   O     0.75518   0.15930   0.30855   0.00000  Uiso   1.00
O207   O     0.91149   0.17403   0.19146   0.00000  Uiso   1.00
O208   O     0.85532   0.16874   0.31671   0.00000  Uiso   1.00
O209   O     0.81134   0.16460   0.18329   0.00000  Uiso   1.00
O210   O     0.87132   0.01448   0.29542   0.00000  Uiso   1.00
C211   C     0.18026   0.59987   0.25347   0.00000  Uiso   1.00
C212   C     0.20539   0.50425   0.16687   0.00000  Uiso   1.00
C213   C     0.10444   0.48883   0.38052   0.00000  Uiso   1.00
C214   C     0.22879   0.50907   0.11920   0.00000  Uiso   1.00
C215   C     0.02605   0.44719   0.44293   0.00000  Uiso   1.00
C216   C     0.31041   0.54193   0.05498   0.00000  Uiso   1.00
C217   C     0.04311   0.46073   0.39901   0.00000  Uiso   1.00
C218   C     0.29199   0.53199   0.09965   0.00000  Uiso   1.00
C219   C     0.14739   0.50531   0.40666   0.00000  Uiso   1.00
C220   C     0.18513   0.49379   0.09340   0.00000  Uiso   1.00
C221   C     0.13242   0.49047   0.45060   0.00000  Uiso   1.00
C222   C     0.15314   0.40023   0.24685   0.00000  Uiso   1.00
C223   C     0.20258   0.50252   0.04814   0.00000  Uiso   1.00
C224   C     0.07030   0.46120   0.46863   0.00000  Uiso   1.00
C225   C     0.26605   0.52836   0.02935   0.00000  Uiso   1.00
C226   C     0.17751   0.50298   0.47676   0.00000  Uiso   1.00
C227   C     0.15836   0.48799   0.02148   0.00000  Uiso   1.00
C228   C     0.27015   0.35047   0.29126   0.00000  Uiso   1.00
C229   C     0.27780   0.65627   0.33010   0.00000  Uiso   1.00
C230   C     0.01416   0.65774   0.32764   0.00000  Uiso   1.00
C231   C     0.16186   0.64662   0.16784   0.00000  Uiso   1.00
C232   C     0.16801   0.35863   0.13787   0.00000  Uiso   1.00
C233   C     0.09597   0.45838   0.03785   0.00000  Uiso   1.00
C234   C     0.20887   0.35036   0.09206   0.00000  Uiso   1.00
C235   C     0.24142   0.52895   0.45951   0.00000  Uiso   1.00
C236   C     0.05308   0.44538   0.01187   0.00000  Uiso   1.00
C237   C     0.28460   0.54102   0.48532   0.00000  Uiso   1.00
C238   C     0.18401   0.65553   0.25978   0.00000  Uiso   1.00
C239   C     0.15191   0.34542   0.23874   0.00000  Uiso   1.00
C240   C     0.12795   0.49598   0.33312   0.00000  Uiso   1.00
Cu241  Cu    0.10737   0.49441   0.24517   0.00000  Uiso   1.00
Cu242  Cu    0.22596   0.50559   0.25484   0.00000  Uiso   1.00
H243   H     0.00589   0.42259   0.02584   0.00000  Uiso   1.00
H244   H     0.26060   0.53985   0.42579   0.00000  Uiso   1.00
H245   H     0.00115   0.53808   0.28458   0.00000  Uiso   1.00
H246   H     0.33208   0.46171   0.21556   0.00000  Uiso   1.00
H247   H     0.29349   0.39261   0.29278   0.00000  Uiso   1.00
H248   H     0.29570   0.33464   0.25958   0.00000  Uiso   1.00
H249   H     0.25680   0.34267   0.36107   0.00000  Uiso   1.00
H250   H     0.25184   0.61465   0.33086   0.00000  Uiso   1.00
H251   H     0.03526   0.63638   0.29778   0.00000  Uiso   1.00
H252   H     0.01782   0.63833   0.35669   0.00000  Uiso   1.00
H253   H     0.04120   0.36567   0.32712   0.00000  Uiso   1.00
H254   H     0.33309   0.56064   0.47059   0.00000  Uiso   1.00
H255   H     0.14188   0.60923   0.15250   0.00000  Uiso   1.00
H256   H     0.20994   0.64317   0.17038   0.00000  Uiso   1.00
H257   H     0.12001   0.36192   0.13552   0.00000  Uiso   1.00
H258   H     0.19034   0.39589   0.15199   0.00000  Uiso   1.00
H259   H     0.25758   0.34823   0.09361   0.00000  Uiso   1.00
H260   H     0.21236   0.38382   0.07116   0.00000  Uiso   1.00
H261   H     0.18728   0.64680   0.07688   0.00000  Uiso   1.00
H262   H     0.13700   0.47673   0.10993   0.00000  Uiso   1.00
H263   H     0.19278   0.52904   0.39129   0.00000  Uiso   1.00
H264   H     0.32644   0.54403   0.11909   0.00000  Uiso   1.00
H265   H     0.00927   0.44765   0.37923   0.00000  Uiso   1.00
H266   H     0.31190   0.42481   0.45665   0.00000  Uiso   1.00
H267   H     0.02586   0.56103   0.04053   0.00000  Uiso   1.00
H268   H     0.07872   0.44324   0.07048   0.00000  Uiso   1.00
N269   N     0.31506   0.51401   0.26212   0.00000  Uiso   1.00
N270   N     0.01827   0.48599   0.23788   0.00000  Uiso   1.00
O271   O     0.12815   0.57142   0.24686   0.00000  Uiso   1.00
O272   O     0.11903   0.65246   0.20889   0.00000  Uiso   1.00
O273   O     0.20518   0.42858   0.25314   0.00000  Uiso   1.00
O274   O     0.22829   0.58086   0.25502   0.00000  Uiso   1.00
O275   O     0.10504   0.41914   0.24498   0.00000  Uiso   1.00
O276   O     0.08851   0.49263   0.30855   0.00000  Uiso   1.00
O277   O     0.24482   0.50737   0.19146   0.00000  Uiso   1.00
O278   O     0.18866   0.50207   0.31671   0.00000  Uiso   1.00
O279   O     0.14468   0.49793   0.18329   0.00000  Uiso   1.00
O280   O     0.20465   0.34781   0.29542   0.00000  Uiso   1.00
C281   C     0.51360   0.59987   0.25347   0.00000  Uiso   1.00
C282   C     0.53873   0.50425   0.16687   0.00000  Uiso   1.00
C283   C     0.43778   0.48883   0.38052   0.00000  Uiso   1.00
C284   C     0.56213   0.50907   0.11920   0.00000  Uiso   1.00
C285   C     0.35938   0.44719   0.44293   0.00000  Uiso   1.00
C286   C     0.64374   0.54193   0.05498   0.00000  Uiso   1.00
C287   C     0.37644   0.46073   0.39901   0.00000  Uiso   1.00
C288   C     0.62533   0.53199   0.09965   0.00000  Uiso   1.00
C289   C     0.48073   0.50531   0.40666   0.00000  Uiso   1.00
C290   C     0.51846   0.49379   0.09340   0.00000  Uiso   1.00
C291   C     0.46575   0.49047   0.45060   0.00000  Uiso   1.00
C292   C     0.48647   0.40023   0.24685   0.00000  Uiso   1.00
C293   C     0.53591   0.50252   0.04814   0.00000  Uiso   1.00
C294   C     0.40363   0.46120   0.46863   0.00000  Uiso   1.00
C295   C     0.59938   0.52836   0.02935   0.00000  Uiso   1.00
C296   C     0.51084   0.50298   0.47676   0.00000  Uiso   1.00
C297   C     0.49169   0.48799   0.02148   0.00000  Uiso   1.00
C298   C     0.60348   0.35047   0.29126   0.00000  Uiso   1.00
C299   C     0.61114   0.65627   0.33010   0.00000  Uiso   1.00
C300   C     0.34749   0.65774   0.32764   0.00000  Uiso   1.00
C301   C     0.49520   0.64662   0.16784   0.00000  Uiso   1.00
C302   C     0.50134   0.35863   0.13787   0.00000  Uiso   1.00
C303   C     0.42930   0.45838   0.03785   0.00000  Uiso   1.00
C304   C     0.54221   0.35036   0.09206   0.00000  Uiso   1.00
C305   C     0.57475   0.52895   0.45951   0.00000  Uiso   1.00
C306   C     0.38641   0.44538   0.01187   0.00000  Uiso   1.00
C307   C     0.61794   0.54102   0.48532   0.00000  Uiso   1.00
C308   C     0.51734   0.65553   0.25978   0.00000  Uiso   1.00
C309   C     0.48525   0.34542   0.23874   0.00000  Uiso   1.00
C310   C     0.46128   0.49598   0.33312   0.00000  Uiso   1.00
Cu311  Cu    0.44071   0.49441   0.24517   0.00000  Uiso   1.00
Cu312  Cu    0.55929   0.50559   0.25484   0.00000  Uiso   1.00
H313   H     0.33922   0.42259   0.02584   0.00000  Uiso   1.00
H314   H     0.59394   0.53985   0.42579   0.00000  Uiso   1.00
H315   H     0.33449   0.53808   0.28458   0.00000  Uiso   1.00
H316   H     0.66541   0.46171   0.21556   0.00000  Uiso   1.00
H317   H     0.62682   0.39261   0.29278   0.00000  Uiso   1.00
H318   H     0.62903   0.33464   0.25958   0.00000  Uiso   1.00
H319   H     0.59014   0.34267   0.36107   0.00000  Uiso   1.00
H320   H     0.58518   0.61465   0.33086   0.00000  Uiso   1.00
H321   H     0.36860   0.63638   0.29778   0.00000  Uiso   1.00
H322   H     0.35115   0.63833   0.35669   0.00000  Uiso   1.00
H323   H     0.37453   0.36567   0.32712   0.00000  Uiso   1.00
H324   H     0.66643   0.56064   0.47059   0.00000  Uiso   1.00
H325   H     0.47521   0.60923   0.15250   0.00000  Uiso   1.00
H326   H     0.54327   0.64317   0.17038   0.00000  Uiso   1.00
H327   H     0.45335   0.36192   0.13552   0.00000  Uiso   1.00
H328   H     0.52368   0.39589   0.15199   0.00000  Uiso   1.00
H329   H     0.59091   0.34823   0.09361   0.00000  Uiso   1.00
H330   H     0.54569   0.38382   0.07116   0.00000  Uiso   1.00
H331   H     0.52061   0.64680   0.07688   0.00000  Uiso   1.00
H332   H     0.47033   0.47673   0.10993   0.00000  Uiso   1.00
H333   H     0.52611   0.52904   0.39129   0.00000  Uiso   1.00
H334   H     0.65977   0.54403   0.11909   0.00000  Uiso   1.00
H335   H     0.34261   0.44765   0.37923   0.00000  Uiso   1.00
H336   H     0.64523   0.42481   0.45665   0.00000  Uiso   1.00
H337   H     0.35919   0.56103   0.04053   0.00000  Uiso   1.00
H338   H     0.41206   0.44324   0.07048   0.00000  Uiso   1.00
N339   N     0.64839   0.51401   0.26212   0.00000  Uiso   1.00
N340   N     0.35161   0.48599   0.23788   0.00000  Uiso   1.00
O341   O     0.46148   0.57142   0.24686   0.00000  Uiso   1.00
O342   O     0.45237   0.65246   0.20889   0.00000  Uiso   1.00
O343   O     0.53852   0.42858   0.25314   0.00000  Uiso   1.00
O344   O     0.56163   0.58086   0.25502   0.00000  Uiso   1.00
O345   O     0.43837   0.41914   0.24498   0.00000  Uiso   1.00
O346   O     0.42185   0.49263   0.30855   0.00000  Uiso   1.00
O347   O     0.57815   0.50737   0.19146   0.00000  Uiso   1.00
O348   O     0.52199   0.50207   0.31671   0.00000  Uiso   1.00
O349   O     0.47801   0.49793   0.18329   0.00000  Uiso   1.00
O350   O     0.53798   0.34781   0.29542   0.00000  Uiso   1.00
C351   C     0.84693   0.59987   0.25347   0.00000  Uiso   1.00
C352   C     0.87206   0.50425   0.16687   0.00000  Uiso   1.00
C353   C     0.77111   0.48883   0.38052   0.00000  Uiso   1.00
C354   C     0.89546   0.50907   0.11920   0.00000  Uiso   1.00
C355   C     0.69271   0.44719   0.44293   0.00000  Uiso   1.00
C356   C     0.97708   0.54193   0.05498   0.00000  Uiso   1.00
C357   C     0.70978   0.46073   0.39901   0.00000  Uiso   1.00
C358   C     0.95866   0.53199   0.09965   0.00000  Uiso   1.00
C359   C     0.81406   0.50531   0.40666   0.00000  Uiso   1.00
C360   C     0.85180   0.49379   0.09340   0.00000  Uiso   1.00
C361   C     0.79908   0.49047   0.45060   0.00000  Uiso   1.00
C362   C     0.81980   0.40023   0.24685   0.00000  Uiso   1.00
C363   C     0.86924   0.50252   0.04814   0.00000  Uiso   1.00
C364   C     0.73696   0.46120   0.46863   0.00000  Uiso   1.00
C365   C     0.93271   0.52836   0.02935   0.00000  Uiso   1.00
C366   C     0.84417   0.50298   0.47676   0.00000  Uiso   1.00
C367   C     0.82502   0.48799   0.02148   0.00000  Uiso   1.00
C368   C     0.93681   0.35047   0.29126   0.00000  Uiso   1.00
C369   C     0.94447   0.65627   0.33010   0.00000  Uiso   1.00
C370   C     0.68082   0.65774   0.32764   0.00000  Uiso   1.00
C371   C     0.82853   0.64662   0.16784   0.00000  Uiso   1.00
C372   C     0.83467   0.35863   0.13787   0.00000  Uiso   1.00
C373   C     0.76264   0.45838   0.03785   0.00000  Uiso   1.00
C374   C     0.87554   0.35036   0.09206   0.00000  Uiso   1.00
C375   C     0.90808   0.52895   0.45951   0.00000  Uiso   1.00
C376   C     0.71975   0.44538   0.01187   0.00000  Uiso   1.00
C377   C     0.95127   0.54102   0.48532   0.00000  Uiso   1.00
C378   C     0.85068   0.65553   0.25978   0.00000  Uiso   1.00
C379   C     0.81858   0.34542   0.23874   0.00000  Uiso   1.00
C380   C     0.79461   0.49598   0.33312   0.00000  Uiso   1.00
Cu381  Cu    0.77404   0.49441   0.24517   0.00000  Uiso   1.00
Cu382  Cu    0.89263   0.50559   0.25484   0.00000  Uiso   1.00
H383   H     0.67256   0.42259   0.02584   0.00000  Uiso   1.00
H384   H     0.92727   0.53985   0.42579   0.00000  Uiso   1.00
H385   H     0.66782   0.53808   0.28458   0.00000  Uiso   1.00
H386   H     0.99874   0.46171   0.21556   0.00000  Uiso   1.00
H387   H     0.96016   0.39261   0.29278   0.00000  Uiso   1.00
H388   H     0.96236   0.33464   0.25958   0.00000  Uiso   1.00
H389   H     0.92347   0.34267   0.36107   0.00000  Uiso   1.00
H390   H     0.91851   0.61465   0.33086   0.00000  Uiso   1.00
H391   H     0.70193   0.63638   0.29778   0.00000  Uiso   1.00
H392   H     0.68448   0.63833   0.35669   0.00000  Uiso   1.00
H393   H     0.70787   0.36567   0.32712   0.00000  Uiso   1.00
H394   H     0.99976   0.56064   0.47059   0.00000  Uiso   1.00
H395   H     0.80855   0.60923   0.15250   0.00000  Uiso   1.00
H396   H     0.87660   0.64317   0.17038   0.00000  Uiso   1.00
H397   H     0.78668   0.36192   0.13552   0.00000  Uiso   1.00
H398   H     0.85701   0.39589   0.15199   0.00000  Uiso   1.00
H399   H     0.92424   0.34823   0.09361   0.00000  Uiso   1.00
H400   H     0.87902   0.38382   0.07116   0.00000  Uiso   1.00
H401   H     0.85395   0.64680   0.07688   0.00000  Uiso   1.00
H402   H     0.80367   0.47673   0.10993   0.00000  Uiso   1.00
H403   H     0.85944   0.52904   0.39129   0.00000  Uiso   1.00
H404   H     0.99311   0.54403   0.11909   0.00000  Uiso   1.00
H405   H     0.67594   0.44765   0.37923   0.00000  Uiso   1.00
H406   H     0.97856   0.42481   0.45665   0.00000  Uiso   1.00
H407   H     0.69252   0.56103   0.04053   0.00000  Uiso   1.00
H408   H     0.74539   0.44324   0.07048   0.00000  Uiso   1.00
N409   N     0.98173   0.51401   0.26212   0.00000  Uiso   1.00
N410   N     0.68494   0.48599   0.23788   0.00000  Uiso   1.00
O411   O     0.79482   0.57142   0.24686   0.00000  Uiso   1.00
O412   O     0.78570   0.65246   0.20889   0.00000  Uiso   1.00
O413   O     0.87185   0.42858   0.25314   0.00000  Uiso   1.00
O414   O     0.89496   0.58086   0.25502   0.00000  Uiso   1.00
O415   O     0.77171   0.41914   0.24498   0.00000  Uiso   1.00
O416   O     0.75518   0.49263   0.30855   0.00000  Uiso   1.00
O417   O     0.91149   0.50737   0.19146   0.00000  Uiso   1.00
O418   O     0.85532   0.50207   0.31671   0.00000  Uiso   1.00
O419   O     0.81134   0.49793   0.18329   0.00000  Uiso   1.00
O420   O     0.87132   0.34781   0.29542   0.00000  Uiso   1.00
C421   C     0.18026   0.93320   0.25347   0.00000  Uiso   1.00
C422   C     0.20539   0.83758   0.16687   0.00000  Uiso   1.00
C423   C     0.10444   0.82216   0.38052   0.00000  Uiso   1.00
C424   C     0.22879   0.84241   0.11920   0.00000  Uiso   1.00
C425   C     0.02605   0.78052   0.44293   0.00000  Uiso   1.00
C426   C     0.31041   0.87526   0.05498   0.00000  Uiso   1.00
C427   C     0.04311   0.79407   0.39901   0.00000  Uiso   1.00
C428   C     0.29199   0.86532   0.09965   0.00000  Uiso   1.00
C429   C     0.14739   0.83865   0.40666   0.00000  Uiso   1.00
C430   C     0.18513   0.82712   0.09340   0.00000  Uiso   1.00
C431   C     0.13242   0.82380   0.45060   0.00000  Uiso   1.00
C432   C     0.15314   0.73356   0.24685   0.00000  Uiso   1.00
C433   C     0.20258   0.83586   0.04814   0.00000  Uiso   1.00
C434   C     0.07030   0.79454   0.46863   0.00000  Uiso   1.00
C435   C     0.26605   0.86169   0.02935   0.00000  Uiso   1.00
C436   C     0.17751   0.83632   0.47676   0.00000  Uiso   1.00
C437   C     0.15836   0.82132   0.02148   0.00000  Uiso   1.00
C438   C     0.27015   0.68380   0.29126   0.00000  Uiso   1.00
C439   C     0.27780   0.98960   0.33010   0.00000  Uiso   1.00
C440   C     0.01416   0.99108   0.32764   0.00000  Uiso   1.00
C441   C     0.16186   0.97995   0.16784   0.00000  Uiso   1.00
C442   C     0.16801   0.69196   0.13787   0.00000  Uiso   1.00
C443   C     0.09597   0.79171   0.03785   0.00000  Uiso   1.00
C444   C     0.20887   0.68370   0.09206   0.00000  Uiso   1.00
C445   C     0.24142   0.86229   0.45951   0.00000  Uiso   1.00
C446   C     0.05308   0.77871   0.01187   0.00000  Uiso   1.00
C447   C     0.28460   0.87435   0.48532   0.00000  Uiso   1.00
C448   C     0.18401   0.98886   0.25978   0.00000  Uiso   1.00
C449   C     0.15191   0.67875   0.23874   0.00000  Uiso   1.00
C450   C     0.12795   0.82931   0.33312   0.00000  Uiso   1.00
Cu451  Cu    0.10737   0.82775   0.24517   0.00000  Uiso   1.00
Cu452  Cu    0.22596   0.83892   0.25484   0.00000  Uiso   1.00
H453   H     0.00589   0.75592   0.02584   0.00000  Uiso   1.00
H454   H     0.26060   0.87318   0.42579   0.00000  Uiso   1.00
H455   H     0.00115   0.87141   0.28458   0.00000  Uiso   1.00
H456   H     0.33208   0.79505   0.21556   0.00000  Uiso   1.00
H457   H     0.29349   0.72595   0.29278   0.00000  Uiso   1.00
H458   H     0.29570   0.66797   0.25958   0.00000  Uiso   1.00
H459   H     0.25680   0.67600   0.36107   0.00000  Uiso   1.00
H460   H     0.25184   0.94798   0.33086   0.00000  Uiso   1.00
H461   H     0.03526   0.96971   0.29778   0.00000  Uiso   1.00
H462   H     0.01782   0.97166   0.35669   0.00000  Uiso   1.00
H463   H     0.04120   0.69901   0.32712   0.00000  Uiso   1.00
H464   H     0.33309   0.89397   0.47059   0.00000  Uiso   1.00
H465   H     0.14188   0.94256   0.15250   0.00000  Uiso   1.00
H466   H     0.20994   0.97650   0.17038   0.00000  Uiso   1.00
H467   H     0.12001   0.69526   0.13552   0.00000  Uiso   1.00
H468   H     0.19034   0.72923   0.15199   0.00000  Uiso   1.00
H469   H     0.25758   0.68157   0.09361   0.00000  Uiso   1.00
H470   H     0.21236   0.71715   0.07116   0.00000  Uiso   1.00
H471   H     0.18728   0.98014   0.07688   0.00000  Uiso   1.00
H472   H     0.13700   0.81007   0.10993   0.00000  Uiso   1.00
H473   H     0.19278   0.86237   0.39129   0.00000  Uiso   1.00
H474   H     0.32644   0.87736   0.11909   0.00000  Uiso   1.00
H475   H     0.00927   0.78098   0.37923   0.00000  Uiso   1.00
H476   H     0.31190   0.75815   0.45665   0.00000  Uiso   1.00
H477   H     0.02586   0.89436   0.04053   0.00000  Uiso   1.00
H478   H     0.07872   0.77657   0.07048   0.00000  Uiso   1.00
N479   N     0.31506   0.84735   0.26212   0.00000  Uiso   1.00
N480   N     0.01827   0.81932   0.23788   0.00000  Uiso   1.00
O481   O     0.12815   0.90476   0.24686   0.00000  Uiso   1.00
O482   O     0.11903   0.98579   0.20889   0.00000  Uiso   1.00
O483   O     0.20518   0.76191   0.25314   0.00000  Uiso   1.00
O484   O     0.22829   0.91420   0.25502   0.00000  Uiso   1.00
O485   O     0.10504   0.75247   0.24498   0.00000  Uiso   1.00
O486   O     0.08851   0.82597   0.30855   0.00000  Uiso   1.00
O487   O     0.24482   0.84070   0.19146   0.00000  Uiso   1.00
O488   O     0.18866   0.83540   0.31671   0.00000  Uiso   1.00
O489   O     0.14468   0.83126   0.18329   0.00000  Uiso   1.00
O490   O     0.20465   0.68114   0.29542   0.00000  Uiso   1.00
C491   C     0.51360   0.93320   0.25347   0.00000  Uiso   1.00
C492   C     0.53873   0.83758   0.16687   0.00000  Uiso   1.00
C493   C     0.43778   0.82216   0.38052   0.00000  Uiso   1.00
C494   C     0.56213   0.84241   0.11920   0.00000  Uiso   1.00
C495   C     0.35938   0.78052   0.44293   0.00000  Uiso   1.00
C496   C     0.64374   0.87526   0.05498   0.00000  Uiso   1.00
C497   C     0.37644   0.79407   0.39901   0.00000  Uiso   1.00
C498   C     0.62533   0.86532   0.09965   0.00000  Uiso   1.00
C499   C     0.48073   0.83865   0.40666   0.00000  Uiso   1.00
C500   C     0.51846   0.82712   0.09340   0.00000  Uiso   1.00
C501   C     0.46575   0.82380   0.45060   0.00000  Uiso   1.00
C502   C     0.48647   0.73356   0.24685   0.00000  Uiso   1.00
C503   C     0.53591   0.83586   0.04814   0.00000  Uiso   1.00
C504   C     0.40363   0.79454   0.46863   0.00000  Uiso   1.00
C505   C     0.59938   0.86169   0.02935   0.00000  Uiso   1.00
C506   C     0.51084   0.83632   0.47676   0.00000  Uiso   1.00
C507   C     0.49169   0.82132   0.02148   0.00000  Uiso   1.00
C508   C     0.60348   0.68380   0.29126   0.00000  Uiso   1.00
C509   C     0.61114   0.98960   0.33010   0.00000  Uiso   1.00
C510   C     0.34749   0.99108   0.32764   0.00000  Uiso   1.00
C511   C     0.49520   0.97995   0.16784   0.00000  Uiso   1.00
C512   C     0.50134   0.69196   0.13787   0.00000  Uiso   1.00
C513   C     0.42930   0.79171   0.03785   0.00000  Uiso   1.00
C514   C     0.54221   0.68370   0.09206   0.00000  Uiso   1.00
C515   C     0.57475   0.86229   0.45951   0.00000  Uiso   1.00
C516   C     0.38641   0.77871   0.01187   0.00000  Uiso   1.00
C517   C     0.61794   0.87435   0.48532   0.00000  Uiso   1.00
C518   C     0.51734   0.98886   0.25978   0.00000  Uiso   1.00
C519   C     0.48525   0.67875   0.23874   0.00000  Uiso   1.00
C520   C     0.46128   0.82931   0.33312   0.00000  Uiso   1.00
Cu521  Cu    0.44071   0.82775   0.24517   0.00000  Uiso   1.00
Cu522  Cu    0.55929   0.83892   0.25484   0.00000  Uiso   1.00
H523   H     0.33922   0.75592   0.02584   0.00000  Uiso   1.00
H524   H     0.59394   0.87318   0.42579   0.00000  Uiso   1.00
H525   H     0.33449   0.87141   0.28458   0.00000  Uiso   1.00
H526   H     0.66541   0.79505   0.21556   0.00000  Uiso   1.00
H527   H     0.62682   0.72595   0.29278   0.00000  Uiso   1.00
H528   H     0.62903   0.66797   0.25958   0.00000  Uiso   1.00
H529   H     0.59014   0.67600   0.36107   0.00000  Uiso   1.00
H530   H     0.58518   0.94798   0.33086   0.00000  Uiso   1.00
H531   H     0.36860   0.96971   0.29778   0.00000  Uiso   1.00
H532   H     0.35115   0.97166   0.35669   0.00000  Uiso   1.00
H533   H     0.37453   0.69901   0.32712   0.00000  Uiso   1.00
H534   H     0.66643   0.89397   0.47059   0.00000  Uiso   1.00
H535   H     0.47521   0.94256   0.15250   0.00000  Uiso   1.00
H536   H     0.54327   0.97650   0.17038   0.00000  Uiso   1.00
H537   H     0.45335   0.69526   0.13552   0.00000  Uiso   1.00
H538   H     0.52368   0.72923   0.15199   0.00000  Uiso   1.00
H539   H     0.59091   0.68157   0.09361   0.00000  Uiso   1.00
H540   H     0.54569   0.71715   0.07116   0.00000  Uiso   1.00
H541   H     0.52061   0.98014   0.07688   0.00000  Uiso   1.00
H542   H     0.47033   0.81007   0.10993   0.00000  Uiso   1.00
H543   H     0.52611   0.86237   0.39129   0.00000  Uiso   1.00
H544   H     0.65977   0.87736   0.11909   0.00000  Uiso   1.00
H545   H     0.34261   0.78098   0.37923   0.00000  Uiso   1.00
H546   H     0.64523   0.75815   0.45665   0.00000  Uiso   1.00
H547   H     0.35919   0.89436   0.04053   0.00000  Uiso   1.00
H548   H     0.41206   0.77657   0.07048   0.00000  Uiso   1.00
N549   N     0.64839   0.84735   0.26212   0.00000  Uiso   1.00
N550   N     0.35161   0.81932   0.23788   0.00000  Uiso   1.00
O551   O     0.46148   0.90476   0.24686   0.00000  Uiso   1.00
O552   O     0.45237   0.98579   0.20889   0.00000  Uiso   1.00
O553   O     0.53852   0.76191   0.25314   0.00000  Uiso   1.00
O554   O     0.56163   0.91420   0.25502   0.00000  Uiso   1.00
O555   O     0.43837   0.75247   0.24498   0.00000  Uiso   1.00
O556   O     0.42185   0.82597   0.30855   0.00000  Uiso   1.00
O557   O     0.57815   0.84070   0.19146   0.00000  Uiso   1.00
O558   O     0.52199   0.83540   0.31671   0.00000  Uiso   1.00
O559   O     0.47801   0.83126   0.18329   0.00000  Uiso   1.00
O560   O     0.53798   0.68114   0.29542   0.00000  Uiso   1.00
C561   C     0.84693   0.93320   0.25347   0.00000  Uiso   1.00
C562   C     0.87206   0.83758   0.16687   0.00000  Uiso   1.00
C563   C     0.77111   0.82216   0.38052   0.00000  Uiso   1.00
C564   C     0.89546   0.84241   0.11920   0.00000  Uiso   1.00
C565   C     0.69271   0.78052   0.44293   0.00000  Uiso   1.00
C566   C     0.97708   0.87526   0.05498   0.00000  Uiso   1.00
C567   C     0.70978   0.79407   0.39901   0.00000  Uiso   1.00
C568   C     0.95866   0.86532   0.09965   0.00000  Uiso   1.00
C569   C     0.81406   0.83865   0.40666   0.00000  Uiso   1.00
C570   C     0.85180   0.82712   0.09340   0.00000  Uiso   1.00
C571   C     0.79908   0.82380   0.45060   0.00000  Uiso   1.00
C572   C     0.81980   0.73356   0.24685   0.00000  Uiso   1.00
C573   C     0.86924   0.83586   0.04814   0.00000  Uiso   1.00
C574   C     0.73696   0.79454   0.46863   0.00000  Uiso   1.00
C575   C     0.93271   0.86169   0.02935   0.00000  Uiso   1.00
C576   C     0.84417   0.83632   0.47676   0.00000  Uiso   1.00
C577   C     0.82502   0.82132   0.02148   0.00000  Uiso   1.00
C578   C     0.93681   0.68380   0.29126   0.00000  Uiso   1.00
C579   C     0.94447   0.98960   0.33010   0.00000  Uiso   1.00
C580   C     0.68082   0.99108   0.32764   0.00000  Uiso   1.00
C581   C     0.82853   0.97995   0.16784   0.00000  Uiso   1.00
C582   C     0.83467   0.69196   0.13787   0.00000  Uiso   1.00
C583   C     0.76264   0.79171   0.03785   0.00000  Uiso   1.00
C584   C     0.87554   0.68370   0.09206   0.00000  Uiso   1.00
C585   C     0.90808   0.86229   0.45951   0.00000  Uiso   1.00
C586   C     0.71975   0.77871   0.01187   0.00000  Uiso   1.00
C587   C     0.95127   0.87435   0.48532   0.00000  Uiso   1.00
C588   C     0.85068   0.98886   0.25978   0.00000  Uiso   1.00
C589   C     0.81858   0.67875   0.23874   0.00000  Uiso   1.00
C590   C     0.79461   0.82931   0.33312   0.00000  Uiso   1.00
Cu591  Cu    0.77404   0.82775   0.24517   0.00000  Uiso   1.00
Cu592  Cu    0.89263   0.83892   0.25484   0.00000  Uiso   1.00
H593   H     0.67256   0.75592   0.02584   0.00000  Uiso   1.00
H594   H     0.92727   0.87318   0.42579   0.00000  Uiso   1.00
H595   H     0.66782   0.87141   0.28458   0.00000  Uiso   1.00
H596   H     0.99874   0.79505   0.21556   0.00000  Uiso   1.00
H597   H     0.96016   0.72595   0.29278   0.00000  Uiso   1.00
H598   H     0.96236   0.66797   0.25958   0.00000  Uiso   1.00
H599   H     0.92347   0.67600   0.36107   0.00000  Uiso   1.00
H600   H     0.91851   0.94798   0.33086   0.00000  Uiso   1.00
H601   H     0.70193   0.96971   0.29778   0.00000  Uiso   1.00
H602   H     0.68448   0.97166   0.35669   0.00000  Uiso   1.00
H603   H     0.70787   0.69901   0.32712   0.00000  Uiso   1.00
H604   H     0.99976   0.89397   0.47059   0.00000  Uiso   1.00
H605   H     0.80855   0.94256   0.15250   0.00000  Uiso   1.00
H606   H     0.87660   0.97650   0.17038   0.00000  Uiso   1.00
H607   H     0.78668   0.69526   0.13552   0.00000  Uiso   1.00
H608   H     0.85701   0.72923   0.15199   0.00000  Uiso   1.00
H609   H     0.92424   0.68157   0.09361   0.00000  Uiso   1.00
H610   H     0.87902   0.71715   0.07116   0.00000  Uiso   1.00
H611   H     0.85395   0.98014   0.07688   0.00000  Uiso   1.00
H612   H     0.80367   0.81007   0.10993   0.00000  Uiso   1.00
H613   H     0.85944   0.86237   0.39129   0.00000  Uiso   1.00
H614   H     0.99311   0.87736   0.11909   0.00000  Uiso   1.00
H615   H     0.67594   0.78098   0.37923   0.00000  Uiso   1.00
H616   H     0.97856   0.75815   0.45665   0.00000  Uiso   1.00
H617   H     0.69252   0.89436   0.04053   0.00000  Uiso   1.00
H618   H     0.74539   0.77657   0.07048   0.00000  Uiso   1.00
N619   N     0.98173   0.84735   0.26212   0.00000  Uiso   1.00
N620   N     0.68494   0.81932   0.23788   0.00000  Uiso   1.00
O621   O     0.79482   0.90476   0.24686   0.00000  Uiso   1.00
O622   O     0.78570   0.98579   0.20889   0.00000  Uiso   1.00
O623   O     0.87185   0.76191   0.25314   0.00000  Uiso   1.00
O624   O     0.89496   0.91420   0.25502   0.00000  Uiso   1.00
O625   O     0.77171   0.75247   0.24498   0.00000  Uiso   1.00
O626   O     0.75518   0.82597   0.30855   0.00000  Uiso   1.00
O627   O     0.91149   0.84070   0.19146   0.00000  Uiso   1.00
O628   O     0.85532   0.83540   0.31671   0.00000  Uiso   1.00
O629   O     0.81134   0.83126   0.18329   0.00000  Uiso   1.00
O630   O     0.87132   0.68114   0.29542   0.00000  Uiso   1.00
C631   C     0.18026   0.26654   0.75347   0.00000  Uiso   1.00
C632   C     0.20539   0.17091   0.66687   0.00000  Uiso   1.00
C633   C     0.10444   0.15550   0.88052   0.00000  Uiso   1.00
C634   C     0.22879   0.17574   0.61920   0.00000  Uiso   1.00
C635   C     0.02605   0.11386   0.94293   0.00000  Uiso   1.00
C636   C     0.31041   0.20859   0.55498   0.00000  Uiso   1.00
C637   C     0.04311   0.12740   0.89901   0.00000  Uiso   1.00
C638   C     0.29199   0.19866   0.59965   0.00000  Uiso   1.00
C639   C     0.14739   0.17198   0.90666   0.00000  Uiso   1.00
C640   C     0.18513   0.16045   0.59340   0.00000  Uiso   1.00
C641   C     0.13242   0.15714   0.95060   0.00000  Uiso   1.00
C642   C     0.15314   0.06690   0.74685   0.00000  Uiso   1.00
C643   C     0.20258   0.16919   0.54814   0.00000  Uiso   1.00
C644   C     0.07030   0.12787   0.96863   0.00000  Uiso   1.00
C645   C     0.26605   0.19502   0.52935   0.00000  Uiso   1.00
C646   C     0.17751   0.16965   0.97676   0.00000  Uiso   1.00
C647   C     0.15836   0.15466   0.52148   0.00000  Uiso   1.00
C648   C     0.27015   0.01714   0.79126   0.00000  Uiso   1.00
C649   C     0.27780   0.32293   0.83010   0.00000  Uiso   1.00
C650   C     0.01416   0.32441   0.82764   0.00000  Uiso   1.00
C651   C     0.16186   0.31329   0.66784   0.00000  Uiso   1.00
C652   C     0.16801   0.02529   0.63787   0.00000  Uiso   1.00
C653   C     0.09597   0.12505   0.53785   0.00000  Uiso   1.00
C654   C     0.20887   0.01703   0.59206   0.00000  Uiso   1.00
C655   C     0.24142   0.19562   0.95951   0.00000  Uiso   1.00
C656   C     0.05308   0.11205   0.51187   0.00000  Uiso   1.00
C657   C     0.28460   0.20768   0.98532   0.00000  Uiso   1.00
C658   C     0.18401   0.32220   0.75978   0.00000  Uiso   1.00
C659   C     0.15191   0.01209   0.73874   0.00000  Uiso   1.00
C660   C     0.12795   0.16264   0.83312   0.00000  Uiso   1.00
Cu661  Cu    0.10737   0.16108   0.74517   0.00000  Uiso   1.00
Cu662  Cu    0.22596   0.17225   0.75484   0.00000  Uiso   1.00
H663   H     0.00589   0.08926   0.52584   0.00000  Uiso   1.00
H664   H     0.26060   0.20651   0.92579   0.00000  Uiso   1.00
H665   H     0.00115   0.20475   0.78458   0.00000  Uiso   1.00
H666   H     0.33208   0.12838   0.71556   0.00000  Uiso   1.00
H667   H     0.29349   0.05928   0.79278   0.00000  Uiso   1.00
H668   H     0.29570   0.00130   0.75958   0.00000  Uiso   1.00
H669   H     0.25680   0.00933   0.86107   0.00000  Uiso   1.00
H670   H     0.25184   0.28131   0.83086   0.00000  Uiso   1.00
H671   H     0.03526   0.30305   0.79778   0.00000  Uiso   1.00
H672   H     0.01782   0.30500   0.85669   0.00000  Uiso   1.00
H673   H     0.04120   0.03234   0.82712   0.00000  Uiso   1.00
H674   H     0.33309   0.22731   0.97059   0.00000  Uiso   1.00
H675   H     0.14188   0.27589   0.65250   0.00000  Uiso   1.00
H676   H     0.20994   0.30984   0.67038   0.00000  Uiso   1.00
H677   H     0.12001   0.02859   0.63552   0.00000  Uiso   1.00
H678   H     0.19034   0.06256   0.65199   0.00000  Uiso   1.00
H679   H     0.25758   0.01490   0.59361   0.00000  Uiso   1.00
H680   H     0.21236   0.05048   0.57116   0.00000  Uiso   1.00
H681   H     0.18728   0.31347   0.57688   0.00000  Uiso   1.00
H682   H     0.13700   0.14340   0.60993   0.00000  Uiso   1.00
H683   H     0.19278   0.19571   0.89129   0.00000  Uiso   1.00
H684   H     0.32644   0.21069   0.61909   0.00000  Uiso   1.00
H685   H     0.00927   0.11431   0.87923   0.00000  Uiso   1.00
H686   H     0.31190   0.09148   0.95665   0.00000  Uiso   1.00
H687   H     0.02586   0.22770   0.54053   0.00000  Uiso   1.00
H688   H     0.07872   0.10991   0.57048   0.00000  Uiso   1.00
N689   N     0.31506   0.18068   0.76212   0.00000  Uiso   1.00
N690   N     0.01827   0.15265   0.73788   0.00000  Uiso   1.00
O691   O     0.12815   0.23809   0.74686   0.00000  Uiso   1.00
O692   O     0.11903   0.31913   0.70889   0.00000  Uiso   1.00
O693   O     0.20518   0.09524   0.75314   0.00000  Uiso   1.00
O694   O     0.22829   0.24753   0.75502   0.00000  Uiso   1.00
O695   O     0.10504   0.08580   0.74498   0.00000  Uiso   1.00
O696   O     0.08851   0.15930   0.80855   0.00000  Uiso   1.00
O697   O     0.24482   0.17403   0.69146   0.00000  Uiso   1.00
O698   O     0.18866   0.16874   0.81671   0.00000  Uiso   1.00
O699   O     0.14468   0.16460   0.68329   0.00000  Uiso   1.00
O700   O     0.20465   0.01448   0.79542   0.00000  Uiso   1.00
C701   C     0.51360   0.26654   0.75347   0.00000  Uiso   1.00
C702   C     0.53873   0.17091   0.66687   0.00000  Uiso   1.00
C703   C     0.43778   0.15550   0.88052   0.00000  Uiso   1.00
C704   C     0.56213   0.17574   0.61920   0.00000  Uiso   1.00
C705   C     0.35938   0.11386   0.94293   0.00000  Uiso   1.00
C706   C     0.64374   0.20859   0.55498   0.00000  Uiso   1.00
C707   C     0.37644   0.12740   0.89901   0.00000  Uiso   1.00
C708   C     0.62533   0.19866   0.59965   0.00000  Uiso   1.00
C709   C     0.48073   0.17198   0.90666   0.00000  Uiso   1.00
C710   C     0.51846   0.16045   0.59340   0.00000  Uiso   1.00
C711   C     0.46575   0.15714   0.95060   0.00000  Uiso   1.00
C712   C     0.48647   0.06690   0.74685   0.00000  Uiso   1.00
C713   C     0.53591   0.16919   0.54814   0.00000  Uiso   1.00
C714   C     0.40363   0.12787   0.96863   0.00000  Uiso   1.00
C715   C     0.59938   0.19502   0.52935   0.00000  Uiso   1.00
C716   C     0.51084   0.16965   0.97676   0.00000  Uiso   1.00
C717   C     0.49169   0.15466   0.52148   0.00000  Uiso   1.00
C718   C     0.60348   0.01714   0.79126   0.00000  Uiso   1.00
C719   C     0.61114   0.32293   0.83010   0.00000  Uiso   1.00
C720   C     0.34749   0.32441   0.82764   0.00000  Uiso   1.00
C721   C     0.49520   0.31329   0.66784   0.00000  Uiso   1.00
C722   C     0.50134   0.02529   0.63787   0.00000  Uiso   1.00
C723   C     0.42930   0.12505   0.53785   0.00000  Uiso   1.00
C724   C     0.54221   0.01703   0.59206   0.00000  Uiso   1.00
C725   C     0.57475   0.19562   0.95951   0.00000  Uiso   1.00
C726   C     0.38641   0.11205   0.51187   0.00000  Uiso   1.00
C727   C     0.61794   0.20768   0.98532   0.00000  Uiso   1.00
C728   C     0.51734   0.32220   0.75978   0.00000  Uiso   1.00
C729   C     0.48525   0.01209   0.73874   0.00000  Uiso   1.00
C730   C     0.46128   0.16264   0.83312   0.00000  Uiso   1.00
Cu731  Cu    0.44071   0.16108   0.74517   0.00000  Uiso   1.00
Cu732  Cu    0.55929   0.17225   0.75484   0.00000  Uiso   1.00
H733   H     0.33922   0.08926   0.52584   0.00000  Uiso   1.00
H734   H     0.59394   0.20651   0.92579   0.00000  Uiso   1.00
H735   H     0.33449   0.20475   0.78458   0.00000  Uiso   1.00
H736   H     0.66541   0.12838   0.71556   0.00000  Uiso   1.00
H737   H     0.62682   0.05928   0.79278   0.00000  Uiso   1.00
H738   H     0.62903   0.00130   0.75958   0.00000  Uiso   1.00
H739   H     0.59014   0.00933   0.86107   0.00000  Uiso   1.00
H740   H     0.58518   0.28131   0.83086   0.00000  Uiso   1.00
H741   H     0.36860   0.30305   0.79778   0.00000  Uiso   1.00
H742   H     0.35115   0.30500   0.85669   0.00000  Uiso   1.00
H743   H     0.37453   0.03234   0.82712   0.00000  Uiso   1.00
H744   H     0.66643   0.22731   0.97059   0.00000  Uiso   1.00
H745   H     0.47521   0.27589   0.65250   0.00000  Uiso   1.00
H746   H     0.54327   0.30984   0.67038   0.00000  Uiso   1.00
H747   H     0.45335   0.02859   0.63552   0.00000  Uiso   1.00
H748   H     0.52368   0.06256   0.65199   0.00000  Uiso   1.00
H749   H     0.59091   0.01490   0.59361   0.00000  Uiso   1.00
H750   H     0.54569   0.05048   0.57116   0.00000  Uiso   1.00
H751   H     0.52061   0.31347   0.57688   0.00000  Uiso   1.00
H752   H     0.47033   0.14340   0.60993   0.00000  Uiso   1.00
H753   H     0.52611   0.19571   0.89129   0.00000  Uiso   1.00
H754   H     0.65977   0.21069   0.61909   0.00000  Uiso   1.00
H755   H     0.34261   0.11431   0.87923   0.00000  Uiso   1.00
H756   H     0.64523   0.09148   0.95665   0.00000  Uiso   1.00
H757   H     0.35919   0.22770   0.54053   0.00000  Uiso   1.00
H758   H     0.41206   0.10991   0.57048   0.00000  Uiso   1.00
N759   N     0.64839   0.18068   0.76212   0.00000  Uiso   1.00
N760   N     0.35161   0.15265   0.73788   0.00000  Uiso   1.00
O761   O     0.46148   0.23809   0.74686   0.00000  Uiso   1.00
O762   O     0.45237   0.31913   0.70889   0.00000  Uiso   1.00
O763   O     0.53852   0.09524   0.75314   0.00000  Uiso   1.00
O764   O     0.56163   0.24753   0.75502   0.00000  Uiso   1.00
O765   O     0.43837   0.08580   0.74498   0.00000  Uiso   1.00
O766   O     0.42185   0.15930   0.80855   0.00000  Uiso   1.00
O767   O     0.57815   0.17403   0.69146   0.00000  Uiso   1.00
O768   O     0.52199   0.16874   0.81671   0.00000  Uiso   1.00
O769   O     0.47801   0.16460   0.68329   0.00000  Uiso   1.00
O770   O     0.53798   0.01448   0.79542   0.00000  Uiso   1.00
C771   C     0.84693   0.26654   0.75347   0.00000  Uiso   1.00
C772   C     0.87206   0.17091   0.66687   0.00000  Uiso   1.00
C773   C     0.77111   0.15550   0.88052   0.00000  Uiso   1.00
C774   C     0.89546   0.17574   0.61920   0.00000  Uiso   1.00
C775   C     0.69271   0.11386   0.94293   0.00000  Uiso   1.00
C776   C     0.97708   0.20859   0.55498   0.00000  Uiso   1.00
C777   C     0.70978   0.12740   0.89901   0.00000  Uiso   1.00
C778   C     0.95866   0.19866   0.59965   0.00000  Uiso   1.00
C779   C     0.81406   0.17198   0.90666   0.00000  Uiso   1.00
C780   C     0.85180   0.16045   0.59340   0.00000  Uiso   1.00
C781   C     0.79908   0.15714   0.95060   0.00000  Uiso   1.00
C782   C     0.81980   0.06690   0.74685   0.00000  Uiso   1.00
C783   C     0.86924   0.16919   0.54814   0.00000  Uiso   1.00
C784   C     0.73696   0.12787   0.96863   0.00000  Uiso   1.00
C785   C     0.93271   0.19502   0.52935   0.00000  Uiso   1.00
C786   C     0.84417   0.16965   0.97676   0.00000  Uiso   1.00
C787   C     0.82502   0.15466   0.52148   0.00000  Uiso   1.00
C788   C     0.93681   0.01714   0.79126   0.00000  Uiso   1.00
C789   C     0.94447   0.32293   0.83010   0.00000  Uiso   1.00
C790   C     0.68082   0.32441   0.82764   0.00000  Uiso   1.00
C791   C     0.82853   0.31329   0.66784   0.00000  Uiso   1.00
C792   C     0.83467   0.02529   0.63787   0.00000  Uiso   1.00
C793   C     0.76264   0.12505   0.53785   0.00000  Uiso   1.00
C794   C     0.87554   0.01703   0.59206   0.00000  Uiso   1.00
C795   C     0.90808   0.19562   0.95951   0.00000  Uiso   1.00
C796   C     0.71975   0.11205   0.51187   0.00000  Uiso   1.00
C797   C     0.95127   0.20768   0.98532   0.00000  Uiso   1.00
C798   C     0.85068   0.32220   0.75978   0.00000  Uiso   1.00
C799   C     0.81858   0.01209   0.73874   0.00000  Uiso   1.00
C800   C     0.79461   0.16264   0.83312   0.00000  Uiso   1.00
Cu801  Cu    0.77404   0.16108   0.74517   0.00000  Uiso   1.00
Cu802  Cu    0.89263   0.17225   0.75484   0.00000  Uiso   1.00
H803   H     0.67256   0.08926   0.52584   0.00000  Uiso   1.00
H804   H     0.92727   0.20651   0.92579   0.00000  Uiso   1.00
H805   H     0.66782   0.20475   0.78458   0.00000  Uiso   1.00
H806   H     0.99874   0.12838   0.71556   0.00000  Uiso   1.00
H807   H     0.96016   0.05928   0.79278   0.00000  Uiso   1.00
H808   H     0.96236   0.00130   0.75958   0.00000  Uiso   1.00
H809   H     0.92347   0.00933   0.86107   0.00000  Uiso   1.00
H810   H     0.91851   0.28131   0.83086   0.00000  Uiso   1.00
H811   H     0.70193   0.30305   0.79778   0.00000  Uiso   1.00
H812   H     0.68448   0.30500   0.85669   0.00000  Uiso   1.00
H813   H     0.70787   0.03234   0.82712   0.00000  Uiso   1.00
H814   H     0.99976   0.22731   0.97059   0.00000  Uiso   1.00
H815   H     0.80855   0.27589   0.65250   0.00000  Uiso   1.00
H816   H     0.87660   0.30984   0.67038   0.00000  Uiso   1.00
H817   H     0.78668   0.02859   0.63552   0.00000  Uiso   1.00
H818   H     0.85701   0.06256   0.65199   0.00000  Uiso   1.00
H819   H     0.92424   0.01490   0.59361   0.00000  Uiso   1.00
H820   H     0.87902   0.05048   0.57116   0.00000  Uiso   1.00
H821   H     0.85395   0.31347   0.57688   0.00000  Uiso   1.00
H822   H     0.80367   0.14340   0.60993   0.00000  Uiso   1.00
H823   H     0.85944   0.19571   0.89129   0.00000  Uiso   1.00
H824   H     0.99311   0.21069   0.61909   0.00000  Uiso   1.00
H825   H     0.67594   0.11431   0.87923   0.00000  Uiso   1.00
H826   H     0.97856   0.09148   0.95665   0.00000  Uiso   1.00
H827   H     0.69252   0.22770   0.54053   0.00000  Uiso   1.00
H828   H     0.74539   0.10991   0.57048   0.00000  Uiso   1.00
N829   N     0.98173   0.18068   0.76212   0.00000  Uiso   1.00
N830   N     0.68494   0.15265   0.73788   0.00000  Uiso   1.00
O831   O     0.79482   0.23809   0.74686   0.00000  Uiso   1.00
O832   O     0.78570   0.31913   0.70889   0.00000  Uiso   1.00
O833   O     0.87185   0.09524   0.75314   0.00000  Uiso   1.00
O834   O     0.89496   0.24753   0.75502   0.00000  Uiso   1.00
O835   O     0.77171   0.08580   0.74498   0.00000  Uiso   1.00
O836   O     0.75518   0.15930   0.80855   0.00000  Uiso   1.00
O837   O     0.91149   0.17403   0.69146   0.00000  Uiso   1.00
O838   O     0.85532   0.16874   0.81671   0.00000  Uiso   1.00
O839   O     0.81134   0.16460   0.68329   0.00000  Uiso   1.00
O840   O     0.87132   0.01448   0.79542   0.00000  Uiso   1.00
C841   C     0.18026   0.59987   0.75347   0.00000  Uiso   1.00
C842   C     0.20539   0.50425   0.66687   0.00000  Uiso   1.00
C843   C     0.10444   0.48883   0.88052   0.00000  Uiso   1.00
C844   C     0.22879   0.50907   0.61920   0.00000  Uiso   1.00
C845   C     0.02605   0.44719   0.94293   0.00000  Uiso   1.00
C846   C     0.31041   0.54193   0.55498   0.00000  Uiso   1.00
C847   C     0.04311   0.46073   0.89901   0.00000  Uiso   1.00
C848   C     0.29199   0.53199   0.59965   0.00000  Uiso   1.00
C849   C     0.14739   0.50531   0.90666   0.00000  Uiso   1.00
C850   C     0.18513   0.49379   0.59340   0.00000  Uiso   1.00
C851   C     0.13242   0.49047   0.95060   0.00000  Uiso   1.00
C852   C     0.15314   0.40023   0.74685   0.00000  Uiso   1.00
C853   C     0.20258   0.50252   0.54814   0.00000  Uiso   1.00
C854   C     0.07030   0.46120   0.96863   0.00000  Uiso   1.00
C855   C     0.26605   0.52836   0.52935   0.00000  Uiso   1.00
C856   C     0.17751   0.50298   0.97676   0.00000  Uiso   1.00
C857   C     0.15836   0.48799   0.52148   0.00000  Uiso   1.00
C858   C     0.27015   0.35047   0.79126   0.00000  Uiso   1.00
C859   C     0.27780   0.65627   0.83010   0.00000  Uiso   1.00
C860   C     0.01416   0.65774   0.82764   0.00000  Uiso   1.00
C861   C     0.16186   0.64662   0.66784   0.00000  Uiso   1.00
C862   C     0.16801   0.35863   0.63787   0.00000  Uiso   1.00
C863   C     0.09597   0.45838   0.53785   0.00000  Uiso   1.00
C864   C     0.20887   0.35036   0.59206   0.00000  Uiso   1.00
C865   C     0.24142   0.52895   0.95951   0.00000  Uiso   1.00
C866   C     0.05308   0.44538   0.51187   0.00000  Uiso   1.00
C867   C     0.28460   0.54102   0.98532   0.00000  Uiso   1.00
C868   C     0.18401   0.65553   0.75978   0.00000  Uiso   1.00
C869   C     0.15191   0.34542   0.73874   0.00000  Uiso   1.00
C870   C     0.12795   0.49598   0.83312   0.00000  Uiso   1.00
Cu871  Cu    0.10737   0.49441   0.74517   0.00000  Uiso   1.00
Cu872  Cu    0.22596   0.50559   0.75484   0.00000  Uiso   1.00
H873   H     0.00589   0.42259   0.52584   0.00000  Uiso   1.00
H874   H     0.26060   0.53985   0.92579   0.00000  Uiso   1.00
H875   H     0.00115   0.53808   0.78458   0.00000  Uiso   1.00
H876   H     0.33208   0.46171   0.71556   0.00000  Uiso   1.00
H877   H     0.29349   0.39261   0.79278   0.00000  Uiso   1.00
H878   H     0.29570   0.33464   0.75958   0.00000  Uiso   1.00
H879   H     0.25680   0.34267   0.86107   0.00000  Uiso   1.00
H880   H     0.25184   0.61465   0.83086   0.00000  Uiso   1.00
H881   H     0.03526   0.63638   0.79778   0.00000  Uiso   1.00
H882   H     0.01782   0.63833   0.85669   0.00000  Uiso   1.00
H883   H     0.04120   0.36567   0.82712   0.00000  Uiso   1.00
H884   H     0.33309   0.56064   0.97059   0.00000  Uiso   1.00
H885   H     0.14188   0.60923   0.65250   0.00000  Uiso   1.00
H886   H     0.20994   0.64317   0.67038   0.00000  Uiso   1.00
H887   H     0.12001   0.36192   0.63552   0.00000  Uiso   1.00
H888   H     0.19034   0.39589   0.65199   0.00000  Uiso   1.00
H889   H     0.25758   0.34823   0.59361   0.00000  Uiso   1.00
H890   H     0.21236   0.38382   0.57116   0.00000  Uiso   1.00
H891   H     0.18728   0.64680   0.57688   0.00000  Uiso   1.00
H892   H     0.13700   0.47673   0.60993   0.00000  Uiso   1.00
H893   H     0.19278   0.52904   0.89129   0.00000  Uiso   1.00
H894   H     0.32644   0.54403   0.61909   0.00000  Uiso   1.00
H895   H     0.00927   0.44765   0.87923   0.00000  Uiso   1.00
H896   H     0.31190   0.42481   0.95665   0.00000  Uiso   1.00
H897   H     0.02586   0.56103   0.54053   0.00000  Uiso   1.00
H898   H     0.07872   0.44324   0.57048   0.00000  Uiso   1.00
N899   N     0.31506   0.51401   0.76212   0.00000  Uiso   1.00
N900   N     0.01827   0.48599   0.73788   0.00000  Uiso   1.00
O901   O     0.12815   0.57142   0.74686   0.00000  Uiso   1.00
O902   O     0.11903   0.65246   0.70889   0.00000  Uiso   1.00
O903   O     0.20518   0.42858   0.75314   0.00000  Uiso   1.00
O904   O     0.22829   0.58086   0.75502   0.00000  Uiso   1.00
O905   O     0.10504   0.41914   0.74498   0.00000  Uiso   1.00
O906   O     0.08851   0.49263   0.80855   0.00000  Uiso   1.00
O907   O     0.24482   0.50737   0.69146   0.00000  Uiso   1.00
O908   O     0.18866   0.50207   0.81671   0.00000  Uiso   1.00
O909   O     0.14468   0.49793   0.68329   0.00000  Uiso   1.00
O910   O     0.20465   0.34781   0.79542   0.00000  Uiso   1.00
C911   C     0.51360   0.59987   0.75347   0.00000  Uiso   1.00
C912   C     0.53873   0.50425   0.66687   0.00000  Uiso   1.00
C913   C     0.43778   0.48883   0.88052   0.00000  Uiso   1.00
C914   C     0.56213   0.50907   0.61920   0.00000  Uiso   1.00
C915   C     0.35938   0.44719   0.94293   0.00000  Uiso   1.00
C916   C     0.64374   0.54193   0.55498   0.00000  Uiso   1.00
C917   C     0.37644   0.46073   0.89901   0.00000  Uiso   1.00
C918   C     0.62533   0.53199   0.59965   0.00000  Uiso   1.00
C919   C     0.48073   0.50531   0.90666   0.00000  Uiso   1.00
C920   C     0.51846   0.49379   0.59340   0.00000  Uiso   1.00
C921   C     0.46575   0.49047   0.95060   0.00000  Uiso   1.00
C922   C     0.48647   0.40023   0.74685   0.00000  Uiso   1.00
C923   C     0.53591   0.50252   0.54814   0.00000  Uiso   1.00
C924   C     0.40363   0.46120   0.96863   0.00000  Uiso   1.00
C925   C     0.59938   0.52836   0.52935   0.00000  Uiso   1.00
C926   C     0.51084   0.50298   0.97676   0.00000  Uiso   1.00
C927   C     0.49169   0.48799   0.52148   0.00000  Uiso   1.00
C928   C     0.60348   0.35047   0.79126   0.00000  Uiso   1.00
C929   C     0.61114   0.65627   0.83010   0.00000  Uiso   1.00
C930   C     0.34749   0.65774   0.82764   0.00000  Uiso   1.00
C931   C     0.49520   0.64662   0.66784   0.00000  Uiso   1.00
C932   C     0.50134   0.35863   0.63787   0.00000  Uiso   1.00
C933   C     0.42930   0.45838   0.53785   0.00000  Uiso   1.00
C934   C     0.54221   0.35036   0.59206   0.00000  Uiso   1.00
C935   C     0.57475   0.52895   0.95951   0.00000  Uiso   1.00
C936   C     0.38641   0.44538   0.51187   0.00000  Uiso   1.00
C937   C     0.61794   0.54102   0.98532   0.00000  Uiso   1.00
C938   C     0.51734   0.65553   0.75978   0.00000  Uiso   1.00
C939   C     0.48525   0.34542   0.73874   0.00000  Uiso   1.00
C940   C     0.46128   0.49598   0.83312   0.00000  Uiso   1.00
Cu941  Cu    0.44071   0.49441   0.74517   0.00000  Uiso   1.00
Cu942  Cu    0.55929   0.50559   0.75484   0.00000  Uiso   1.00
H943   H     0.33922   0.42259   0.52584   0.00000  Uiso   1.00
H944   H     0.59394   0.53985   0.92579   0.00000  Uiso   1.00
H945   H     0.33449   0.53808   0.78458   0.00000  Uiso   1.00
H946   H     0.66541   0.46171   0.71556   0.00000  Uiso   1.00
H947   H     0.62682   0.39261   0.79278   0.00000  Uiso   1.00
H948   H     0.62903   0.33464   0.75958   0.00000  Uiso   1.00
H949   H     0.59014   0.34267   0.86107   0.00000  Uiso   1.00
H950   H     0.58518   0.61465   0.83086   0.00000  Uiso   1.00
H951   H     0.36860   0.63638   0.79778   0.00000  Uiso   1.00
H952   H     0.35115   0.63833   0.85669   0.00000  Uiso   1.00
H953   H     0.37453   0.36567   0.82712   0.00000  Uiso   1.00
H954   H     0.66643   0.56064   0.97059   0.00000  Uiso   1.00
H955   H     0.47521   0.60923   0.65250   0.00000  Uiso   1.00
H956   H     0.54327   0.64317   0.67038   0.00000  Uiso   1.00
H957   H     0.45335   0.36192   0.63552   0.00000  Uiso   1.00
H958   H     0.52368   0.39589   0.65199   0.00000  Uiso   1.00
H959   H     0.59091   0.34823   0.59361   0.00000  Uiso   1.00
H960   H     0.54569   0.38382   0.57116   0.00000  Uiso   1.00
H961   H     0.52061   0.64680   0.57688   0.00000  Uiso   1.00
H962   H     0.47033   0.47673   0.60993   0.00000  Uiso   1.00
H963   H     0.52611   0.52904   0.89129   0.00000  Uiso   1.00
H964   H     0.65977   0.54403   0.61909   0.00000  Uiso   1.00
H965   H     0.34261   0.44765   0.87923   0.00000  Uiso   1.00
H966   H     0.64523   0.42481   0.95665   0.00000  Uiso   1.00
H967   H     0.35919   0.56103   0.54053   0.00000  Uiso   1.00
H968   H     0.41206   0.44324   0.57048   0.00000  Uiso   1.00
N969   N     0.64839   0.51401   0.76212   0.00000  Uiso   1.00
N970   N     0.35161   0.48599   0.73788   0.00000  Uiso   1.00
O971   O     0.46148   0.57142   0.74686   0.00000  Uiso   1.00
O972   O     0.45237   0.65246   0.70889   0.00000  Uiso   1.00
O973   O     0.53852   0.42858   0.75314   0.00000  Uiso   1.00
O974   O     0.56163   0.58086   0.75502   0.00000  Uiso   1.00
O975   O     0.43837   0.41914   0.74498   0.00000  Uiso   1.00
O976   O     0.42185   0.49263   0.80855   0.00000  Uiso   1.00
O977   O     0.57815   0.50737   0.69146   0.00000  Uiso   1.00
O978   O     0.52199   0.50207   0.81671   0.00000  Uiso   1.00
O979   O     0.47801   0.49793   0.68329   0.00000  Uiso   1.00
O980   O     0.53798   0.34781   0.79542   0.00000  Uiso   1.00
C981   C     0.84693   0.59987   0.75347   0.00000  Uiso   1.00
C982   C     0.87206   0.50425   0.66687   0.00000  Uiso   1.00
C983   C     0.77111   0.48883   0.88052   0.00000  Uiso   1.00
C984   C     0.89546   0.50907   0.61920   0.00000  Uiso   1.00
C985   C     0.69271   0.44719   0.94293   0.00000  Uiso   1.00
C986   C     0.97708   0.54193   0.55498   0.00000  Uiso   1.00
C987   C     0.70978   0.46073   0.89901   0.00000  Uiso   1.00
C988   C     0.95866   0.53199   0.59965   0.00000  Uiso   1.00
C989   C     0.81406   0.50531   0.90666   0.00000  Uiso   1.00
C990   C     0.85180   0.49379   0.59340   0.00000  Uiso   1.00
C991   C     0.79908   0.49047   0.95060   0.00000  Uiso   1.00
C992   C     0.81980   0.40023   0.74685   0.00000  Uiso   1.00
C993   C     0.86924   0.50252   0.54814   0.00000  Uiso   1.00
C994   C     0.73696   0.46120   0.96863   0.00000  Uiso   1.00
C995   C     0.93271   0.52836   0.52935   0.00000  Uiso   1.00
C996   C     0.84417   0.50298   0.97676   0.00000  Uiso   1.00
C997   C     0.82502   0.48799   0.52148   0.00000  Uiso   1.00
C998   C     0.93681   0.35047   0.79126   0.00000  Uiso   1.00
C999   C     0.94447   0.65627   0.83010   0.00000  Uiso   1.00
C1000  C     0.68082   0.65774   0.82764   0.00000  Uiso   1.00
C1001  C     0.82853   0.64662   0.66784   0.00000  Uiso   1.00
C1002  C     0.83467   0.35863   0.63787   0.00000  Uiso   1.00
C1003  C     0.76264   0.45838   0.53785   0.00000  Uiso   1.00
C1004  C     0.87554   0.35036   0.59206   0.00000  Uiso   1.00
C1005  C     0.90808   0.52895   0.95951   0.00000  Uiso   1.00
C1006  C     0.71975   0.44538   0.51187   0.00000  Uiso   1.00
C1007  C     0.95127   0.54102   0.98532   0.00000  Uiso   1.00
C1008  C     0.85068   0.65553   0.75978   0.00000  Uiso   1.00
C1009  C     0.81858   0.34542   0.73874   0.00000  Uiso   1.00
C1010  C     0.79461   0.49598   0.83312   0.00000  Uiso   1.00
Cu1011 Cu    0.77404   0.49441   0.74517   0.00000  Uiso   1.00
Cu1012 Cu    0.89263   0.50559   0.75484   0.00000  Uiso   1.00
H1013  H     0.67256   0.42259   0.52584   0.00000  Uiso   1.00
H1014  H     0.92727   0.53985   0.92579   0.00000  Uiso   1.00
H1015  H     0.66782   0.53808   0.78458   0.00000  Uiso   1.00
H1016  H     0.99874   0.46171   0.71556   0.00000  Uiso   1.00
H1017  H     0.96016   0.39261   0.79278   0.00000  Uiso   1.00
H1018  H     0.96236   0.33464   0.75958   0.00000  Uiso   1.00
H1019  H     0.92347   0.34267   0.86107   0.00000  Uiso   1.00
H1020  H     0.91851   0.61465   0.83086   0.00000  Uiso   1.00
H1021  H     0.70193   0.63638   0.79778   0.00000  Uiso   1.00
H1022  H     0.68448   0.63833   0.85669   0.00000  Uiso   1.00
H1023  H     0.70787   0.36567   0.82712   0.00000  Uiso   1.00
H1024  H     0.99976   0.56064   0.97059   0.00000  Uiso   1.00
H1025  H     0.80855   0.60923   0.65250   0.00000  Uiso   1.00
H1026  H     0.87660   0.64317   0.67038   0.00000  Uiso   1.00
H1027  H     0.78668   0.36192   0.63552   0.00000  Uiso   1.00
H1028  H     0.85701   0.39589   0.65199   0.00000  Uiso   1.00
H1029  H     0.92424   0.34823   0.59361   0.00000  Uiso   1.00
H1030  H     0.87902   0.38382   0.57116   0.00000  Uiso   1.00
H1031  H     0.85395   0.64680   0.57688   0.00000  Uiso   1.00
H1032  H     0.80367   0.47673   0.60993   0.00000  Uiso   1.00
H1033  H     0.85944   0.52904   0.89129   0.00000  Uiso   1.00
H1034  H     0.99311   0.54403   0.61909   0.00000  Uiso   1.00
H1035  H     0.67594   0.44765   0.87923   0.00000  Uiso   1.00
H1036  H     0.97856   0.42481   0.95665   0.00000  Uiso   1.00
H1037  H     0.69252   0.56103   0.54053   0.00000  Uiso   1.00
H1038  H     0.74539   0.44324   0.57048   0.00000  Uiso   1.00
N1039  N     0.98173   0.51401   0.76212   0.00000  Uiso   1.00
N1040  N     0.68494   0.48599   0.73788   0.00000  Uiso   1.00
O1041  O     0.79482   0.57142   0.74686   0.00000  Uiso   1.00
O1042  O     0.78570   0.65246   0.70889   0.00000  Uiso   1.00
O1043  O     0.87185   0.42858   0.75314   0.00000  Uiso   1.00
O1044  O     0.89496   0.58086   0.75502   0.00000  Uiso   1.00
O1045  O     0.77171   0.41914   0.74498   0.00000  Uiso   1.00
O1046  O     0.75518   0.49263   0.80855   0.00000  Uiso   1.00
O1047  O     0.91149   0.50737   0.69146   0.00000  Uiso   1.00
O1048  O     0.85532   0.50207   0.81671   0.00000  Uiso   1.00
O1049  O     0.81134   0.49793   0.68329   0.00000  Uiso   1.00
O1050  O     0.87132   0.34781   0.79542   0.00000  Uiso   1.00
C1051  C     0.18026   0.93320   0.75347   0.00000  Uiso   1.00
C1052  C     0.20539   0.83758   0.66687   0.00000  Uiso   1.00
C1053  C     0.10444   0.82216   0.88052   0.00000  Uiso   1.00
C1054  C     0.22879   0.84241   0.61920   0.00000  Uiso   1.00
C1055  C     0.02605   0.78052   0.94293   0.00000  Uiso   1.00
C1056  C     0.31041   0.87526   0.55498   0.00000  Uiso   1.00
C1057  C     0.04311   0.79407   0.89901   0.00000  Uiso   1.00
C1058  C     0.29199   0.86532   0.59965   0.00000  Uiso   1.00
C1059  C     0.14739   0.83865   0.90666   0.00000  Uiso   1.00
C1060  C     0.18513   0.82712   0.59340   0.00000  Uiso   1.00
C1061  C     0.13242   0.82380   0.95060   0.00000  Uiso   1.00
C1062  C     0.15314   0.73356   0.74685   0.00000  Uiso   1.00
C1063  C     0.20258   0.83586   0.54814   0.00000  Uiso   1.00
C1064  C     0.07030   0.79454   0.96863   0.00000  Uiso   1.00
C1065  C     0.26605   0.86169   0.52935   0.00000  Uiso   1.00
C1066  C     0.17751   0.83632   0.97676   0.00000  Uiso   1.00
C1067  C     0.15836   0.82132   0.52148   0.00000  Uiso   1.00
C1068  C     0.27015   0.68380   0.79126   0.00000  Uiso   1.00
C1069  C     0.27780   0.98960   0.83010   0.00000  Uiso   1.00
C1070  C     0.01416   0.99108   0.82764   0.00000  Uiso   1.00
C1071  C     0.16186   0.97995   0.66784   0.00000  Uiso   1.00
C1072  C     0.16801   0.69196   0.63787   0.00000  Uiso   1.00
C1073  C     0.09597   0.79171   0.53785   0.00000  Uiso   1.00
C1074  C     0.20887   0.68370   0.59206   0.00000  Uiso   1.00
C1075  C     0.24142   0.86229   0.95951   0.00000  Uiso   1.00
C1076  C     0.05308   0.77871   0.51187   0.00000  Uiso   1.00
C1077  C     0.28460   0.87435   0.98532   0.00000  Uiso   1.00
C1078  C     0.18401   0.98886   0.75978   0.00000  Uiso   1.00
C1079  C     0.15191   0.67875   0.73874   0.00000  Uiso   1.00
C1080  C     0.12795   0.82931   0.83312   0.00000  Uiso   1.00
Cu1081 Cu    0.10737   0.82775   0.74517   0.00000  Uiso   1.00
Cu1082 Cu    0.22596   0.83892   0.75484   0.00000  Uiso   1.00
H1083  H     0.00589   0.75592   0.52584   0.00000  Uiso   1.00
H1084  H     0.26060   0.87318   0.92579   0.00000  Uiso   1.00
H1085  H     0.00115   0.87141   0.78458   0.00000  Uiso   1.00
H1086  H     0.33208   0.79505   0.71556   0.00000  Uiso   1.00
H1087  H     0.29349   0.72595   0.79278   0.00000  Uiso   1.00
H1088  H     0.29570   0.66797   0.75958   0.00000  Uiso   1.00
H1089  H     0.25680   0.67600   0.86107   0.00000  Uiso   1.00
H1090  H     0.25184   0.94798   0.83086   0.00000  Uiso   1.00
H1091  H     0.03526   0.96971   0.79778   0.00000  Uiso   1.00
H1092  H     0.01782   0.97166   0.85669   0.00000  Uiso   1.00
H1093  H     0.04120   0.69901   0.82712   0.00000  Uiso   1.00
H1094  H     0.33309   0.89397   0.97059   0.00000  Uiso   1.00
H1095  H     0.14188   0.94256   0.65250   0.00000  Uiso   1.00
H1096  H     0.20994   0.97650   0.67038   0.00000  Uiso   1.00
H1097  H     0.12001   0.69526   0.63552   0.00000  Uiso   1.00
H1098  H     0.19034   0.72923   0.65199   0.00000  Uiso   1.00
H1099  H     0.25758   0.68157   0.59361   0.00000  Uiso   1.00
H1100  H     0.21236   0.71715   0.57116   0.00000  Uiso   1.00
H1101  H     0.18728   0.98014   0.57688   0.00000  Uiso   1.00
H1102  H     0.13700   0.81007   0.60993   0.00000  Uiso   1.00
H1103  H     0.19278   0.86237   0.89129   0.00000  Uiso   1.00
H1104  H     0.32644   0.87736   0.61909   0.00000  Uiso   1.00
H1105  H     0.00927   0.78098   0.87923   0.00000  Uiso   1.00
H1106  H     0.31190   0.75815   0.95665   0.00000  Uiso   1.00
H1107  H     0.02586   0.89436   0.54053   0.00000  Uiso   1.00
H1108  H     0.07872   0.77657   0.57048   0.00000  Uiso   1.00
N1109  N     0.31506   0.84735   0.76212   0.00000  Uiso   1.00
N1110  N     0.01827   0.81932   0.73788   0.00000  Uiso   1.00
O1111  O     0.12815   0.90476   0.74686   0.00000  Uiso   1.00
O1112  O     0.11903   0.98579   0.70889   0.00000  Uiso   1.00
O1113  O     0.20518   0.76191   0.75314   0.00000  Uiso   1.00
O1114  O     0.22829   0.91420   0.75502   0.00000  Uiso   1.00
O1115  O     0.10504   0.75247   0.74498   0.00000  Uiso   1.00
O1116  O     0.08851   0.82597   0.80855   0.00000  Uiso   1.00
O1117  O     0.24482   0.84070   0.69146   0.00000  Uiso   1.00
O1118  O     0.18866   0.83540   0.81671   0.00000  Uiso   1.00
O1119  O     0.14468   0.83126   0.68329   0.00000  Uiso   1.00
O1120  O     0.20465   0.68114   0.79542   0.00000  Uiso   1.00
C1121  C     0.51360   0.93320   0.75347   0.00000  Uiso   1.00
C1122  C     0.53873   0.83758   0.66687   0.00000  Uiso   1.00
C1123  C     0.43778   0.82216   0.88052   0.00000  Uiso   1.00
C1124  C     0.56213   0.84241   0.61920   0.00000  Uiso   1.00
C1125  C     0.35938   0.78052   0.94293   0.00000  Uiso   1.00
C1126  C     0.64374   0.87526   0.55498   0.00000  Uiso   1.00
C1127  C     0.37644   0.79407   0.89901   0.00000  Uiso   1.00
C1128  C     0.62533   0.86532   0.59965   0.00000  Uiso   1.00
C1129  C     0.48073   0.83865   0.90666   0.00000  Uiso   1.00
C1130  C     0.51846   0.82712   0.59340   0.00000  Uiso   1.00
C1131  C     0.46575   0.82380   0.95060   0.00000  Uiso   1.00
C1132  C     0.48647   0.73356   0.74685   0.00000  Uiso   1.00
C1133  C     0.53591   0.83586   0.54814   0.00000  Uiso   1.00
C1134  C     0.40363   0.79454   0.96863   0.00000  Uiso   1.00
C1135  C     0.59938   0.86169   0.52935   0.00000  Uiso   1.00
C1136  C     0.51084   0.83632   0.97676   0.00000  Uiso   1.00
C1137  C     0.49169   0.82132   0.52148   0.00000  Uiso   1.00
C1138  C     0.60348   0.68380   0.79126   0.00000  Uiso   1.00
C1139  C     0.61114   0.98960   0.83010   0.00000  Uiso   1.00
C1140  C     0.34749   0.99108   0.82764   0.00000  Uiso   1.00
C1141  C     0.49520   0.97995   0.66784   0.00000  Uiso   1.00
C1142  C     0.50134   0.69196   0.63787   0.00000  Uiso   1.00
C1143  C     0.42930   0.79171   0.53785   0.00000  Uiso   1.00
C1144  C     0.54221   0.68370   0.59206   0.00000  Uiso   1.00
C1145  C     0.57475   0.86229   0.95951   0.00000  Uiso   1.00
C1146  C     0.38641   0.77871   0.51187   0.00000  Uiso   1.00
C1147  C     0.61794   0.87435   0.98532   0.00000  Uiso   1.00
C1148  C     0.51734   0.98886   0.75978   0.00000  Uiso   1.00
C1149  C     0.48525   0.67875   0.73874   0.00000  Uiso   1.00
C1150  C     0.46128   0.82931   0.83312   0.00000  Uiso   1.00
Cu1151 Cu    0.44071   0.82775   0.74517   0.00000  Uiso   1.00
Cu1152 Cu    0.55929   0.83892   0.75484   0.00000  Uiso   1.00
H1153  H     0.33922   0.75592   0.52584   0.00000  Uiso   1.00
H1154  H     0.59394   0.87318   0.92579   0.00000  Uiso   1.00
H1155  H     0.33449   0.87141   0.78458   0.00000  Uiso   1.00
H1156  H     0.66541   0.79505   0.71556   0.00000  Uiso   1.00
H1157  H     0.62682   0.72595   0.79278   0.00000  Uiso   1.00
H1158  H     0.62903   0.66797   0.75958   0.00000  Uiso   1.00
H1159  H     0.59014   0.67600   0.86107   0.00000  Uiso   1.00
H1160  H     0.58518   0.94798   0.83086   0.00000  Uiso   1.00
H1161  H     0.36860   0.96971   0.79778   0.00000  Uiso   1.00
H1162  H     0.35115   0.97166   0.85669   0.00000  Uiso   1.00
H1163  H     0.37453   0.69901   0.82712   0.00000  Uiso   1.00
H1164  H     0.66643   0.89397   0.97059   0.00000  Uiso   1.00
H1165  H     0.47521   0.94256   0.65250   0.00000  Uiso   1.00
H1166  H     0.54327   0.97650   0.67038   0.00000  Uiso   1.00
H1167  H     0.45335   0.69526   0.63552   0.00000  Uiso   1.00
H1168  H     0.52368   0.72923   0.65199   0.00000  Uiso   1.00
H1169  H     0.59091   0.68157   0.59361   0.00000  Uiso   1.00
H1170  H     0.54569   0.71715   0.57116   0.00000  Uiso   1.00
H1171  H     0.52061   0.98014   0.57688   0.00000  Uiso   1.00
H1172  H     0.47033   0.81007   0.60993   0.00000  Uiso   1.00
H1173  H     0.52611   0.86237   0.89129   0.00000  Uiso   1.00
H1174  H     0.65977   0.87736   0.61909   0.00000  Uiso   1.00
H1175  H     0.34261   0.78098   0.87923   0.00000  Uiso   1.00
H1176  H     0.64523   0.75815   0.95665   0.00000  Uiso   1.00
H1177  H     0.35919   0.89436   0.54053   0.00000  Uiso   1.00
H1178  H     0.41206   0.77657   0.57048   0.00000  Uiso   1.00
N1179  N     0.64839   0.84735   0.76212   0.00000  Uiso   1.00
N1180  N     0.35161   0.81932   0.73788   0.00000  Uiso   1.00
O1181  O     0.46148   0.90476   0.74686   0.00000  Uiso   1.00
O1182  O     0.45237   0.98579   0.70889   0.00000  Uiso   1.00
O1183  O     0.53852   0.76191   0.75314   0.00000  Uiso   1.00
O1184  O     0.56163   0.91420   0.75502   0.00000  Uiso   1.00
O1185  O     0.43837   0.75247   0.74498   0.00000  Uiso   1.00
O1186  O     0.42185   0.82597   0.80855   0.00000  Uiso   1.00
O1187  O     0.57815   0.84070   0.69146   0.00000  Uiso   1.00
O1188  O     0.52199   0.83540   0.81671   0.00000  Uiso   1.00
O1189  O     0.47801   0.83126   0.68329   0.00000  Uiso   1.00
O1190  O     0.53798   0.68114   0.79542   0.00000  Uiso   1.00
C1191  C     0.84693   0.93320   0.75347   0.00000  Uiso   1.00
C1192  C     0.87206   0.83758   0.66687   0.00000  Uiso   1.00
C1193  C     0.77111   0.82216   0.88052   0.00000  Uiso   1.00
C1194  C     0.89546   0.84241   0.61920   0.00000  Uiso   1.00
C1195  C     0.69271   0.78052   0.94293   0.00000  Uiso   1.00
C1196  C     0.97708   0.87526   0.55498   0.00000  Uiso   1.00
C1197  C     0.70978   0.79407   0.89901   0.00000  Uiso   1.00
C1198  C     0.95866   0.86532   0.59965   0.00000  Uiso   1.00
C1199  C     0.81406   0.83865   0.90666   0.00000  Uiso   1.00
C1200  C     0.85180   0.82712   0.59340   0.00000  Uiso   1.00
C1201  C     0.79908   0.82380   0.95060   0.00000  Uiso   1.00
C1202  C     0.81980   0.73356   0.74685   0.00000  Uiso   1.00
C1203  C     0.86924   0.83586   0.54814   0.00000  Uiso   1.00
C1204  C     0.73696   0.79454   0.96863   0.00000  Uiso   1.00
C1205  C     0.93271   0.86169   0.52935   0.00000  Uiso   1.00
C1206  C     0.84417   0.83632   0.97676   0.00000  Uiso   1.00
C1207  C     0.82502   0.82132   0.52148   0.00000  Uiso   1.00
C1208  C     0.93681   0.68380   0.79126   0.00000  Uiso   1.00
C1209  C     0.94447   0.98960   0.83010   0.00000  Uiso   1.00
C1210  C     0.68082   0.99108   0.82764   0.00000  Uiso   1.00
C1211  C     0.82853   0.97995   0.66784   0.00000  Uiso   1.00
C1212  C     0.83467   0.69196   0.63787   0.00000  Uiso   1.00
C1213  C     0.76264   0.79171   0.53785   0.00000  Uiso   1.00
C1214  C     0.87554   0.68370   0.59206   0.00000  Uiso   1.00
C1215  C     0.90808   0.86229   0.95951   0.00000  Uiso   1.00
C1216  C     0.71975   0.77871   0.51187   0.00000  Uiso   1.00
C1217  C     0.95127   0.87435   0.98532   0.00000  Uiso   1.00
C1218  C     0.85068   0.98886   0.75978   0.00000  Uiso   1.00
C1219  C     0.81858   0.67875   0.73874   0.00000  Uiso   1.00
C1220  C     0.79461   0.82931   0.83312   0.00000  Uiso   1.00
Cu1221 Cu    0.77404   0.82775   0.74517   0.00000  Uiso   1.00
Cu1222 Cu    0.89263   0.83892   0.75484   0.00000  Uiso   1.00
H1223  H     0.67256   0.75592   0.52584   0.00000  Uiso   1.00
H1224  H     0.92727   0.87318   0.92579   0.00000  Uiso   1.00
H1225  H     0.66782   0.87141   0.78458   0.00000  Uiso   1.00
H1226  H     0.99874   0.79505   0.71556   0.00000  Uiso   1.00
H1227  H     0.96016   0.72595   0.79278   0.00000  Uiso   1.00
H1228  H     0.96236   0.66797   0.75958   0.00000  Uiso   1.00
H1229  H     0.92347   0.67600   0.86107   0.00000  Uiso   1.00
H1230  H     0.91851   0.94798   0.83086   0.00000  Uiso   1.00
H1231  H     0.70193   0.96971   0.79778   0.00000  Uiso   1.00
H1232  H     0.68448   0.97166   0.85669   0.00000  Uiso   1.00
H1233  H     0.70787   0.69901   0.82712   0.00000  Uiso   1.00
H1234  H     0.99976   0.89397   0.97059   0.00000  Uiso   1.00
H1235  H     0.80855   0.94256   0.65250   0.00000  Uiso   1.00
H1236  H     0.87660   0.97650   0.67038   0.00000  Uiso   1.00
H1237  H     0.78668   0.69526   0.63552   0.00000  Uiso   1.00
H1238  H     0.85701   0.72923   0.65199   0.00000  Uiso   1.00
H1239  H     0.92424   0.68157   0.59361   0.00000  Uiso   1.00
H1240  H     0.87902   0.71715   0.57116   0.00000  Uiso   1.00
H1241  H     0.85395   0.98014   0.57688   0.00000  Uiso   1.00
H1242  H     0.80367   0.81007   0.60993   0.00000  Uiso   1.00
H1243  H     0.85944   0.86237   0.89129   0.00000  Uiso   1.00
H1244  H     0.99311   0.87736   0.61909   0.00000  Uiso   1.00
H1245  H     0.67594   0.78098   0.87923   0.00000  Uiso   1.00
H1246  H     0.97856   0.75815   0.95665   0.00000  Uiso   1.00
H1247  H     0.69252   0.89436   0.54053   0.00000  Uiso   1.00
H1248  H     0.74539   0.77657   0.57048   0.00000  Uiso   1.00
N1249  N     0.98173   0.84735   0.76212   0.00000  Uiso   1.00
N1250  N     0.68494   0.81932   0.73788   0.00000  Uiso   1.00
O1251  O     0.79482   0.90476   0.74686   0.00000  Uiso   1.00
O1252  O     0.78570   0.98579   0.70889   0.00000  Uiso   1.00
O1253  O     0.87185   0.76191   0.75314   0.00000  Uiso   1.00
O1254  O     0.89496   0.91420   0.75502   0.00000  Uiso   1.00
O1255  O     0.77171   0.75247   0.74498   0.00000  Uiso   1.00
O1256  O     0.75518   0.82597   0.80855   0.00000  Uiso   1.00
O1257  O     0.91149   0.84070   0.69146   0.00000  Uiso   1.00
O1258  O     0.85532   0.83540   0.81671   0.00000  Uiso   1.00
O1259  O     0.81134   0.83126   0.68329   0.00000  Uiso   1.00
O1260  O     0.87132   0.68114   0.79542   0.00000  Uiso   1.00
loop_
_geom_bond_atom_site_label_1
_geom_bond_atom_site_label_2
_geom_bond_distance
_geom_bond_site_symmetry_2
_ccdc_geom_bond_type
C1     C28     1.437   .     S
C1     O64     1.286   .     A
C1     O61     1.290   .     A
C2     C4      1.468   .     S
C2     O69     1.294   .     A
C2     O67     1.301   .     A
C3     C9      1.399   .     A
C3     C30     1.466   .     S
C3     C7      1.398   .     A
C4     C8      1.398   .     A
C4     C10     1.400   .     A
C5     C14     1.405   .     A
C5     C7      1.393   .     A
C5     H196    1.084   1_455 S
C6     C8      1.393   .     A
C6     C15     1.405   .     A
C6     H127    1.084   .     S
C7     H55     1.083   .     S
C8     H54     1.083   .     S
C9     C11     1.406   .     A
C9     H53     1.075   .     S
C10    H52     1.074   .     S
C10    C13     1.405   .     A
C11    C14     1.419   .     A
C11    C16     1.429   .     A
C12    C29     1.429   .     S
C12    O65     1.289   .     A
C12    O63     1.284   .     A
C13    C17     1.429   .     A
C13    C15     1.418   .     A
C14    C656    1.390   .     S
C15    C657    1.389   1_554 S
C16    C25     1.418   .     A
C16    C647    1.426   .     S
C17    C23     1.417   .     A
C17    C646    1.426   1_554 S
C18    O70     1.416   .     S
C18    H38     1.115   .     S
C18    H37     1.111   .     S
C18    C439    1.532   1_545 S
C19    H40     1.111   .     S
C19    C228    1.532   .     S
C19    C90     1.524   .     S
C19    H249    1.112   .     S
C20    H42     1.110   .     S
C20    H41     1.109   .     S
C20    C159    1.524   1_455 S
C20    H253    1.111   .     S
C21    H46     1.116   .     S
C21    O62     1.418   .     S
C21    H45     1.111   .     S
C21    C232    1.531   .     S
C22    H47     1.112   .     S
C22    H48     1.109   .     S
C22    C24     1.527   .     S
C22    C441    1.531   1_545 S
C23    H58     1.076   .     S
C23    C26     1.387   .     A
C24    H49     1.111   .     S
C24    H50     1.110   .     S
C24    H471    1.111   1_545 S
C25    H34     1.075   .     S
C25    C27     1.387   .     A
C26    H33     1.085   .     S
C26    C644    1.390   1_554 S
C27    H44     1.085   .     S
C27    C645    1.389   .     S
C28    C239    1.347   .     S
C28    O280    1.396   .     S
C29    C448    1.347   1_545 S
C29    O482    1.392   1_545 S
C30    O66     1.300   .     A
C30    O68     1.294   .     A
Cu31   N60     2.017   .     S
Cu31   O66     1.941   .     S
Cu31   O61     1.959   .     S
Cu31   Cu32    2.685   .     S
Cu31   O69     1.918   .     S
Cu31   O65     1.952   .     S
Cu32   O68     1.918   .     S
Cu32   O67     1.941   .     S
Cu32   O64     1.952   .     S
Cu32   N59     2.017   .     S
Cu32   O63     1.959   .     S
H35    N199    1.029   1_455 S
H36    N130    1.029   .     S
H39    C439    1.112   1_545 S
H43    C440    1.111   1_545 S
H51    C234    1.111   .     S
H56    C75     1.084   .     S
H57    C146    1.084   1_455 S
N59    H105    1.029   .     S
N59    N130    1.280   .     S
N60    H176    1.029   1_455 S
N60    N199    1.280   1_455 S
O62    C239    1.392   .     S
O70    C448    1.396   1_545 S
C71    C98     1.437   .     S
C71    O134    1.286   .     A
C71    O131    1.290   .     A
C72    C74     1.468   .     S
C72    O139    1.294   .     A
C72    O137    1.301   .     A
C73    C79     1.399   .     A
C73    C100    1.466   .     S
C73    C77     1.398   .     A
C74    C78     1.398   .     A
C74    C80     1.400   .     A
C75    C84     1.405   .     A
C75    C77     1.393   .     A
C76    C78     1.393   .     A
C76    C85     1.405   .     A
C76    H197    1.084   .     S
C77    H125    1.083   .     S
C78    H124    1.083   .     S
C79    C81     1.406   .     A
C79    H123    1.075   .     S
C80    H122    1.074   .     S
C80    C83     1.405   .     A
C81    C84     1.419   .     A
C81    C86     1.429   .     A
C82    C99     1.429   .     S
C82    O135    1.289   .     A
C82    O133    1.284   .     A
C83    C87     1.429   .     A
C83    C85     1.418   .     A
C84    C726    1.390   .     S
C85    C727    1.389   1_554 S
C86    C95     1.418   .     A
C86    C717    1.426   .     S
C87    C93     1.417   .     A
C87    C716    1.426   1_554 S
C88    O140    1.416   .     S
C88    H108    1.115   .     S
C88    H107    1.111   .     S
C88    C509    1.532   1_545 S
C89    H110    1.111   .     S
C89    C298    1.532   .     S
C89    C160    1.524   .     S
C89    H319    1.112   .     S
C90    H112    1.110   .     S
C90    H111    1.109   .     S
C90    H323    1.111   .     S
C91    H116    1.116   .     S
C91    O132    1.418   .     S
C91    H115    1.111   .     S
C91    C302    1.531   .     S
C92    H117    1.112   .     S
C92    H118    1.109   .     S
C92    C94     1.527   .     S
C92    C511    1.531   1_545 S
C93    H128    1.076   .     S
C93    C96     1.387   .     A
C94    H119    1.111   .     S
C94    H120    1.110   .     S
C94    H541    1.111   1_545 S
C95    H104    1.075   .     S
C95    C97     1.387   .     A
C96    H103    1.085   .     S
C96    C714    1.390   1_554 S
C97    H114    1.085   .     S
C97    C715    1.389   .     S
C98    C309    1.347   .     S
C98    O350    1.396   .     S
C99    C518    1.347   1_545 S
C99    O552    1.392   1_545 S
C100   O136    1.300   .     A
C100   O138    1.294   .     A
Cu101  N130    2.017   .     S
Cu101  O136    1.941   .     S
Cu101  O131    1.959   .     S
Cu101  Cu102   2.685   .     S
Cu101  O139    1.918   .     S
Cu101  O135    1.952   .     S
Cu102  O138    1.918   .     S
Cu102  O137    1.941   .     S
Cu102  O134    1.952   .     S
Cu102  N129    2.017   .     S
Cu102  O133    1.959   .     S
H106   N200    1.029   .     S
H109   C509    1.112   1_545 S
H113   C510    1.111   1_545 S
H121   C304    1.111   .     S
H126   C145    1.084   .     S
N129   H175    1.029   .     S
N129   N200    1.280   .     S
O132   C309    1.392   .     S
O140   C518    1.396   1_545 S
C141   C168    1.437   .     S
C141   O204    1.286   .     A
C141   O201    1.290   .     A
C142   C144    1.468   .     S
C142   O209    1.294   .     A
C142   O207    1.301   .     A
C143   C149    1.399   .     A
C143   C170    1.466   .     S
C143   C147    1.398   .     A
C144   C148    1.398   .     A
C144   C150    1.400   .     A
C145   C154    1.405   .     A
C145   C147    1.393   .     A
C146   C148    1.393   .     A
C146   C155    1.405   .     A
C146   H57     1.084   1_655 S
C147   H195    1.083   .     S
C148   H194    1.083   .     S
C149   C151    1.406   .     A
C149   H193    1.075   .     S
C150   H192    1.074   .     S
C150   C153    1.405   .     A
C151   C154    1.419   .     A
C151   C156    1.429   .     A
C152   C169    1.429   .     S
C152   O205    1.289   .     A
C152   O203    1.284   .     A
C153   C157    1.429   .     A
C153   C155    1.418   .     A
C154   C796    1.390   .     S
C155   C797    1.389   1_554 S
C156   C165    1.418   .     A
C156   C787    1.426   .     S
C157   C163    1.417   .     A
C157   C786    1.426   1_554 S
C158   O210    1.416   .     S
C158   H178    1.115   .     S
C158   H177    1.111   .     S
C158   C579    1.532   1_545 S
C159   H180    1.111   .     S
C159   C368    1.532   .     S
C159   C20     1.524   1_655 S
C159   H389    1.112   .     S
C160   H182    1.110   .     S
C160   H181    1.109   .     S
C160   H393    1.111   .     S
C161   H186    1.116   .     S
C161   O202    1.418   .     S
C161   H185    1.111   .     S
C161   C372    1.531   .     S
C162   H187    1.112   .     S
C162   H188    1.109   .     S
C162   C164    1.527   .     S
C162   C581    1.531   1_545 S
C163   H198    1.076   .     S
C163   C166    1.387   .     A
C164   H189    1.111   .     S
C164   H190    1.110   .     S
C164   H611    1.111   1_545 S
C165   H174    1.075   .     S
C165   C167    1.387   .     A
C166   H173    1.085   .     S
C166   C784    1.390   1_554 S
C167   H184    1.085   .     S
C167   C785    1.389   .     S
C168   C379    1.347   .     S
C168   O420    1.396   .     S
C169   C588    1.347   1_545 S
C169   O622    1.392   1_545 S
C170   O206    1.300   .     A
C170   O208    1.294   .     A
Cu171  N200    2.017   .     S
Cu171  O206    1.941   .     S
Cu171  O201    1.959   .     S
Cu171  Cu172   2.685   .     S
Cu171  O209    1.918   .     S
Cu171  O205    1.952   .     S
Cu172  O208    1.918   .     S
Cu172  O207    1.941   .     S
Cu172  O204    1.952   .     S
Cu172  N199    2.017   .     S
Cu172  O203    1.959   .     S
H176   N60     1.029   1_655 S
H179   C579    1.112   1_545 S
H183   C580    1.111   1_545 S
H191   C374    1.111   .     S
H196   C5      1.084   1_655 S
N199   H35     1.029   1_655 S
N199   N60     1.280   1_655 S
O202   C379    1.392   .     S
O210   C588    1.396   1_545 S
C211   C238    1.437   .     S
C211   O274    1.286   .     A
C211   O271    1.290   .     A
C212   C214    1.468   .     S
C212   O279    1.294   .     A
C212   O277    1.301   .     A
C213   C219    1.399   .     A
C213   C240    1.466   .     S
C213   C217    1.398   .     A
C214   C218    1.398   .     A
C214   C220    1.400   .     A
C215   C224    1.405   .     A
C215   C217    1.393   .     A
C215   H406    1.084   1_455 S
C216   C218    1.393   .     A
C216   C225    1.405   .     A
C216   H337    1.084   .     S
C217   H265    1.083   .     S
C218   H264    1.083   .     S
C219   C221    1.406   .     A
C219   H263    1.075   .     S
C220   H262    1.074   .     S
C220   C223    1.405   .     A
C221   C224    1.419   .     A
C221   C226    1.429   .     A
C222   C239    1.429   .     S
C222   O275    1.289   .     A
C222   O273    1.284   .     A
C223   C227    1.429   .     A
C223   C225    1.418   .     A
C224   C866    1.390   .     S
C225   C867    1.389   1_554 S
C226   C235    1.418   .     A
C226   C857    1.426   .     S
C227   C233    1.417   .     A
C227   C856    1.426   1_554 S
C228   O280    1.416   .     S
C228   H248    1.115   .     S
C228   H247    1.111   .     S
C229   H250    1.111   .     S
C229   C438    1.532   .     S
C229   C300    1.524   .     S
C229   H459    1.112   .     S
C230   H252    1.110   .     S
C230   H251    1.109   .     S
C230   C369    1.524   1_455 S
C230   H463    1.111   .     S
C231   H256    1.116   .     S
C231   O272    1.418   .     S
C231   H255    1.111   .     S
C231   C442    1.531   .     S
C232   H257    1.112   .     S
C232   H258    1.109   .     S
C232   C234    1.527   .     S
C233   H268    1.076   .     S
C233   C236    1.387   .     A
C234   H259    1.111   .     S
C234   H260    1.110   .     S
C235   H244    1.075   .     S
C235   C237    1.387   .     A
C236   H243    1.085   .     S
C236   C854    1.390   1_554 S
C237   H254    1.085   .     S
C237   C855    1.389   .     S
C238   C449    1.347   .     S
C238   O490    1.396   .     S
C240   O276    1.300   .     A
C240   O278    1.294   .     A
Cu241  N270    2.017   .     S
Cu241  O276    1.941   .     S
Cu241  O271    1.959   .     S
Cu241  Cu242   2.685   .     S
Cu241  O279    1.918   .     S
Cu241  O275    1.952   .     S
Cu242  O278    1.918   .     S
Cu242  O277    1.941   .     S
Cu242  O274    1.952   .     S
Cu242  N269    2.017   .     S
Cu242  O273    1.959   .     S
H245   N409    1.029   1_455 S
H246   N340    1.029   .     S
H261   C444    1.111   .     S
H266   C285    1.084   .     S
H267   C356    1.084   1_455 S
N269   H315    1.029   .     S
N269   N340    1.280   .     S
N270   H386    1.029   1_455 S
N270   N409    1.280   1_455 S
O272   C449    1.392   .     S
C281   C308    1.437   .     S
C281   O344    1.286   .     A
C281   O341    1.290   .     A
C282   C284    1.468   .     S
C282   O349    1.294   .     A
C282   O347    1.301   .     A
C283   C289    1.399   .     A
C283   C310    1.466   .     S
C283   C287    1.398   .     A
C284   C288    1.398   .     A
C284   C290    1.400   .     A
C285   C294    1.405   .     A
C285   C287    1.393   .     A
C286   C288    1.393   .     A
C286   C295    1.405   .     A
C286   H407    1.084   .     S
C287   H335    1.083   .     S
C288   H334    1.083   .     S
C289   C291    1.406   .     A
C289   H333    1.075   .     S
C290   H332    1.074   .     S
C290   C293    1.405   .     A
C291   C294    1.419   .     A
C291   C296    1.429   .     A
C292   C309    1.429   .     S
C292   O345    1.289   .     A
C292   O343    1.284   .     A
C293   C297    1.429   .     A
C293   C295    1.418   .     A
C294   C936    1.390   .     S
C295   C937    1.389   1_554 S
C296   C305    1.418   .     A
C296   C927    1.426   .     S
C297   C303    1.417   .     A
C297   C926    1.426   1_554 S
C298   O350    1.416   .     S
C298   H318    1.115   .     S
C298   H317    1.111   .     S
C299   H320    1.111   .     S
C299   C508    1.532   .     S
C299   C370    1.524   .     S
C299   H529    1.112   .     S
C300   H322    1.110   .     S
C300   H321    1.109   .     S
C300   H533    1.111   .     S
C301   H326    1.116   .     S
C301   O342    1.418   .     S
C301   H325    1.111   .     S
C301   C512    1.531   .     S
C302   H327    1.112   .     S
C302   H328    1.109   .     S
C302   C304    1.527   .     S
C303   H338    1.076   .     S
C303   C306    1.387   .     A
C304   H329    1.111   .     S
C304   H330    1.110   .     S
C305   H314    1.075   .     S
C305   C307    1.387   .     A
C306   H313    1.085   .     S
C306   C924    1.390   1_554 S
C307   H324    1.085   .     S
C307   C925    1.389   .     S
C308   C519    1.347   .     S
C308   O560    1.396   .     S
C310   O346    1.300   .     A
C310   O348    1.294   .     A
Cu311  N340    2.017   .     S
Cu311  O346    1.941   .     S
Cu311  O341    1.959   .     S
Cu311  Cu312   2.685   .     S
Cu311  O349    1.918   .     S
Cu311  O345    1.952   .     S
Cu312  O348    1.918   .     S
Cu312  O347    1.941   .     S
Cu312  O344    1.952   .     S
Cu312  N339    2.017   .     S
Cu312  O343    1.959   .     S
H316   N410    1.029   .     S
H331   C514    1.111   .     S
H336   C355    1.084   .     S
N339   H385    1.029   .     S
N339   N410    1.280   .     S
O342   C519    1.392   .     S
C351   C378    1.437   .     S
C351   O414    1.286   .     A
C351   O411    1.290   .     A
C352   C354    1.468   .     S
C352   O419    1.294   .     A
C352   O417    1.301   .     A
C353   C359    1.399   .     A
C353   C380    1.466   .     S
C353   C357    1.398   .     A
C354   C358    1.398   .     A
C354   C360    1.400   .     A
C355   C364    1.405   .     A
C355   C357    1.393   .     A
C356   C358    1.393   .     A
C356   C365    1.405   .     A
C356   H267    1.084   1_655 S
C357   H405    1.083   .     S
C358   H404    1.083   .     S
C359   C361    1.406   .     A
C359   H403    1.075   .     S
C360   H402    1.074   .     S
C360   C363    1.405   .     A
C361   C364    1.419   .     A
C361   C366    1.429   .     A
C362   C379    1.429   .     S
C362   O415    1.289   .     A
C362   O413    1.284   .     A
C363   C367    1.429   .     A
C363   C365    1.418   .     A
C364   C1006   1.390   .     S
C365   C1007   1.389   1_554 S
C366   C375    1.418   .     A
C366   C997    1.426   .     S
C367   C373    1.417   .     A
C367   C996    1.426   1_554 S
C368   O420    1.416   .     S
C368   H388    1.115   .     S
C368   H387    1.111   .     S
C369   H390    1.111   .     S
C369   C578    1.532   .     S
C369   C230    1.524   1_655 S
C369   H599    1.112   .     S
C370   H392    1.110   .     S
C370   H391    1.109   .     S
C370   H603    1.111   .     S
C371   H396    1.116   .     S
C371   O412    1.418   .     S
C371   H395    1.111   .     S
C371   C582    1.531   .     S
C372   H397    1.112   .     S
C372   H398    1.109   .     S
C372   C374    1.527   .     S
C373   H408    1.076   .     S
C373   C376    1.387   .     A
C374   H399    1.111   .     S
C374   H400    1.110   .     S
C375   H384    1.075   .     S
C375   C377    1.387   .     A
C376   H383    1.085   .     S
C376   C994    1.390   1_554 S
C377   H394    1.085   .     S
C377   C995    1.389   .     S
C378   C589    1.347   .     S
C378   O630    1.396   .     S
C380   O416    1.300   .     A
C380   O418    1.294   .     A
Cu381  N410    2.017   .     S
Cu381  O416    1.941   .     S
Cu381  O411    1.959   .     S
Cu381  Cu382   2.685   .     S
Cu381  O419    1.918   .     S
Cu381  O415    1.952   .     S
Cu382  O418    1.918   .     S
Cu382  O417    1.941   .     S
Cu382  O414    1.952   .     S
Cu382  N409    2.017   .     S
Cu382  O413    1.959   .     S
H386   N270    1.029   1_655 S
H401   C584    1.111   .     S
H406   C215    1.084   1_655 S
N409   H245    1.029   1_655 S
N409   N270    1.280   1_655 S
O412   C589    1.392   .     S
C421   C448    1.437   .     S
C421   O484    1.286   .     A
C421   O481    1.290   .     A
C422   C424    1.468   .     S
C422   O489    1.294   .     A
C422   O487    1.301   .     A
C423   C429    1.399   .     A
C423   C450    1.466   .     S
C423   C427    1.398   .     A
C424   C428    1.398   .     A
C424   C430    1.400   .     A
C425   C434    1.405   .     A
C425   C427    1.393   .     A
C425   H616    1.084   1_455 S
C426   C428    1.393   .     A
C426   C435    1.405   .     A
C426   H547    1.084   .     S
C427   H475    1.083   .     S
C428   H474    1.083   .     S
C429   C431    1.406   .     A
C429   H473    1.075   .     S
C430   H472    1.074   .     S
C430   C433    1.405   .     A
C431   C434    1.419   .     A
C431   C436    1.429   .     A
C432   C449    1.429   .     S
C432   O485    1.289   .     A
C432   O483    1.284   .     A
C433   C437    1.429   .     A
C433   C435    1.418   .     A
C434   C1076   1.390   .     S
C435   C1077   1.389   1_554 S
C436   C445    1.418   .     A
C436   C1067   1.426   .     S
C437   C443    1.417   .     A
C437   C1066   1.426   1_554 S
C438   O490    1.416   .     S
C438   H458    1.115   .     S
C438   H457    1.111   .     S
C439   H460    1.111   .     S
C439   C18     1.532   1_565 S
C439   C510    1.524   .     S
C439   H39     1.112   1_565 S
C440   H462    1.110   .     S
C440   H461    1.109   .     S
C440   C579    1.524   1_455 S
C440   H43     1.111   1_565 S
C441   H466    1.116   .     S
C441   O482    1.418   .     S
C441   H465    1.111   .     S
C441   C22     1.531   1_565 S
C442   H467    1.112   .     S
C442   H468    1.109   .     S
C442   C444    1.527   .     S
C443   H478    1.076   .     S
C443   C446    1.387   .     A
C444   H469    1.111   .     S
C444   H470    1.110   .     S
C445   H454    1.075   .     S
C445   C447    1.387   .     A
C446   H453    1.085   .     S
C446   C1064   1.390   1_554 S
C447   H464    1.085   .     S
C447   C1065   1.389   .     S
C448   C29     1.347   1_565 S
C448   O70     1.396   1_565 S
C450   O486    1.300   .     A
C450   O488    1.294   .     A
Cu451  N480    2.017   .     S
Cu451  O486    1.941   .     S
Cu451  O481    1.959   .     S
Cu451  Cu452   2.685   .     S
Cu451  O489    1.918   .     S
Cu451  O485    1.952   .     S
Cu452  O488    1.918   .     S
Cu452  O487    1.941   .     S
Cu452  O484    1.952   .     S
Cu452  N479    2.017   .     S
Cu452  O483    1.959   .     S
H455   N619    1.029   1_455 S
H456   N550    1.029   .     S
H471   C24     1.111   1_565 S
H476   C495    1.084   .     S
H477   C566    1.084   1_455 S
N479   H525    1.029   .     S
N479   N550    1.280   .     S
N480   H596    1.029   1_455 S
N480   N619    1.280   1_455 S
O482   C29     1.392   1_565 S
C491   C518    1.437   .     S
C491   O554    1.286   .     A
C491   O551    1.290   .     A
C492   C494    1.468   .     S
C492   O559    1.294   .     A
C492   O557    1.301   .     A
C493   C499    1.399   .     A
C493   C520    1.466   .     S
C493   C497    1.398   .     A
C494   C498    1.398   .     A
C494   C500    1.400   .     A
C495   C504    1.405   .     A
C495   C497    1.393   .     A
C496   C498    1.393   .     A
C496   C505    1.405   .     A
C496   H617    1.084   .     S
C497   H545    1.083   .     S
C498   H544    1.083   .     S
C499   C501    1.406   .     A
C499   H543    1.075   .     S
C500   H542    1.074   .     S
C500   C503    1.405   .     A
C501   C504    1.419   .     A
C501   C506    1.429   .     A
C502   C519    1.429   .     S
C502   O555    1.289   .     A
C502   O553    1.284   .     A
C503   C507    1.429   .     A
C503   C505    1.418   .     A
C504   C1146   1.390   .     S
C505   C1147   1.389   1_554 S
C506   C515    1.418   .     A
C506   C1137   1.426   .     S
C507   C513    1.417   .     A
C507   C1136   1.426   1_554 S
C508   O560    1.416   .     S
C508   H528    1.115   .     S
C508   H527    1.111   .     S
C509   H530    1.111   .     S
C509   C88     1.532   1_565 S
C509   C580    1.524   .     S
C509   H109    1.112   1_565 S
C510   H532    1.110   .     S
C510   H531    1.109   .     S
C510   H113    1.111   1_565 S
C511   H536    1.116   .     S
C511   O552    1.418   .     S
C511   H535    1.111   .     S
C511   C92     1.531   1_565 S
C512   H537    1.112   .     S
C512   H538    1.109   .     S
C512   C514    1.527   .     S
C513   H548    1.076   .     S
C513   C516    1.387   .     A
C514   H539    1.111   .     S
C514   H540    1.110   .     S
C515   H524    1.075   .     S
C515   C517    1.387   .     A
C516   H523    1.085   .     S
C516   C1134   1.390   1_554 S
C517   H534    1.085   .     S
C517   C1135   1.389   .     S
C518   C99     1.347   1_565 S
C518   O140    1.396   1_565 S
C520   O556    1.300   .     A
C520   O558    1.294   .     A
Cu521  N550    2.017   .     S
Cu521  O556    1.941   .     S
Cu521  O551    1.959   .     S
Cu521  Cu522   2.685   .     S
Cu521  O559    1.918   .     S
Cu521  O555    1.952   .     S
Cu522  O558    1.918   .     S
Cu522  O557    1.941   .     S
Cu522  O554    1.952   .     S
Cu522  N549    2.017   .     S
Cu522  O553    1.959   .     S
H526   N620    1.029   .     S
H541   C94     1.111   1_565 S
H546   C565    1.084   .     S
N549   H595    1.029   .     S
N549   N620    1.280   .     S
O552   C99     1.392   1_565 S
C561   C588    1.437   .     S
C561   O624    1.286   .     A
C561   O621    1.290   .     A
C562   C564    1.468   .     S
C562   O629    1.294   .     A
C562   O627    1.301   .     A
C563   C569    1.399   .     A
C563   C590    1.466   .     S
C563   C567    1.398   .     A
C564   C568    1.398   .     A
C564   C570    1.400   .     A
C565   C574    1.405   .     A
C565   C567    1.393   .     A
C566   C568    1.393   .     A
C566   C575    1.405   .     A
C566   H477    1.084   1_655 S
C567   H615    1.083   .     S
C568   H614    1.083   .     S
C569   C571    1.406   .     A
C569   H613    1.075   .     S
C570   H612    1.074   .     S
C570   C573    1.405   .     A
C571   C574    1.419   .     A
C571   C576    1.429   .     A
C572   C589    1.429   .     S
C572   O625    1.289   .     A
C572   O623    1.284   .     A
C573   C577    1.429   .     A
C573   C575    1.418   .     A
C574   C1216   1.390   .     S
C575   C1217   1.389   1_554 S
C576   C585    1.418   .     A
C576   C1207   1.426   .     S
C577   C583    1.417   .     A
C577   C1206   1.426   1_554 S
C578   O630    1.416   .     S
C578   H598    1.115   .     S
C578   H597    1.111   .     S
C579   H600    1.111   .     S
C579   C158    1.532   1_565 S
C579   C440    1.524   1_655 S
C579   H179    1.112   1_565 S
C580   H602    1.110   .     S
C580   H601    1.109   .     S
C580   H183    1.111   1_565 S
C581   H606    1.116   .     S
C581   O622    1.418   .     S
C581   H605    1.111   .     S
C581   C162    1.531   1_565 S
C582   H607    1.112   .     S
C582   H608    1.109   .     S
C582   C584    1.527   .     S
C583   H618    1.076   .     S
C583   C586    1.387   .     A
C584   H609    1.111   .     S
C584   H610    1.110   .     S
C585   H594    1.075   .     S
C585   C587    1.387   .     A
C586   H593    1.085   .     S
C586   C1204   1.390   1_554 S
C587   H604    1.085   .     S
C587   C1205   1.389   .     S
C588   C169    1.347   1_565 S
C588   O210    1.396   1_565 S
C590   O626    1.300   .     A
C590   O628    1.294   .     A
Cu591  N620    2.017   .     S
Cu591  O626    1.941   .     S
Cu591  O621    1.959   .     S
Cu591  Cu592   2.685   .     S
Cu591  O629    1.918   .     S
Cu591  O625    1.952   .     S
Cu592  O628    1.918   .     S
Cu592  O627    1.941   .     S
Cu592  O624    1.952   .     S
Cu592  N619    2.017   .     S
Cu592  O623    1.959   .     S
H596   N480    1.029   1_655 S
H611   C164    1.111   1_565 S
H616   C425    1.084   1_655 S
N619   H455    1.029   1_655 S
N619   N480    1.280   1_655 S
O622   C169    1.392   1_565 S
C631   C658    1.437   .     S
C631   O694    1.286   .     A
C631   O691    1.290   .     A
C632   C634    1.468   .     S
C632   O699    1.294   .     A
C632   O697    1.301   .     A
C633   C639    1.399   .     A
C633   C660    1.466   .     S
C633   C637    1.398   .     A
C634   C638    1.398   .     A
C634   C640    1.400   .     A
C635   C644    1.405   .     A
C635   C637    1.393   .     A
C635   H826    1.084   1_455 S
C636   C638    1.393   .     A
C636   C645    1.405   .     A
C636   H757    1.084   .     S
C637   H685    1.083   .     S
C638   H684    1.083   .     S
C639   C641    1.406   .     A
C639   H683    1.075   .     S
C640   H682    1.074   .     S
C640   C643    1.405   .     A
C641   C644    1.419   .     A
C641   C646    1.429   .     A
C642   C659    1.429   .     S
C642   O695    1.289   .     A
C642   O693    1.284   .     A
C643   C647    1.429   .     A
C643   C645    1.418   .     A
C644   C26     1.390   1_556 S
C646   C655    1.418   .     A
C646   C17     1.426   1_556 S
C647   C653    1.417   .     A
C648   O700    1.416   .     S
C648   H668    1.115   .     S
C648   H667    1.111   .     S
C648   C1069   1.532   1_545 S
C649   H670    1.111   .     S
C649   C858    1.532   .     S
C649   C720    1.524   .     S
C649   H879    1.112   .     S
C650   H672    1.110   .     S
C650   H671    1.109   .     S
C650   C789    1.524   1_455 S
C650   H883    1.111   .     S
C651   H676    1.116   .     S
C651   O692    1.418   .     S
C651   H675    1.111   .     S
C651   C862    1.531   .     S
C652   H677    1.112   .     S
C652   H678    1.109   .     S
C652   C654    1.527   .     S
C652   C1071   1.531   1_545 S
C653   H688    1.076   .     S
C653   C656    1.387   .     A
C654   H679    1.111   .     S
C654   H680    1.110   .     S
C654   H1101   1.111   1_545 S
C655   H664    1.075   .     S
C655   C657    1.387   .     A
C656   H663    1.085   .     S
C657   H674    1.085   .     S
C657   C15     1.389   1_556 S
C658   C869    1.347   .     S
C658   O910    1.396   .     S
C659   C1078   1.347   1_545 S
C659   O1112   1.392   1_545 S
C660   O696    1.300   .     A
C660   O698    1.294   .     A
Cu661  N690    2.017   .     S
Cu661  O696    1.941   .     S
Cu661  O691    1.959   .     S
Cu661  Cu662   2.685   .     S
Cu661  O699    1.918   .     S
Cu661  O695    1.952   .     S
Cu662  O698    1.918   .     S
Cu662  O697    1.941   .     S
Cu662  O694    1.952   .     S
Cu662  N689    2.017   .     S
Cu662  O693    1.959   .     S
H665   N829    1.029   1_455 S
H666   N760    1.029   .     S
H669   C1069   1.112   1_545 S
H673   C1070   1.111   1_545 S
H681   C864    1.111   .     S
H686   C705    1.084   .     S
H687   C776    1.084   1_455 S
N689   H735    1.029   .     S
N689   N760    1.280   .     S
N690   H806    1.029   1_455 S
N690   N829    1.280   1_455 S
O692   C869    1.392   .     S
O700   C1078   1.396   1_545 S
C701   C728    1.437   .     S
C701   O764    1.286   .     A
C701   O761    1.290   .     A
C702   C704    1.468   .     S
C702   O769    1.294   .     A
C702   O767    1.301   .     A
C703   C709    1.399   .     A
C703   C730    1.466   .     S
C703   C707    1.398   .     A
C704   C708    1.398   .     A
C704   C710    1.400   .     A
C705   C714    1.405   .     A
C705   C707    1.393   .     A
C706   C708    1.393   .     A
C706   C715    1.405   .     A
C706   H827    1.084   .     S
C707   H755    1.083   .     S
C708   H754    1.083   .     S
C709   C711    1.406   .     A
C709   H753    1.075   .     S
C710   H752    1.074   .     S
C710   C713    1.405   .     A
C711   C714    1.419   .     A
C711   C716    1.429   .     A
C712   C729    1.429   .     S
C712   O765    1.289   .     A
C712   O763    1.284   .     A
C713   C717    1.429   .     A
C713   C715    1.418   .     A
C714   C96     1.390   1_556 S
C716   C725    1.418   .     A
C716   C87     1.426   1_556 S
C717   C723    1.417   .     A
C718   O770    1.416   .     S
C718   H738    1.115   .     S
C718   H737    1.111   .     S
C718   C1139   1.532   1_545 S
C719   H740    1.111   .     S
C719   C928    1.532   .     S
C719   C790    1.524   .     S
C719   H949    1.112   .     S
C720   H742    1.110   .     S
C720   H741    1.109   .     S
C720   H953    1.111   .     S
C721   H746    1.116   .     S
C721   O762    1.418   .     S
C721   H745    1.111   .     S
C721   C932    1.531   .     S
C722   H747    1.112   .     S
C722   H748    1.109   .     S
C722   C724    1.527   .     S
C722   C1141   1.531   1_545 S
C723   H758    1.076   .     S
C723   C726    1.387   .     A
C724   H749    1.111   .     S
C724   H750    1.110   .     S
C724   H1171   1.111   1_545 S
C725   H734    1.075   .     S
C725   C727    1.387   .     A
C726   H733    1.085   .     S
C727   H744    1.085   .     S
C727   C85     1.389   1_556 S
C728   C939    1.347   .     S
C728   O980    1.396   .     S
C729   C1148   1.347   1_545 S
C729   O1182   1.392   1_545 S
C730   O766    1.300   .     A
C730   O768    1.294   .     A
Cu731  N760    2.017   .     S
Cu731  O766    1.941   .     S
Cu731  O761    1.959   .     S
Cu731  Cu732   2.685   .     S
Cu731  O769    1.918   .     S
Cu731  O765    1.952   .     S
Cu732  O768    1.918   .     S
Cu732  O767    1.941   .     S
Cu732  O764    1.952   .     S
Cu732  N759    2.017   .     S
Cu732  O763    1.959   .     S
H736   N830    1.029   .     S
H739   C1139   1.112   1_545 S
H743   C1140   1.111   1_545 S
H751   C934    1.111   .     S
H756   C775    1.084   .     S
N759   H805    1.029   .     S
N759   N830    1.280   .     S
O762   C939    1.392   .     S
O770   C1148   1.396   1_545 S
C771   C798    1.437   .     S
C771   O834    1.286   .     A
C771   O831    1.290   .     A
C772   C774    1.468   .     S
C772   O839    1.294   .     A
C772   O837    1.301   .     A
C773   C779    1.399   .     A
C773   C800    1.466   .     S
C773   C777    1.398   .     A
C774   C778    1.398   .     A
C774   C780    1.400   .     A
C775   C784    1.405   .     A
C775   C777    1.393   .     A
C776   C778    1.393   .     A
C776   C785    1.405   .     A
C776   H687    1.084   1_655 S
C777   H825    1.083   .     S
C778   H824    1.083   .     S
C779   C781    1.406   .     A
C779   H823    1.075   .     S
C780   H822    1.074   .     S
C780   C783    1.405   .     A
C781   C784    1.419   .     A
C781   C786    1.429   .     A
C782   C799    1.429   .     S
C782   O835    1.289   .     A
C782   O833    1.284   .     A
C783   C787    1.429   .     A
C783   C785    1.418   .     A
C784   C166    1.390   1_556 S
C786   C795    1.418   .     A
C786   C157    1.426   1_556 S
C787   C793    1.417   .     A
C788   O840    1.416   .     S
C788   H808    1.115   .     S
C788   H807    1.111   .     S
C788   C1209   1.532   1_545 S
C789   H810    1.111   .     S
C789   C998    1.532   .     S
C789   C650    1.524   1_655 S
C789   H1019   1.112   .     S
C790   H812    1.110   .     S
C790   H811    1.109   .     S
C790   H1023   1.111   .     S
C791   H816    1.116   .     S
C791   O832    1.418   .     S
C791   H815    1.111   .     S
C791   C1002   1.531   .     S
C792   H817    1.112   .     S
C792   H818    1.109   .     S
C792   C794    1.527   .     S
C792   C1211   1.531   1_545 S
C793   H828    1.076   .     S
C793   C796    1.387   .     A
C794   H819    1.111   .     S
C794   H820    1.110   .     S
C794   H1241   1.111   1_545 S
C795   H804    1.075   .     S
C795   C797    1.387   .     A
C796   H803    1.085   .     S
C797   H814    1.085   .     S
C797   C155    1.389   1_556 S
C798   C1009   1.347   .     S
C798   O1050   1.396   .     S
C799   C1218   1.347   1_545 S
C799   O1252   1.392   1_545 S
C800   O836    1.300   .     A
C800   O838    1.294   .     A
Cu801  N830    2.017   .     S
Cu801  O836    1.941   .     S
Cu801  O831    1.959   .     S
Cu801  Cu802   2.685   .     S
Cu801  O839    1.918   .     S
Cu801  O835    1.952   .     S
Cu802  O838    1.918   .     S
Cu802  O837    1.941   .     S
Cu802  O834    1.952   .     S
Cu802  N829    2.017   .     S
Cu802  O833    1.959   .     S
H806   N690    1.029   1_655 S
H809   C1209   1.112   1_545 S
H813   C1210   1.111   1_545 S
H821   C1004   1.111   .     S
H826   C635    1.084   1_655 S
N829   H665    1.029   1_655 S
N829   N690    1.280   1_655 S
O832   C1009   1.392   .     S
O840   C1218   1.396   1_545 S
C841   C868    1.437   .     S
C841   O904    1.286   .     A
C841   O901    1.290   .     A
C842   C844    1.468   .     S
C842   O909    1.294   .     A
C842   O907    1.301   .     A
C843   C849    1.399   .     A
C843   C870    1.466   .     S
C843   C847    1.398   .     A
C844   C848    1.398   .     A
C844   C850    1.400   .     A
C845   C854    1.405   .     A
C845   C847    1.393   .     A
C845   H1036   1.084   1_455 S
C846   C848    1.393   .     A
C846   C855    1.405   .     A
C846   H967    1.084   .     S
C847   H895    1.083   .     S
C848   H894    1.083   .     S
C849   C851    1.406   .     A
C849   H893    1.075   .     S
C850   H892    1.074   .     S
C850   C853    1.405   .     A
C851   C854    1.419   .     A
C851   C856    1.429   .     A
C852   C869    1.429   .     S
C852   O905    1.289   .     A
C852   O903    1.284   .     A
C853   C857    1.429   .     A
C853   C855    1.418   .     A
C854   C236    1.390   1_556 S
C856   C865    1.418   .     A
C856   C227    1.426   1_556 S
C857   C863    1.417   .     A
C858   O910    1.416   .     S
C858   H878    1.115   .     S
C858   H877    1.111   .     S
C859   H880    1.111   .     S
C859   C1068   1.532   .     S
C859   C930    1.524   .     S
C859   H1089   1.112   .     S
C860   H882    1.110   .     S
C860   H881    1.109   .     S
C860   C999    1.524   1_455 S
C860   H1093   1.111   .     S
C861   H886    1.116   .     S
C861   O902    1.418   .     S
C861   H885    1.111   .     S
C861   C1072   1.531   .     S
C862   H887    1.112   .     S
C862   H888    1.109   .     S
C862   C864    1.527   .     S
C863   H898    1.076   .     S
C863   C866    1.387   .     A
C864   H889    1.111   .     S
C864   H890    1.110   .     S
C865   H874    1.075   .     S
C865   C867    1.387   .     A
C866   H873    1.085   .     S
C867   H884    1.085   .     S
C867   C225    1.389   1_556 S
C868   C1079   1.347   .     S
C868   O1120   1.396   .     S
C870   O906    1.300   .     A
C870   O908    1.294   .     A
Cu871  N900    2.017   .     S
Cu871  O906    1.941   .     S
Cu871  O901    1.959   .     S
Cu871  Cu872   2.685   .     S
Cu871  O909    1.918   .     S
Cu871  O905    1.952   .     S
Cu872  O908    1.918   .     S
Cu872  O907    1.941   .     S
Cu872  O904    1.952   .     S
Cu872  N899    2.017   .     S
Cu872  O903    1.959   .     S
H875   N1039   1.029   1_455 S
H876   N970    1.029   .     S
H891   C1074   1.111   .     S
H896   C915    1.084   .     S
H897   C986    1.084   1_455 S
N899   H945    1.029   .     S
N899   N970    1.280   .     S
N900   H1016   1.029   1_455 S
N900   N1039   1.280   1_455 S
O902   C1079   1.392   .     S
C911   C938    1.437   .     S
C911   O974    1.286   .     A
C911   O971    1.290   .     A
C912   C914    1.468   .     S
C912   O979    1.294   .     A
C912   O977    1.301   .     A
C913   C919    1.399   .     A
C913   C940    1.466   .     S
C913   C917    1.398   .     A
C914   C918    1.398   .     A
C914   C920    1.400   .     A
C915   C924    1.405   .     A
C915   C917    1.393   .     A
C916   C918    1.393   .     A
C916   C925    1.405   .     A
C916   H1037   1.084   .     S
C917   H965    1.083   .     S
C918   H964    1.083   .     S
C919   C921    1.406   .     A
C919   H963    1.075   .     S
C920   H962    1.074   .     S
C920   C923    1.405   .     A
C921   C924    1.419   .     A
C921   C926    1.429   .     A
C922   C939    1.429   .     S
C922   O975    1.289   .     A
C922   O973    1.284   .     A
C923   C927    1.429   .     A
C923   C925    1.418   .     A
C924   C306    1.390   1_556 S
C926   C935    1.418   .     A
C926   C297    1.426   1_556 S
C927   C933    1.417   .     A
C928   O980    1.416   .     S
C928   H948    1.115   .     S
C928   H947    1.111   .     S
C929   H950    1.111   .     S
C929   C1138   1.532   .     S
C929   C1000   1.524   .     S
C929   H1159   1.112   .     S
C930   H952    1.110   .     S
C930   H951    1.109   .     S
C930   H1163   1.111   .     S
C931   H956    1.116   .     S
C931   O972    1.418   .     S
C931   H955    1.111   .     S
C931   C1142   1.531   .     S
C932   H957    1.112   .     S
C932   H958    1.109   .     S
C932   C934    1.527   .     S
C933   H968    1.076   .     S
C933   C936    1.387   .     A
C934   H959    1.111   .     S
C934   H960    1.110   .     S
C935   H944    1.075   .     S
C935   C937    1.387   .     A
C936   H943    1.085   .     S
C937   H954    1.085   .     S
C937   C295    1.389   1_556 S
C938   C1149   1.347   .     S
C938   O1190   1.396   .     S
C940   O976    1.300   .     A
C940   O978    1.294   .     A
Cu941  N970    2.017   .     S
Cu941  O976    1.941   .     S
Cu941  O971    1.959   .     S
Cu941  Cu942   2.685   .     S
Cu941  O979    1.918   .     S
Cu941  O975    1.952   .     S
Cu942  O978    1.918   .     S
Cu942  O977    1.941   .     S
Cu942  O974    1.952   .     S
Cu942  N969    2.017   .     S
Cu942  O973    1.959   .     S
H946   N1040   1.029   .     S
H961   C1144   1.111   .     S
H966   C985    1.084   .     S
N969   H1015   1.029   .     S
N969   N1040   1.280   .     S
O972   C1149   1.392   .     S
C981   C1008   1.437   .     S
C981   O1044   1.286   .     A
C981   O1041   1.290   .     A
C982   C984    1.468   .     S
C982   O1049   1.294   .     A
C982   O1047   1.301   .     A
C983   C989    1.399   .     A
C983   C1010   1.466   .     S
C983   C987    1.398   .     A
C984   C988    1.398   .     A
C984   C990    1.400   .     A
C985   C994    1.405   .     A
C985   C987    1.393   .     A
C986   C988    1.393   .     A
C986   C995    1.405   .     A
C986   H897    1.084   1_655 S
C987   H1035   1.083   .     S
C988   H1034   1.083   .     S
C989   C991    1.406   .     A
C989   H1033   1.075   .     S
C990   H1032   1.074   .     S
C990   C993    1.405   .     A
C991   C994    1.419   .     A
C991   C996    1.429   .     A
C992   C1009   1.429   .     S
C992   O1045   1.289   .     A
C992   O1043   1.284   .     A
C993   C997    1.429   .     A
C993   C995    1.418   .     A
C994   C376    1.390   1_556 S
C996   C1005   1.418   .     A
C996   C367    1.426   1_556 S
C997   C1003   1.417   .     A
C998   O1050   1.416   .     S
C998   H1018   1.115   .     S
C998   H1017   1.111   .     S
C999   H1020   1.111   .     S
C999   C1208   1.532   .     S
C999   C860    1.524   1_655 S
C999   H1229   1.112   .     S
C1000  H1022   1.110   .     S
C1000  H1021   1.109   .     S
C1000  H1233   1.111   .     S
C1001  H1026   1.116   .     S
C1001  O1042   1.418   .     S
C1001  H1025   1.111   .     S
C1001  C1212   1.531   .     S
C1002  H1027   1.112   .     S
C1002  H1028   1.109   .     S
C1002  C1004   1.527   .     S
C1003  H1038   1.076   .     S
C1003  C1006   1.387   .     A
C1004  H1029   1.111   .     S
C1004  H1030   1.110   .     S
C1005  H1014   1.075   .     S
C1005  C1007   1.387   .     A
C1006  H1013   1.085   .     S
C1007  H1024   1.085   .     S
C1007  C365    1.389   1_556 S
C1008  C1219   1.347   .     S
C1008  O1260   1.396   .     S
C1010  O1046   1.300   .     A
C1010  O1048   1.294   .     A
Cu1011 N1040   2.017   .     S
Cu1011 O1046   1.941   .     S
Cu1011 O1041   1.959   .     S
Cu1011 Cu1012  2.685   .     S
Cu1011 O1049   1.918   .     S
Cu1011 O1045   1.952   .     S
Cu1012 O1048   1.918   .     S
Cu1012 O1047   1.941   .     S
Cu1012 O1044   1.952   .     S
Cu1012 N1039   2.017   .     S
Cu1012 O1043   1.959   .     S
H1016  N900    1.029   1_655 S
H1031  C1214   1.111   .     S
H1036  C845    1.084   1_655 S
N1039  H875    1.029   1_655 S
N1039  N900    1.280   1_655 S
O1042  C1219   1.392   .     S
C1051  C1078   1.437   .     S
C1051  O1114   1.286   .     A
C1051  O1111   1.290   .     A
C1052  C1054   1.468   .     S
C1052  O1119   1.294   .     A
C1052  O1117   1.301   .     A
C1053  C1059   1.399   .     A
C1053  C1080   1.466   .     S
C1053  C1057   1.398   .     A
C1054  C1058   1.398   .     A
C1054  C1060   1.400   .     A
C1055  C1064   1.405   .     A
C1055  C1057   1.393   .     A
C1055  H1246   1.084   1_455 S
C1056  C1058   1.393   .     A
C1056  C1065   1.405   .     A
C1056  H1177   1.084   .     S
C1057  H1105   1.083   .     S
C1058  H1104   1.083   .     S
C1059  C1061   1.406   .     A
C1059  H1103   1.075   .     S
C1060  H1102   1.074   .     S
C1060  C1063   1.405   .     A
C1061  C1064   1.419   .     A
C1061  C1066   1.429   .     A
C1062  C1079   1.429   .     S
C1062  O1115   1.289   .     A
C1062  O1113   1.284   .     A
C1063  C1067   1.429   .     A
C1063  C1065   1.418   .     A
C1064  C446    1.390   1_556 S
C1066  C1075   1.418   .     A
C1066  C437    1.426   1_556 S
C1067  C1073   1.417   .     A
C1068  O1120   1.416   .     S
C1068  H1088   1.115   .     S
C1068  H1087   1.111   .     S
C1069  H1090   1.111   .     S
C1069  C648    1.532   1_565 S
C1069  C1140   1.524   .     S
C1069  H669    1.112   1_565 S
C1070  H1092   1.110   .     S
C1070  H1091   1.109   .     S
C1070  C1209   1.524   1_455 S
C1070  H673    1.111   1_565 S
C1071  H1096   1.116   .     S
C1071  O1112   1.418   .     S
C1071  H1095   1.111   .     S
C1071  C652    1.531   1_565 S
C1072  H1097   1.112   .     S
C1072  H1098   1.109   .     S
C1072  C1074   1.527   .     S
C1073  H1108   1.076   .     S
C1073  C1076   1.387   .     A
C1074  H1099   1.111   .     S
C1074  H1100   1.110   .     S
C1075  H1084   1.075   .     S
C1075  C1077   1.387   .     A
C1076  H1083   1.085   .     S
C1077  H1094   1.085   .     S
C1077  C435    1.389   1_556 S
C1078  C659    1.347   1_565 S
C1078  O700    1.396   1_565 S
C1080  O1116   1.300   .     A
C1080  O1118   1.294   .     A
Cu1081 N1110   2.017   .     S
Cu1081 O1116   1.941   .     S
Cu1081 O1111   1.959   .     S
Cu1081 Cu1082  2.685   .     S
Cu1081 O1119   1.918   .     S
Cu1081 O1115   1.952   .     S
Cu1082 O1118   1.918   .     S
Cu1082 O1117   1.941   .     S
Cu1082 O1114   1.952   .     S
Cu1082 N1109   2.017   .     S
Cu1082 O1113   1.959   .     S
H1085  N1249   1.029   1_455 S
H1086  N1180   1.029   .     S
H1101  C654    1.111   1_565 S
H1106  C1125   1.084   .     S
H1107  C1196   1.084   1_455 S
N1109  H1155   1.029   .     S
N1109  N1180   1.280   .     S
N1110  H1226   1.029   1_455 S
N1110  N1249   1.280   1_455 S
O1112  C659    1.392   1_565 S
C1121  C1148   1.437   .     S
C1121  O1184   1.286   .     A
C1121  O1181   1.290   .     A
C1122  C1124   1.468   .     S
C1122  O1189   1.294   .     A
C1122  O1187   1.301   .     A
C1123  C1129   1.399   .     A
C1123  C1150   1.466   .     S
C1123  C1127   1.398   .     A
C1124  C1128   1.398   .     A
C1124  C1130   1.400   .     A
C1125  C1134   1.405   .     A
C1125  C1127   1.393   .     A
C1126  C1128   1.393   .     A
C1126  C1135   1.405   .     A
C1126  H1247   1.084   .     S
C1127  H1175   1.083   .     S
C1128  H1174   1.083   .     S
C1129  C1131   1.406   .     A
C1129  H1173   1.075   .     S
C1130  H1172   1.074   .     S
C1130  C1133   1.405   .     A
C1131  C1134   1.419   .     A
C1131  C1136   1.429   .     A
C1132  C1149   1.429   .     S
C1132  O1185   1.289   .     A
C1132  O1183   1.284   .     A
C1133  C1137   1.429   .     A
C1133  C1135   1.418   .     A
C1134  C516    1.390   1_556 S
C1136  C1145   1.418   .     A
C1136  C507    1.426   1_556 S
C1137  C1143   1.417   .     A
C1138  O1190   1.416   .     S
C1138  H1158   1.115   .     S
C1138  H1157   1.111   .     S
C1139  H1160   1.111   .     S
C1139  C718    1.532   1_565 S
C1139  C1210   1.524   .     S
C1139  H739    1.112   1_565 S
C1140  H1162   1.110   .     S
C1140  H1161   1.109   .     S
C1140  H743    1.111   1_565 S
C1141  H1166   1.116   .     S
C1141  O1182   1.418   .     S
C1141  H1165   1.111   .     S
C1141  C722    1.531   1_565 S
C1142  H1167   1.112   .     S
C1142  H1168   1.109   .     S
C1142  C1144   1.527   .     S
C1143  H1178   1.076   .     S
C1143  C1146   1.387   .     A
C1144  H1169   1.111   .     S
C1144  H1170   1.110   .     S
C1145  H1154   1.075   .     S
C1145  C1147   1.387   .     A
C1146  H1153   1.085   .     S
C1147  H1164   1.085   .     S
C1147  C505    1.389   1_556 S
C1148  C729    1.347   1_565 S
C1148  O770    1.396   1_565 S
C1150  O1186   1.300   .     A
C1150  O1188   1.294   .     A
Cu1151 N1180   2.017   .     S
Cu1151 O1186   1.941   .     S
Cu1151 O1181   1.959   .     S
Cu1151 Cu1152  2.685   .     S
Cu1151 O1189   1.918   .     S
Cu1151 O1185   1.952   .     S
Cu1152 O1188   1.918   .     S
Cu1152 O1187   1.941   .     S
Cu1152 O1184   1.952   .     S
Cu1152 N1179   2.017   .     S
Cu1152 O1183   1.959   .     S
H1156  N1250   1.029   .     S
H1171  C724    1.111   1_565 S
H1176  C1195   1.084   .     S
N1179  H1225   1.029   .     S
N1179  N1250   1.280   .     S
O1182  C729    1.392   1_565 S
C1191  C1218   1.437   .     S
C1191  O1254   1.286   .     A
C1191  O1251   1.290   .     A
C1192  C1194   1.468   .     S
C1192  O1259   1.294   .     A
C1192  O1257   1.301   .     A
C1193  C1199   1.399   .     A
C1193  C1220   1.466   .     S
C1193  C1197   1.398   .     A
C1194  C1198   1.398   .     A
C1194  C1200   1.400   .     A
C1195  C1204   1.405   .     A
C1195  C1197   1.393   .     A
C1196  C1198   1.393   .     A
C1196  C1205   1.405   .     A
C1196  H1107   1.084   1_655 S
C1197  H1245   1.083   .     S
C1198  H1244   1.083   .     S
C1199  C1201   1.406   .     A
C1199  H1243   1.075   .     S
C1200  H1242   1.074   .     S
C1200  C1203   1.405   .     A
C1201  C1204   1.419   .     A
C1201  C1206   1.429   .     A
C1202  C1219   1.429   .     S
C1202  O1255   1.289   .     A
C1202  O1253   1.284   .     A
C1203  C1207   1.429   .     A
C1203  C1205   1.418   .     A
C1204  C586    1.390   1_556 S
C1206  C1215   1.418   .     A
C1206  C577    1.426   1_556 S
C1207  C1213   1.417   .     A
C1208  O1260   1.416   .     S
C1208  H1228   1.115   .     S
C1208  H1227   1.111   .     S
C1209  H1230   1.111   .     S
C1209  C788    1.532   1_565 S
C1209  C1070   1.524   1_655 S
C1209  H809    1.112   1_565 S
C1210  H1232   1.110   .     S
C1210  H1231   1.109   .     S
C1210  H813    1.111   1_565 S
C1211  H1236   1.116   .     S
C1211  O1252   1.418   .     S
C1211  H1235   1.111   .     S
C1211  C792    1.531   1_565 S
C1212  H1237   1.112   .     S
C1212  H1238   1.109   .     S
C1212  C1214   1.527   .     S
C1213  H1248   1.076   .     S
C1213  C1216   1.387   .     A
C1214  H1239   1.111   .     S
C1214  H1240   1.110   .     S
C1215  H1224   1.075   .     S
C1215  C1217   1.387   .     A
C1216  H1223   1.085   .     S
C1217  H1234   1.085   .     S
C1217  C575    1.389   1_556 S
C1218  C799    1.347   1_565 S
C1218  O840    1.396   1_565 S
C1220  O1256   1.300   .     A
C1220  O1258   1.294   .     A
Cu1221 N1250   2.017   .     S
Cu1221 O1256   1.941   .     S
Cu1221 O1251   1.959   .     S
Cu1221 Cu1222  2.685   .     S
Cu1221 O1259   1.918   .     S
Cu1221 O1255   1.952   .     S
Cu1222 O1258   1.918   .     S
Cu1222 O1257   1.941   .     S
Cu1222 O1254   1.952   .     S
Cu1222 N1249   2.017   .     S
Cu1222 O1253   1.959   .     S
H1226  N1110   1.029   1_655 S
H1241  C794    1.111   1_565 S
H1246  C1055   1.084   1_655 S
N1249  H1085   1.029   1_655 S
N1249  N1110   1.280   1_655 S
O1252  C799    1.392   1_565 S
