data_str_m2_o2_o10_pcu_sym.69
_audit_creation_date              2020-01-03
_audit_creation_method            'Materials Studio'
_symmetry_space_group_name_H-M    'P1'
_symmetry_Int_Tables_number       1
_symmetry_cell_setting            triclinic
loop_
_symmetry_equiv_pos_as_xyz
  x,y,z
_cell_length_a                    26.4172
_cell_length_b                    30.2918
_cell_length_c                    27.7783
_cell_angle_alpha                 89.8155
_cell_angle_beta                  98.0377
_cell_angle_gamma                 90.4888
loop_
_atom_site_label
_atom_site_type_symbol
_atom_site_fract_x
_atom_site_fract_y
_atom_site_fract_z
_atom_site_U_iso_or_equiv
_atom_site_adp_type
_atom_site_occupancy
C1     C     0.16791   0.16487   0.25037   0.00000  Uiso   1.00
C2     C     0.18790   0.28393   0.44945   0.00000  Uiso   1.00
C3     C     0.16777   0.24884   0.02744   0.00000  Uiso   1.00
C4     C     0.16703   0.24836   0.47269   0.00000  Uiso   1.00
C5     C     0.06812   0.25104   0.23773   0.00000  Uiso   1.00
C6     C     0.26531   0.25045   0.26243   0.00000  Uiso   1.00
C7     C     0.01330   0.25673   0.23159   0.00000  Uiso   1.00
C8     C     0.32045   0.24856   0.26948   0.00000  Uiso   1.00
C9     C     0.17225   0.04666   0.29557   0.00000  Uiso   1.00
C10    C     0.13272   0.45255   0.21649   0.00000  Uiso   1.00
C11    C     0.17551   0.09284   0.29594   0.00000  Uiso   1.00
C12    C     0.16655   0.33490   0.24981   0.00000  Uiso   1.00
C13    C     0.13421   0.40631   0.21398   0.00000  Uiso   1.00
C14    C     0.17043   0.11641   0.25146   0.00000  Uiso   1.00
C15    C     0.16703   0.38292   0.24920   0.00000  Uiso   1.00
C16    C     0.16836   0.09319   0.20768   0.00000  Uiso   1.00
C17    C     0.20169   0.40551   0.28319   0.00000  Uiso   1.00
C18    C     0.16941   0.04741   0.20770   0.00000  Uiso   1.00
C19    C     0.20369   0.45127   0.28260   0.00000  Uiso   1.00
C20    C     0.17027   0.02376   0.25124   0.00000  Uiso   1.00
C21    C     0.16888   0.47521   0.24997   0.00000  Uiso   1.00
C22    C     0.00333   0.31477   0.17832   0.00000  Uiso   1.00
C23    C     0.20962   0.26598   0.05976   0.00000  Uiso   1.00
C24    C     0.01644   0.26739   0.34810   0.00000  Uiso   1.00
C25    C     0.12366   0.01929   0.35001   0.00000  Uiso   1.00
C26    C     0.05211   0.47948   0.20663   0.00000  Uiso   1.00
C27    C     0.23471   0.11941   0.35583   0.00000  Uiso   1.00
C28    C     0.11786   0.38573   0.13472   0.00000  Uiso   1.00
C29    C     0.28981   0.24815   0.04726   0.00000  Uiso   1.00
C30    C     0.16179   0.14494   0.47489   0.00000  Uiso   1.00
C31    C     0.07990   0.16639   0.10291   0.00000  Uiso   1.00
C32    C     0.25663   0.33636   0.40600   0.00000  Uiso   1.00
C33    C     0.14573   0.21307   0.44284   0.00000  Uiso   1.00
C34    C     0.20662   0.26824   0.11005   0.00000  Uiso   1.00
C35    C     0.14439   0.21564   0.39194   0.00000  Uiso   1.00
C36    C     0.12755   0.22999   0.09936   0.00000  Uiso   1.00
C37    C     0.19087   0.28319   0.39877   0.00000  Uiso   1.00
C38    C     0.12615   0.23205   0.04829   0.00000  Uiso   1.00
Cu39   Cu    0.16667   0.24999   0.29822   0.00000  Uiso   1.00
Cu40   Cu    0.16667   0.25000   0.20179   0.00000  Uiso   1.00
H41    H     0.16619   0.11037   0.17323   0.00000  Uiso   1.00
H42    H     0.00228   0.33629   0.21065   0.00000  Uiso   1.00
H43    H     0.30964   0.32878   0.14814   0.00000  Uiso   1.00
H44    H     0.31315   0.27326   0.36200   0.00000  Uiso   1.00
H45    H     0.03093   0.29856   0.33328   0.00000  Uiso   1.00
H46    H     0.04453   0.25738   0.37961   0.00000  Uiso   1.00
H47    H     0.10049   0.49763   0.32300   0.00000  Uiso   1.00
H48    H     0.10473   0.05178   0.35222   0.00000  Uiso   1.00
H49    H     0.12525   0.00313   0.38607   0.00000  Uiso   1.00
H50    H     0.05893   0.00053   0.23964   0.00000  Uiso   1.00
H51    H     0.03644   0.44667   0.21555   0.00000  Uiso   1.00
H52    H     0.22826   0.38764   0.30927   0.00000  Uiso   1.00
H53    H     0.02266   0.49592   0.18039   0.00000  Uiso   1.00
H54    H     0.24022   0.13961   0.38940   0.00000  Uiso   1.00
H55    H     0.25441   0.13710   0.32841   0.00000  Uiso   1.00
H56    H     0.25284   0.08681   0.36465   0.00000  Uiso   1.00
H57    H     0.09337   0.36388   0.10908   0.00000  Uiso   1.00
H58    H     0.15784   0.37367   0.13683   0.00000  Uiso   1.00
H59    H     0.11502   0.41969   0.11938   0.00000  Uiso   1.00
H60    H     0.27560   0.21854   0.02566   0.00000  Uiso   1.00
H61    H     0.30164   0.23898   0.08601   0.00000  Uiso   1.00
H62    H     0.32432   0.26053   0.03272   0.00000  Uiso   1.00
H63    H     0.16914   0.03038   0.17344   0.00000  Uiso   1.00
H64    H     0.19467   0.15836   0.00026   0.00000  Uiso   1.00
H65    H     0.17507   0.13125   0.44183   0.00000  Uiso   1.00
H66    H     0.14498   0.11729   0.49381   0.00000  Uiso   1.00
H67    H     0.05950   0.14805   0.12911   0.00000  Uiso   1.00
H68    H     0.05512   0.16569   0.06716   0.00000  Uiso   1.00
H69    H     0.11636   0.14872   0.10077   0.00000  Uiso   1.00
H70    H     0.28214   0.35250   0.38261   0.00000  Uiso   1.00
H71    H     0.28011   0.31195   0.42923   0.00000  Uiso   1.00
H72    H     0.24249   0.36263   0.42840   0.00000  Uiso   1.00
H73    H     0.23245   0.46802   0.30784   0.00000  Uiso   1.00
H74    H     0.23708   0.28388   0.13381   0.00000  Uiso   1.00
H75    H     0.12597   0.18942   0.36946   0.00000  Uiso   1.00
H76    H     0.09226   0.22063   0.02521   0.00000  Uiso   1.00
H77    H     0.20144   0.31246   0.47081   0.00000  Uiso   1.00
H78    H     0.04168   0.31579   0.16650   0.00000  Uiso   1.00
N79    N     0.16667   0.25001   0.12935   0.00000  Uiso   1.00
N80    N     0.16667   0.24999   0.37066   0.00000  Uiso   1.00
O81    O     0.16667   0.18572   0.29072   0.00000  Uiso   1.00
O82    O     0.01124   0.23276   0.31380   0.00000  Uiso   1.00
O83    O     0.17395   0.02418   0.33918   0.00000  Uiso   1.00
O84    O     0.09699   0.47539   0.18494   0.00000  Uiso   1.00
O85    O     0.18180   0.11453   0.34012   0.00000  Uiso   1.00
O86    O     0.10007   0.38382   0.18029   0.00000  Uiso   1.00
O87    O     0.25299   0.28188   0.04275   0.00000  Uiso   1.00
O88    O     0.12373   0.17688   0.46238   0.00000  Uiso   1.00
O89    O     0.08795   0.21024   0.11953   0.00000  Uiso   1.00
O90    O     0.21540   0.31635   0.37573   0.00000  Uiso   1.00
O91    O     0.16666   0.31427   0.20929   0.00000  Uiso   1.00
O92    O     0.16667   0.18573   0.20928   0.00000  Uiso   1.00
O93    O     0.16666   0.31427   0.29072   0.00000  Uiso   1.00
O94    O     0.09161   0.24999   0.28132   0.00000  Uiso   1.00
O95    O     0.24172   0.25000   0.21868   0.00000  Uiso   1.00
O96    O     0.09161   0.25000   0.19989   0.00000  Uiso   1.00
O97    O     0.24172   0.25000   0.30012   0.00000  Uiso   1.00
O98    O     0.32199   0.27079   0.18676   0.00000  Uiso   1.00
C99    C     0.50124   0.16487   0.25037   0.00000  Uiso   1.00
C100   C     0.52123   0.28393   0.44945   0.00000  Uiso   1.00
C101   C     0.50110   0.24884   0.02744   0.00000  Uiso   1.00
C102   C     0.50036   0.24836   0.47269   0.00000  Uiso   1.00
C103   C     0.40145   0.25104   0.23773   0.00000  Uiso   1.00
C104   C     0.59864   0.25045   0.26243   0.00000  Uiso   1.00
C105   C     0.34663   0.25673   0.23159   0.00000  Uiso   1.00
C106   C     0.65379   0.24856   0.26948   0.00000  Uiso   1.00
C107   C     0.50558   0.04666   0.29557   0.00000  Uiso   1.00
C108   C     0.46605   0.45255   0.21649   0.00000  Uiso   1.00
C109   C     0.50884   0.09284   0.29594   0.00000  Uiso   1.00
C110   C     0.49989   0.33490   0.24981   0.00000  Uiso   1.00
C111   C     0.46755   0.40631   0.21398   0.00000  Uiso   1.00
C112   C     0.50377   0.11641   0.25146   0.00000  Uiso   1.00
C113   C     0.50036   0.38292   0.24920   0.00000  Uiso   1.00
C114   C     0.50169   0.09319   0.20768   0.00000  Uiso   1.00
C115   C     0.53502   0.40551   0.28319   0.00000  Uiso   1.00
C116   C     0.50274   0.04741   0.20770   0.00000  Uiso   1.00
C117   C     0.53703   0.45127   0.28260   0.00000  Uiso   1.00
C118   C     0.50360   0.02376   0.25124   0.00000  Uiso   1.00
C119   C     0.50221   0.47521   0.24997   0.00000  Uiso   1.00
C120   C     0.33667   0.31477   0.17832   0.00000  Uiso   1.00
C121   C     0.54295   0.26598   0.05976   0.00000  Uiso   1.00
C122   C     0.34977   0.26739   0.34810   0.00000  Uiso   1.00
C123   C     0.45699   0.01929   0.35001   0.00000  Uiso   1.00
C124   C     0.38544   0.47948   0.20663   0.00000  Uiso   1.00
C125   C     0.56805   0.11941   0.35583   0.00000  Uiso   1.00
C126   C     0.45120   0.38573   0.13472   0.00000  Uiso   1.00
C127   C     0.62314   0.24815   0.04726   0.00000  Uiso   1.00
C128   C     0.49512   0.14494   0.47489   0.00000  Uiso   1.00
C129   C     0.41324   0.16639   0.10291   0.00000  Uiso   1.00
C130   C     0.58996   0.33636   0.40600   0.00000  Uiso   1.00
C131   C     0.47906   0.21307   0.44284   0.00000  Uiso   1.00
C132   C     0.53995   0.26824   0.11005   0.00000  Uiso   1.00
C133   C     0.47772   0.21564   0.39194   0.00000  Uiso   1.00
C134   C     0.46088   0.22999   0.09936   0.00000  Uiso   1.00
C135   C     0.52421   0.28319   0.39877   0.00000  Uiso   1.00
C136   C     0.45948   0.23205   0.04829   0.00000  Uiso   1.00
Cu137  Cu    0.50000   0.24999   0.29822   0.00000  Uiso   1.00
Cu138  Cu    0.50000   0.25000   0.20179   0.00000  Uiso   1.00
H139   H     0.49953   0.11037   0.17323   0.00000  Uiso   1.00
H140   H     0.33561   0.33629   0.21065   0.00000  Uiso   1.00
H141   H     0.64297   0.32878   0.14814   0.00000  Uiso   1.00
H142   H     0.64648   0.27326   0.36200   0.00000  Uiso   1.00
H143   H     0.36426   0.29856   0.33328   0.00000  Uiso   1.00
H144   H     0.37786   0.25738   0.37961   0.00000  Uiso   1.00
H145   H     0.43383   0.49763   0.32300   0.00000  Uiso   1.00
H146   H     0.43806   0.05178   0.35222   0.00000  Uiso   1.00
H147   H     0.45859   0.00313   0.38607   0.00000  Uiso   1.00
H148   H     0.39226   0.00053   0.23964   0.00000  Uiso   1.00
H149   H     0.36977   0.44667   0.21555   0.00000  Uiso   1.00
H150   H     0.56159   0.38764   0.30927   0.00000  Uiso   1.00
H151   H     0.35599   0.49592   0.18039   0.00000  Uiso   1.00
H152   H     0.57356   0.13961   0.38940   0.00000  Uiso   1.00
H153   H     0.58774   0.13710   0.32841   0.00000  Uiso   1.00
H154   H     0.58617   0.08681   0.36465   0.00000  Uiso   1.00
H155   H     0.42671   0.36388   0.10908   0.00000  Uiso   1.00
H156   H     0.49117   0.37367   0.13683   0.00000  Uiso   1.00
H157   H     0.44836   0.41969   0.11938   0.00000  Uiso   1.00
H158   H     0.60894   0.21854   0.02566   0.00000  Uiso   1.00
H159   H     0.63498   0.23898   0.08601   0.00000  Uiso   1.00
H160   H     0.65765   0.26053   0.03272   0.00000  Uiso   1.00
H161   H     0.50247   0.03038   0.17344   0.00000  Uiso   1.00
H162   H     0.52800   0.15836   0.00026   0.00000  Uiso   1.00
H163   H     0.50840   0.13125   0.44183   0.00000  Uiso   1.00
H164   H     0.47832   0.11729   0.49381   0.00000  Uiso   1.00
H165   H     0.39284   0.14805   0.12911   0.00000  Uiso   1.00
H166   H     0.38846   0.16569   0.06716   0.00000  Uiso   1.00
H167   H     0.44969   0.14872   0.10077   0.00000  Uiso   1.00
H168   H     0.61548   0.35250   0.38261   0.00000  Uiso   1.00
H169   H     0.61345   0.31195   0.42923   0.00000  Uiso   1.00
H170   H     0.57582   0.36263   0.42840   0.00000  Uiso   1.00
H171   H     0.56578   0.46802   0.30784   0.00000  Uiso   1.00
H172   H     0.57041   0.28388   0.13381   0.00000  Uiso   1.00
H173   H     0.45930   0.18942   0.36946   0.00000  Uiso   1.00
H174   H     0.42560   0.22063   0.02521   0.00000  Uiso   1.00
H175   H     0.53477   0.31246   0.47081   0.00000  Uiso   1.00
H176   H     0.37501   0.31579   0.16650   0.00000  Uiso   1.00
N177   N     0.50000   0.25001   0.12935   0.00000  Uiso   1.00
N178   N     0.50000   0.24999   0.37066   0.00000  Uiso   1.00
O179   O     0.50000   0.18572   0.29072   0.00000  Uiso   1.00
O180   O     0.34458   0.23276   0.31380   0.00000  Uiso   1.00
O181   O     0.50729   0.02418   0.33918   0.00000  Uiso   1.00
O182   O     0.43032   0.47539   0.18494   0.00000  Uiso   1.00
O183   O     0.51513   0.11453   0.34012   0.00000  Uiso   1.00
O184   O     0.43340   0.38382   0.18029   0.00000  Uiso   1.00
O185   O     0.58632   0.28188   0.04275   0.00000  Uiso   1.00
O186   O     0.45707   0.17688   0.46238   0.00000  Uiso   1.00
O187   O     0.42129   0.21024   0.11953   0.00000  Uiso   1.00
O188   O     0.54874   0.31635   0.37573   0.00000  Uiso   1.00
O189   O     0.50000   0.31427   0.20929   0.00000  Uiso   1.00
O190   O     0.50000   0.18573   0.20928   0.00000  Uiso   1.00
O191   O     0.50000   0.31427   0.29072   0.00000  Uiso   1.00
O192   O     0.42495   0.24999   0.28132   0.00000  Uiso   1.00
O193   O     0.57505   0.25000   0.21868   0.00000  Uiso   1.00
O194   O     0.42495   0.25000   0.19989   0.00000  Uiso   1.00
O195   O     0.57505   0.25000   0.30012   0.00000  Uiso   1.00
O196   O     0.65532   0.27079   0.18676   0.00000  Uiso   1.00
C197   C     0.83458   0.16487   0.25037   0.00000  Uiso   1.00
C198   C     0.85457   0.28393   0.44945   0.00000  Uiso   1.00
C199   C     0.83443   0.24884   0.02744   0.00000  Uiso   1.00
C200   C     0.83370   0.24836   0.47269   0.00000  Uiso   1.00
C201   C     0.73479   0.25104   0.23773   0.00000  Uiso   1.00
C202   C     0.93197   0.25045   0.26243   0.00000  Uiso   1.00
C203   C     0.67997   0.25673   0.23159   0.00000  Uiso   1.00
C204   C     0.98712   0.24856   0.26948   0.00000  Uiso   1.00
C205   C     0.83891   0.04666   0.29557   0.00000  Uiso   1.00
C206   C     0.79939   0.45255   0.21649   0.00000  Uiso   1.00
C207   C     0.84217   0.09284   0.29594   0.00000  Uiso   1.00
C208   C     0.83322   0.33490   0.24981   0.00000  Uiso   1.00
C209   C     0.80088   0.40631   0.21398   0.00000  Uiso   1.00
C210   C     0.83710   0.11641   0.25146   0.00000  Uiso   1.00
C211   C     0.83370   0.38292   0.24920   0.00000  Uiso   1.00
C212   C     0.83503   0.09319   0.20768   0.00000  Uiso   1.00
C213   C     0.86835   0.40551   0.28319   0.00000  Uiso   1.00
C214   C     0.83608   0.04741   0.20770   0.00000  Uiso   1.00
C215   C     0.87036   0.45127   0.28260   0.00000  Uiso   1.00
C216   C     0.83693   0.02376   0.25124   0.00000  Uiso   1.00
C217   C     0.83554   0.47521   0.24997   0.00000  Uiso   1.00
C218   C     0.67000   0.31477   0.17832   0.00000  Uiso   1.00
C219   C     0.87628   0.26598   0.05976   0.00000  Uiso   1.00
C220   C     0.68311   0.26739   0.34810   0.00000  Uiso   1.00
C221   C     0.79032   0.01929   0.35001   0.00000  Uiso   1.00
C222   C     0.71878   0.47948   0.20663   0.00000  Uiso   1.00
C223   C     0.90138   0.11941   0.35583   0.00000  Uiso   1.00
C224   C     0.78453   0.38573   0.13472   0.00000  Uiso   1.00
C225   C     0.95647   0.24815   0.04726   0.00000  Uiso   1.00
C226   C     0.82845   0.14494   0.47489   0.00000  Uiso   1.00
C227   C     0.74657   0.16639   0.10291   0.00000  Uiso   1.00
C228   C     0.92329   0.33636   0.40600   0.00000  Uiso   1.00
C229   C     0.81239   0.21307   0.44284   0.00000  Uiso   1.00
C230   C     0.87329   0.26824   0.11005   0.00000  Uiso   1.00
C231   C     0.81105   0.21564   0.39194   0.00000  Uiso   1.00
C232   C     0.79421   0.22999   0.09936   0.00000  Uiso   1.00
C233   C     0.85754   0.28319   0.39877   0.00000  Uiso   1.00
C234   C     0.79281   0.23205   0.04829   0.00000  Uiso   1.00
Cu235  Cu    0.83333   0.24999   0.29822   0.00000  Uiso   1.00
Cu236  Cu    0.83333   0.25000   0.20179   0.00000  Uiso   1.00
H237   H     0.83286   0.11037   0.17323   0.00000  Uiso   1.00
H238   H     0.66894   0.33629   0.21065   0.00000  Uiso   1.00
H239   H     0.97631   0.32878   0.14814   0.00000  Uiso   1.00
H240   H     0.97982   0.27326   0.36200   0.00000  Uiso   1.00
H241   H     0.69759   0.29856   0.33328   0.00000  Uiso   1.00
H242   H     0.71120   0.25738   0.37961   0.00000  Uiso   1.00
H243   H     0.76716   0.49763   0.32300   0.00000  Uiso   1.00
H244   H     0.77139   0.05178   0.35222   0.00000  Uiso   1.00
H245   H     0.79192   0.00313   0.38607   0.00000  Uiso   1.00
H246   H     0.72560   0.00053   0.23964   0.00000  Uiso   1.00
H247   H     0.70311   0.44667   0.21555   0.00000  Uiso   1.00
H248   H     0.89492   0.38764   0.30927   0.00000  Uiso   1.00
H249   H     0.68932   0.49592   0.18039   0.00000  Uiso   1.00
H250   H     0.90689   0.13961   0.38940   0.00000  Uiso   1.00
H251   H     0.92108   0.13710   0.32841   0.00000  Uiso   1.00
H252   H     0.91950   0.08681   0.36465   0.00000  Uiso   1.00
H253   H     0.76004   0.36388   0.10908   0.00000  Uiso   1.00
H254   H     0.82451   0.37367   0.13683   0.00000  Uiso   1.00
H255   H     0.78169   0.41969   0.11938   0.00000  Uiso   1.00
H256   H     0.94227   0.21854   0.02566   0.00000  Uiso   1.00
H257   H     0.96831   0.23898   0.08601   0.00000  Uiso   1.00
H258   H     0.99098   0.26053   0.03272   0.00000  Uiso   1.00
H259   H     0.83580   0.03038   0.17344   0.00000  Uiso   1.00
H260   H     0.86133   0.15836   0.00026   0.00000  Uiso   1.00
H261   H     0.84174   0.13125   0.44183   0.00000  Uiso   1.00
H262   H     0.81165   0.11729   0.49381   0.00000  Uiso   1.00
H263   H     0.72617   0.14805   0.12911   0.00000  Uiso   1.00
H264   H     0.72179   0.16569   0.06716   0.00000  Uiso   1.00
H265   H     0.78303   0.14872   0.10077   0.00000  Uiso   1.00
H266   H     0.94881   0.35250   0.38261   0.00000  Uiso   1.00
H267   H     0.94678   0.31195   0.42923   0.00000  Uiso   1.00
H268   H     0.90915   0.36263   0.42840   0.00000  Uiso   1.00
H269   H     0.89911   0.46802   0.30784   0.00000  Uiso   1.00
H270   H     0.90374   0.28388   0.13381   0.00000  Uiso   1.00
H271   H     0.79263   0.18942   0.36946   0.00000  Uiso   1.00
H272   H     0.75893   0.22063   0.02521   0.00000  Uiso   1.00
H273   H     0.86810   0.31246   0.47081   0.00000  Uiso   1.00
H274   H     0.70835   0.31579   0.16650   0.00000  Uiso   1.00
N275   N     0.83333   0.25001   0.12935   0.00000  Uiso   1.00
N276   N     0.83333   0.24999   0.37066   0.00000  Uiso   1.00
O277   O     0.83334   0.18572   0.29072   0.00000  Uiso   1.00
O278   O     0.67791   0.23276   0.31380   0.00000  Uiso   1.00
O279   O     0.84062   0.02418   0.33918   0.00000  Uiso   1.00
O280   O     0.76365   0.47539   0.18494   0.00000  Uiso   1.00
O281   O     0.84847   0.11453   0.34012   0.00000  Uiso   1.00
O282   O     0.76674   0.38382   0.18029   0.00000  Uiso   1.00
O283   O     0.91965   0.28188   0.04275   0.00000  Uiso   1.00
O284   O     0.79040   0.17688   0.46238   0.00000  Uiso   1.00
O285   O     0.75462   0.21024   0.11953   0.00000  Uiso   1.00
O286   O     0.88207   0.31635   0.37573   0.00000  Uiso   1.00
O287   O     0.83333   0.31427   0.20929   0.00000  Uiso   1.00
O288   O     0.83334   0.18573   0.20928   0.00000  Uiso   1.00
O289   O     0.83333   0.31427   0.29072   0.00000  Uiso   1.00
O290   O     0.75828   0.24999   0.28132   0.00000  Uiso   1.00
O291   O     0.90839   0.25000   0.21868   0.00000  Uiso   1.00
O292   O     0.75828   0.25000   0.19989   0.00000  Uiso   1.00
O293   O     0.90839   0.25000   0.30012   0.00000  Uiso   1.00
O294   O     0.98866   0.27079   0.18676   0.00000  Uiso   1.00
C295   C     0.16791   0.66487   0.25037   0.00000  Uiso   1.00
C296   C     0.18790   0.78393   0.44945   0.00000  Uiso   1.00
C297   C     0.16777   0.74884   0.02744   0.00000  Uiso   1.00
C298   C     0.16703   0.74836   0.47269   0.00000  Uiso   1.00
C299   C     0.06812   0.75104   0.23773   0.00000  Uiso   1.00
C300   C     0.26531   0.75045   0.26243   0.00000  Uiso   1.00
C301   C     0.01330   0.75673   0.23159   0.00000  Uiso   1.00
C302   C     0.32045   0.74856   0.26948   0.00000  Uiso   1.00
C303   C     0.17225   0.54666   0.29557   0.00000  Uiso   1.00
C304   C     0.13272   0.95255   0.21649   0.00000  Uiso   1.00
C305   C     0.17551   0.59284   0.29594   0.00000  Uiso   1.00
C306   C     0.16655   0.83490   0.24981   0.00000  Uiso   1.00
C307   C     0.13421   0.90631   0.21398   0.00000  Uiso   1.00
C308   C     0.17043   0.61641   0.25146   0.00000  Uiso   1.00
C309   C     0.16703   0.88292   0.24920   0.00000  Uiso   1.00
C310   C     0.16836   0.59319   0.20768   0.00000  Uiso   1.00
C311   C     0.20169   0.90551   0.28319   0.00000  Uiso   1.00
C312   C     0.16941   0.54741   0.20770   0.00000  Uiso   1.00
C313   C     0.20369   0.95127   0.28260   0.00000  Uiso   1.00
C314   C     0.17027   0.52376   0.25124   0.00000  Uiso   1.00
C315   C     0.16888   0.97521   0.24997   0.00000  Uiso   1.00
C316   C     0.00333   0.81477   0.17832   0.00000  Uiso   1.00
C317   C     0.20962   0.76598   0.05976   0.00000  Uiso   1.00
C318   C     0.01644   0.76739   0.34810   0.00000  Uiso   1.00
C319   C     0.12366   0.51929   0.35001   0.00000  Uiso   1.00
C320   C     0.05211   0.97948   0.20663   0.00000  Uiso   1.00
C321   C     0.23471   0.61941   0.35583   0.00000  Uiso   1.00
C322   C     0.11786   0.88573   0.13472   0.00000  Uiso   1.00
C323   C     0.28981   0.74815   0.04726   0.00000  Uiso   1.00
C324   C     0.16179   0.64494   0.47489   0.00000  Uiso   1.00
C325   C     0.07990   0.66639   0.10291   0.00000  Uiso   1.00
C326   C     0.25663   0.83636   0.40600   0.00000  Uiso   1.00
C327   C     0.14573   0.71307   0.44284   0.00000  Uiso   1.00
C328   C     0.20662   0.76824   0.11005   0.00000  Uiso   1.00
C329   C     0.14439   0.71564   0.39194   0.00000  Uiso   1.00
C330   C     0.12755   0.72999   0.09936   0.00000  Uiso   1.00
C331   C     0.19087   0.78319   0.39877   0.00000  Uiso   1.00
C332   C     0.12615   0.73205   0.04829   0.00000  Uiso   1.00
Cu333  Cu    0.16667   0.74999   0.29822   0.00000  Uiso   1.00
Cu334  Cu    0.16667   0.75000   0.20179   0.00000  Uiso   1.00
H335   H     0.16619   0.61037   0.17323   0.00000  Uiso   1.00
H336   H     0.00228   0.83629   0.21065   0.00000  Uiso   1.00
H337   H     0.30964   0.82878   0.14814   0.00000  Uiso   1.00
H338   H     0.31315   0.77326   0.36200   0.00000  Uiso   1.00
H339   H     0.03093   0.79856   0.33328   0.00000  Uiso   1.00
H340   H     0.04453   0.75738   0.37961   0.00000  Uiso   1.00
H341   H     0.10049   0.99763   0.32300   0.00000  Uiso   1.00
H342   H     0.10473   0.55178   0.35222   0.00000  Uiso   1.00
H343   H     0.12525   0.50313   0.38607   0.00000  Uiso   1.00
H344   H     0.05893   0.50053   0.23964   0.00000  Uiso   1.00
H345   H     0.03644   0.94667   0.21555   0.00000  Uiso   1.00
H346   H     0.22826   0.88764   0.30927   0.00000  Uiso   1.00
H347   H     0.02266   0.99592   0.18039   0.00000  Uiso   1.00
H348   H     0.24022   0.63961   0.38940   0.00000  Uiso   1.00
H349   H     0.25441   0.63710   0.32841   0.00000  Uiso   1.00
H350   H     0.25284   0.58681   0.36465   0.00000  Uiso   1.00
H351   H     0.09337   0.86388   0.10908   0.00000  Uiso   1.00
H352   H     0.15784   0.87367   0.13683   0.00000  Uiso   1.00
H353   H     0.11502   0.91969   0.11938   0.00000  Uiso   1.00
H354   H     0.27560   0.71854   0.02566   0.00000  Uiso   1.00
H355   H     0.30164   0.73898   0.08601   0.00000  Uiso   1.00
H356   H     0.32432   0.76053   0.03272   0.00000  Uiso   1.00
H357   H     0.16914   0.53038   0.17344   0.00000  Uiso   1.00
H358   H     0.19467   0.65836   0.00026   0.00000  Uiso   1.00
H359   H     0.17507   0.63125   0.44183   0.00000  Uiso   1.00
H360   H     0.14498   0.61729   0.49381   0.00000  Uiso   1.00
H361   H     0.05950   0.64805   0.12911   0.00000  Uiso   1.00
H362   H     0.05512   0.66569   0.06716   0.00000  Uiso   1.00
H363   H     0.11636   0.64872   0.10077   0.00000  Uiso   1.00
H364   H     0.28214   0.85250   0.38261   0.00000  Uiso   1.00
H365   H     0.28011   0.81195   0.42923   0.00000  Uiso   1.00
H366   H     0.24249   0.86263   0.42840   0.00000  Uiso   1.00
H367   H     0.23245   0.96802   0.30784   0.00000  Uiso   1.00
H368   H     0.23708   0.78388   0.13381   0.00000  Uiso   1.00
H369   H     0.12597   0.68942   0.36946   0.00000  Uiso   1.00
H370   H     0.09226   0.72063   0.02521   0.00000  Uiso   1.00
H371   H     0.20144   0.81246   0.47081   0.00000  Uiso   1.00
H372   H     0.04168   0.81579   0.16650   0.00000  Uiso   1.00
N373   N     0.16667   0.75001   0.12935   0.00000  Uiso   1.00
N374   N     0.16667   0.74999   0.37066   0.00000  Uiso   1.00
O375   O     0.16667   0.68572   0.29072   0.00000  Uiso   1.00
O376   O     0.01124   0.73276   0.31380   0.00000  Uiso   1.00
O377   O     0.17395   0.52418   0.33918   0.00000  Uiso   1.00
O378   O     0.09699   0.97539   0.18494   0.00000  Uiso   1.00
O379   O     0.18180   0.61453   0.34012   0.00000  Uiso   1.00
O380   O     0.10007   0.88382   0.18029   0.00000  Uiso   1.00
O381   O     0.25299   0.78188   0.04275   0.00000  Uiso   1.00
O382   O     0.12373   0.67688   0.46238   0.00000  Uiso   1.00
O383   O     0.08795   0.71024   0.11953   0.00000  Uiso   1.00
O384   O     0.21540   0.81635   0.37573   0.00000  Uiso   1.00
O385   O     0.16666   0.81427   0.20929   0.00000  Uiso   1.00
O386   O     0.16667   0.68573   0.20928   0.00000  Uiso   1.00
O387   O     0.16666   0.81427   0.29072   0.00000  Uiso   1.00
O388   O     0.09161   0.74999   0.28132   0.00000  Uiso   1.00
O389   O     0.24172   0.75000   0.21868   0.00000  Uiso   1.00
O390   O     0.09161   0.75000   0.19989   0.00000  Uiso   1.00
O391   O     0.24172   0.75000   0.30012   0.00000  Uiso   1.00
O392   O     0.32199   0.77079   0.18676   0.00000  Uiso   1.00
C393   C     0.50124   0.66487   0.25037   0.00000  Uiso   1.00
C394   C     0.52123   0.78393   0.44945   0.00000  Uiso   1.00
C395   C     0.50110   0.74884   0.02744   0.00000  Uiso   1.00
C396   C     0.50036   0.74836   0.47269   0.00000  Uiso   1.00
C397   C     0.40145   0.75104   0.23773   0.00000  Uiso   1.00
C398   C     0.59864   0.75045   0.26243   0.00000  Uiso   1.00
C399   C     0.34663   0.75673   0.23159   0.00000  Uiso   1.00
C400   C     0.65379   0.74856   0.26948   0.00000  Uiso   1.00
C401   C     0.50558   0.54666   0.29557   0.00000  Uiso   1.00
C402   C     0.46605   0.95255   0.21649   0.00000  Uiso   1.00
C403   C     0.50884   0.59284   0.29594   0.00000  Uiso   1.00
C404   C     0.49989   0.83490   0.24981   0.00000  Uiso   1.00
C405   C     0.46755   0.90631   0.21398   0.00000  Uiso   1.00
C406   C     0.50377   0.61641   0.25146   0.00000  Uiso   1.00
C407   C     0.50036   0.88292   0.24920   0.00000  Uiso   1.00
C408   C     0.50169   0.59319   0.20768   0.00000  Uiso   1.00
C409   C     0.53502   0.90551   0.28319   0.00000  Uiso   1.00
C410   C     0.50274   0.54741   0.20770   0.00000  Uiso   1.00
C411   C     0.53703   0.95127   0.28260   0.00000  Uiso   1.00
C412   C     0.50360   0.52376   0.25124   0.00000  Uiso   1.00
C413   C     0.50221   0.97521   0.24997   0.00000  Uiso   1.00
C414   C     0.33667   0.81477   0.17832   0.00000  Uiso   1.00
C415   C     0.54295   0.76598   0.05976   0.00000  Uiso   1.00
C416   C     0.34977   0.76739   0.34810   0.00000  Uiso   1.00
C417   C     0.45699   0.51929   0.35001   0.00000  Uiso   1.00
C418   C     0.38544   0.97948   0.20663   0.00000  Uiso   1.00
C419   C     0.56805   0.61941   0.35583   0.00000  Uiso   1.00
C420   C     0.45120   0.88573   0.13472   0.00000  Uiso   1.00
C421   C     0.62314   0.74815   0.04726   0.00000  Uiso   1.00
C422   C     0.49512   0.64494   0.47489   0.00000  Uiso   1.00
C423   C     0.41324   0.66639   0.10291   0.00000  Uiso   1.00
C424   C     0.58996   0.83636   0.40600   0.00000  Uiso   1.00
C425   C     0.47906   0.71307   0.44284   0.00000  Uiso   1.00
C426   C     0.53995   0.76824   0.11005   0.00000  Uiso   1.00
C427   C     0.47772   0.71564   0.39194   0.00000  Uiso   1.00
C428   C     0.46088   0.72999   0.09936   0.00000  Uiso   1.00
C429   C     0.52421   0.78319   0.39877   0.00000  Uiso   1.00
C430   C     0.45948   0.73205   0.04829   0.00000  Uiso   1.00
Cu431  Cu    0.50000   0.74999   0.29822   0.00000  Uiso   1.00
Cu432  Cu    0.50000   0.75000   0.20179   0.00000  Uiso   1.00
H433   H     0.49953   0.61037   0.17323   0.00000  Uiso   1.00
H434   H     0.33561   0.83629   0.21065   0.00000  Uiso   1.00
H435   H     0.64297   0.82878   0.14814   0.00000  Uiso   1.00
H436   H     0.64648   0.77326   0.36200   0.00000  Uiso   1.00
H437   H     0.36426   0.79856   0.33328   0.00000  Uiso   1.00
H438   H     0.37786   0.75738   0.37961   0.00000  Uiso   1.00
H439   H     0.43383   0.99763   0.32300   0.00000  Uiso   1.00
H440   H     0.43806   0.55178   0.35222   0.00000  Uiso   1.00
H441   H     0.45859   0.50313   0.38607   0.00000  Uiso   1.00
H442   H     0.39226   0.50053   0.23964   0.00000  Uiso   1.00
H443   H     0.36977   0.94667   0.21555   0.00000  Uiso   1.00
H444   H     0.56159   0.88764   0.30927   0.00000  Uiso   1.00
H445   H     0.35599   0.99592   0.18039   0.00000  Uiso   1.00
H446   H     0.57356   0.63961   0.38940   0.00000  Uiso   1.00
H447   H     0.58774   0.63710   0.32841   0.00000  Uiso   1.00
H448   H     0.58617   0.58681   0.36465   0.00000  Uiso   1.00
H449   H     0.42671   0.86388   0.10908   0.00000  Uiso   1.00
H450   H     0.49117   0.87367   0.13683   0.00000  Uiso   1.00
H451   H     0.44836   0.91969   0.11938   0.00000  Uiso   1.00
H452   H     0.60894   0.71854   0.02566   0.00000  Uiso   1.00
H453   H     0.63498   0.73898   0.08601   0.00000  Uiso   1.00
H454   H     0.65765   0.76053   0.03272   0.00000  Uiso   1.00
H455   H     0.50247   0.53038   0.17344   0.00000  Uiso   1.00
H456   H     0.52800   0.65836   0.00026   0.00000  Uiso   1.00
H457   H     0.50840   0.63125   0.44183   0.00000  Uiso   1.00
H458   H     0.47832   0.61729   0.49381   0.00000  Uiso   1.00
H459   H     0.39284   0.64805   0.12911   0.00000  Uiso   1.00
H460   H     0.38846   0.66569   0.06716   0.00000  Uiso   1.00
H461   H     0.44969   0.64872   0.10077   0.00000  Uiso   1.00
H462   H     0.61548   0.85250   0.38261   0.00000  Uiso   1.00
H463   H     0.61345   0.81195   0.42923   0.00000  Uiso   1.00
H464   H     0.57582   0.86263   0.42840   0.00000  Uiso   1.00
H465   H     0.56578   0.96802   0.30784   0.00000  Uiso   1.00
H466   H     0.57041   0.78388   0.13381   0.00000  Uiso   1.00
H467   H     0.45930   0.68942   0.36946   0.00000  Uiso   1.00
H468   H     0.42560   0.72063   0.02521   0.00000  Uiso   1.00
H469   H     0.53477   0.81246   0.47081   0.00000  Uiso   1.00
H470   H     0.37501   0.81579   0.16650   0.00000  Uiso   1.00
N471   N     0.50000   0.75001   0.12935   0.00000  Uiso   1.00
N472   N     0.50000   0.74999   0.37066   0.00000  Uiso   1.00
O473   O     0.50000   0.68572   0.29072   0.00000  Uiso   1.00
O474   O     0.34458   0.73276   0.31380   0.00000  Uiso   1.00
O475   O     0.50729   0.52418   0.33918   0.00000  Uiso   1.00
O476   O     0.43032   0.97539   0.18494   0.00000  Uiso   1.00
O477   O     0.51513   0.61453   0.34012   0.00000  Uiso   1.00
O478   O     0.43340   0.88382   0.18029   0.00000  Uiso   1.00
O479   O     0.58632   0.78188   0.04275   0.00000  Uiso   1.00
O480   O     0.45707   0.67688   0.46238   0.00000  Uiso   1.00
O481   O     0.42129   0.71024   0.11953   0.00000  Uiso   1.00
O482   O     0.54874   0.81635   0.37573   0.00000  Uiso   1.00
O483   O     0.50000   0.81427   0.20929   0.00000  Uiso   1.00
O484   O     0.50000   0.68573   0.20928   0.00000  Uiso   1.00
O485   O     0.50000   0.81427   0.29072   0.00000  Uiso   1.00
O486   O     0.42495   0.74999   0.28132   0.00000  Uiso   1.00
O487   O     0.57505   0.75000   0.21868   0.00000  Uiso   1.00
O488   O     0.42495   0.75000   0.19989   0.00000  Uiso   1.00
O489   O     0.57505   0.75000   0.30012   0.00000  Uiso   1.00
O490   O     0.65532   0.77079   0.18676   0.00000  Uiso   1.00
C491   C     0.83458   0.66487   0.25037   0.00000  Uiso   1.00
C492   C     0.85457   0.78393   0.44945   0.00000  Uiso   1.00
C493   C     0.83443   0.74884   0.02744   0.00000  Uiso   1.00
C494   C     0.83370   0.74836   0.47269   0.00000  Uiso   1.00
C495   C     0.73479   0.75104   0.23773   0.00000  Uiso   1.00
C496   C     0.93197   0.75045   0.26243   0.00000  Uiso   1.00
C497   C     0.67997   0.75673   0.23159   0.00000  Uiso   1.00
C498   C     0.98712   0.74856   0.26948   0.00000  Uiso   1.00
C499   C     0.83891   0.54666   0.29557   0.00000  Uiso   1.00
C500   C     0.79939   0.95255   0.21649   0.00000  Uiso   1.00
C501   C     0.84217   0.59284   0.29594   0.00000  Uiso   1.00
C502   C     0.83322   0.83490   0.24981   0.00000  Uiso   1.00
C503   C     0.80088   0.90631   0.21398   0.00000  Uiso   1.00
C504   C     0.83710   0.61641   0.25146   0.00000  Uiso   1.00
C505   C     0.83370   0.88292   0.24920   0.00000  Uiso   1.00
C506   C     0.83503   0.59319   0.20768   0.00000  Uiso   1.00
C507   C     0.86835   0.90551   0.28319   0.00000  Uiso   1.00
C508   C     0.83608   0.54741   0.20770   0.00000  Uiso   1.00
C509   C     0.87036   0.95127   0.28260   0.00000  Uiso   1.00
C510   C     0.83693   0.52376   0.25124   0.00000  Uiso   1.00
C511   C     0.83554   0.97521   0.24997   0.00000  Uiso   1.00
C512   C     0.67000   0.81477   0.17832   0.00000  Uiso   1.00
C513   C     0.87628   0.76598   0.05976   0.00000  Uiso   1.00
C514   C     0.68311   0.76739   0.34810   0.00000  Uiso   1.00
C515   C     0.79032   0.51929   0.35001   0.00000  Uiso   1.00
C516   C     0.71878   0.97948   0.20663   0.00000  Uiso   1.00
C517   C     0.90138   0.61941   0.35583   0.00000  Uiso   1.00
C518   C     0.78453   0.88573   0.13472   0.00000  Uiso   1.00
C519   C     0.95647   0.74815   0.04726   0.00000  Uiso   1.00
C520   C     0.82845   0.64494   0.47489   0.00000  Uiso   1.00
C521   C     0.74657   0.66639   0.10291   0.00000  Uiso   1.00
C522   C     0.92329   0.83636   0.40600   0.00000  Uiso   1.00
C523   C     0.81239   0.71307   0.44284   0.00000  Uiso   1.00
C524   C     0.87329   0.76824   0.11005   0.00000  Uiso   1.00
C525   C     0.81105   0.71564   0.39194   0.00000  Uiso   1.00
C526   C     0.79421   0.72999   0.09936   0.00000  Uiso   1.00
C527   C     0.85754   0.78319   0.39877   0.00000  Uiso   1.00
C528   C     0.79281   0.73205   0.04829   0.00000  Uiso   1.00
Cu529  Cu    0.83333   0.74999   0.29822   0.00000  Uiso   1.00
Cu530  Cu    0.83333   0.75000   0.20179   0.00000  Uiso   1.00
H531   H     0.83286   0.61037   0.17323   0.00000  Uiso   1.00
H532   H     0.66894   0.83629   0.21065   0.00000  Uiso   1.00
H533   H     0.97631   0.82878   0.14814   0.00000  Uiso   1.00
H534   H     0.97982   0.77326   0.36200   0.00000  Uiso   1.00
H535   H     0.69759   0.79856   0.33328   0.00000  Uiso   1.00
H536   H     0.71120   0.75738   0.37961   0.00000  Uiso   1.00
H537   H     0.76716   0.99763   0.32300   0.00000  Uiso   1.00
H538   H     0.77139   0.55178   0.35222   0.00000  Uiso   1.00
H539   H     0.79192   0.50313   0.38607   0.00000  Uiso   1.00
H540   H     0.72560   0.50053   0.23964   0.00000  Uiso   1.00
H541   H     0.70311   0.94667   0.21555   0.00000  Uiso   1.00
H542   H     0.89492   0.88764   0.30927   0.00000  Uiso   1.00
H543   H     0.68932   0.99592   0.18039   0.00000  Uiso   1.00
H544   H     0.90689   0.63961   0.38940   0.00000  Uiso   1.00
H545   H     0.92108   0.63710   0.32841   0.00000  Uiso   1.00
H546   H     0.91950   0.58681   0.36465   0.00000  Uiso   1.00
H547   H     0.76004   0.86388   0.10908   0.00000  Uiso   1.00
H548   H     0.82451   0.87367   0.13683   0.00000  Uiso   1.00
H549   H     0.78169   0.91969   0.11938   0.00000  Uiso   1.00
H550   H     0.94227   0.71854   0.02566   0.00000  Uiso   1.00
H551   H     0.96831   0.73898   0.08601   0.00000  Uiso   1.00
H552   H     0.99098   0.76053   0.03272   0.00000  Uiso   1.00
H553   H     0.83580   0.53038   0.17344   0.00000  Uiso   1.00
H554   H     0.86133   0.65836   0.00026   0.00000  Uiso   1.00
H555   H     0.84174   0.63125   0.44183   0.00000  Uiso   1.00
H556   H     0.81165   0.61729   0.49381   0.00000  Uiso   1.00
H557   H     0.72617   0.64805   0.12911   0.00000  Uiso   1.00
H558   H     0.72179   0.66569   0.06716   0.00000  Uiso   1.00
H559   H     0.78303   0.64872   0.10077   0.00000  Uiso   1.00
H560   H     0.94881   0.85250   0.38261   0.00000  Uiso   1.00
H561   H     0.94678   0.81195   0.42923   0.00000  Uiso   1.00
H562   H     0.90915   0.86263   0.42840   0.00000  Uiso   1.00
H563   H     0.89911   0.96802   0.30784   0.00000  Uiso   1.00
H564   H     0.90374   0.78388   0.13381   0.00000  Uiso   1.00
H565   H     0.79263   0.68942   0.36946   0.00000  Uiso   1.00
H566   H     0.75893   0.72063   0.02521   0.00000  Uiso   1.00
H567   H     0.86810   0.81246   0.47081   0.00000  Uiso   1.00
H568   H     0.70835   0.81579   0.16650   0.00000  Uiso   1.00
N569   N     0.83333   0.75001   0.12935   0.00000  Uiso   1.00
N570   N     0.83333   0.74999   0.37066   0.00000  Uiso   1.00
O571   O     0.83334   0.68572   0.29072   0.00000  Uiso   1.00
O572   O     0.67791   0.73276   0.31380   0.00000  Uiso   1.00
O573   O     0.84062   0.52418   0.33918   0.00000  Uiso   1.00
O574   O     0.76365   0.97539   0.18494   0.00000  Uiso   1.00
O575   O     0.84847   0.61453   0.34012   0.00000  Uiso   1.00
O576   O     0.76674   0.88382   0.18029   0.00000  Uiso   1.00
O577   O     0.91965   0.78188   0.04275   0.00000  Uiso   1.00
O578   O     0.79040   0.67688   0.46238   0.00000  Uiso   1.00
O579   O     0.75462   0.71024   0.11953   0.00000  Uiso   1.00
O580   O     0.88207   0.81635   0.37573   0.00000  Uiso   1.00
O581   O     0.83333   0.81427   0.20929   0.00000  Uiso   1.00
O582   O     0.83334   0.68573   0.20928   0.00000  Uiso   1.00
O583   O     0.83333   0.81427   0.29072   0.00000  Uiso   1.00
O584   O     0.75828   0.74999   0.28132   0.00000  Uiso   1.00
O585   O     0.90839   0.75000   0.21868   0.00000  Uiso   1.00
O586   O     0.75828   0.75000   0.19989   0.00000  Uiso   1.00
O587   O     0.90839   0.75000   0.30012   0.00000  Uiso   1.00
O588   O     0.98866   0.77079   0.18676   0.00000  Uiso   1.00
C589   C     0.16791   0.16487   0.75037   0.00000  Uiso   1.00
C590   C     0.18790   0.28393   0.94945   0.00000  Uiso   1.00
C591   C     0.16777   0.24884   0.52744   0.00000  Uiso   1.00
C592   C     0.16703   0.24836   0.97269   0.00000  Uiso   1.00
C593   C     0.06812   0.25104   0.73773   0.00000  Uiso   1.00
C594   C     0.26531   0.25045   0.76243   0.00000  Uiso   1.00
C595   C     0.01330   0.25673   0.73159   0.00000  Uiso   1.00
C596   C     0.32045   0.24856   0.76948   0.00000  Uiso   1.00
C597   C     0.17225   0.04666   0.79557   0.00000  Uiso   1.00
C598   C     0.13272   0.45255   0.71649   0.00000  Uiso   1.00
C599   C     0.17551   0.09284   0.79594   0.00000  Uiso   1.00
C600   C     0.16655   0.33490   0.74981   0.00000  Uiso   1.00
C601   C     0.13421   0.40631   0.71398   0.00000  Uiso   1.00
C602   C     0.17043   0.11641   0.75146   0.00000  Uiso   1.00
C603   C     0.16703   0.38292   0.74920   0.00000  Uiso   1.00
C604   C     0.16836   0.09319   0.70768   0.00000  Uiso   1.00
C605   C     0.20169   0.40551   0.78319   0.00000  Uiso   1.00
C606   C     0.16941   0.04741   0.70770   0.00000  Uiso   1.00
C607   C     0.20369   0.45127   0.78260   0.00000  Uiso   1.00
C608   C     0.17027   0.02376   0.75124   0.00000  Uiso   1.00
C609   C     0.16888   0.47521   0.74997   0.00000  Uiso   1.00
C610   C     0.00333   0.31477   0.67832   0.00000  Uiso   1.00
C611   C     0.20962   0.26598   0.55976   0.00000  Uiso   1.00
C612   C     0.01644   0.26739   0.84810   0.00000  Uiso   1.00
C613   C     0.12366   0.01929   0.85001   0.00000  Uiso   1.00
C614   C     0.05211   0.47948   0.70663   0.00000  Uiso   1.00
C615   C     0.23471   0.11941   0.85583   0.00000  Uiso   1.00
C616   C     0.11786   0.38573   0.63472   0.00000  Uiso   1.00
C617   C     0.28981   0.24815   0.54726   0.00000  Uiso   1.00
C618   C     0.16179   0.14494   0.97489   0.00000  Uiso   1.00
C619   C     0.07990   0.16639   0.60291   0.00000  Uiso   1.00
C620   C     0.25663   0.33636   0.90600   0.00000  Uiso   1.00
C621   C     0.14573   0.21307   0.94284   0.00000  Uiso   1.00
C622   C     0.20662   0.26824   0.61005   0.00000  Uiso   1.00
C623   C     0.14439   0.21564   0.89194   0.00000  Uiso   1.00
C624   C     0.12755   0.22999   0.59936   0.00000  Uiso   1.00
C625   C     0.19087   0.28319   0.89877   0.00000  Uiso   1.00
C626   C     0.12615   0.23205   0.54829   0.00000  Uiso   1.00
Cu627  Cu    0.16667   0.24999   0.79822   0.00000  Uiso   1.00
Cu628  Cu    0.16667   0.25000   0.70179   0.00000  Uiso   1.00
H629   H     0.16619   0.11037   0.67323   0.00000  Uiso   1.00
H630   H     0.00228   0.33629   0.71065   0.00000  Uiso   1.00
H631   H     0.30964   0.32878   0.64814   0.00000  Uiso   1.00
H632   H     0.31315   0.27326   0.86200   0.00000  Uiso   1.00
H633   H     0.03093   0.29856   0.83328   0.00000  Uiso   1.00
H634   H     0.04453   0.25738   0.87961   0.00000  Uiso   1.00
H635   H     0.10049   0.49763   0.82300   0.00000  Uiso   1.00
H636   H     0.10473   0.05178   0.85222   0.00000  Uiso   1.00
H637   H     0.12525   0.00313   0.88607   0.00000  Uiso   1.00
H638   H     0.05893   0.00053   0.73964   0.00000  Uiso   1.00
H639   H     0.03644   0.44667   0.71555   0.00000  Uiso   1.00
H640   H     0.22826   0.38764   0.80927   0.00000  Uiso   1.00
H641   H     0.02266   0.49592   0.68039   0.00000  Uiso   1.00
H642   H     0.24022   0.13961   0.88940   0.00000  Uiso   1.00
H643   H     0.25441   0.13710   0.82841   0.00000  Uiso   1.00
H644   H     0.25284   0.08681   0.86465   0.00000  Uiso   1.00
H645   H     0.09337   0.36388   0.60908   0.00000  Uiso   1.00
H646   H     0.15784   0.37367   0.63683   0.00000  Uiso   1.00
H647   H     0.11502   0.41969   0.61938   0.00000  Uiso   1.00
H648   H     0.27560   0.21854   0.52566   0.00000  Uiso   1.00
H649   H     0.30164   0.23898   0.58601   0.00000  Uiso   1.00
H650   H     0.32432   0.26053   0.53272   0.00000  Uiso   1.00
H651   H     0.16914   0.03038   0.67344   0.00000  Uiso   1.00
H652   H     0.19467   0.15836   0.50026   0.00000  Uiso   1.00
H653   H     0.17507   0.13125   0.94183   0.00000  Uiso   1.00
H654   H     0.14498   0.11729   0.99381   0.00000  Uiso   1.00
H655   H     0.05950   0.14805   0.62911   0.00000  Uiso   1.00
H656   H     0.05512   0.16569   0.56716   0.00000  Uiso   1.00
H657   H     0.11636   0.14872   0.60077   0.00000  Uiso   1.00
H658   H     0.28214   0.35250   0.88261   0.00000  Uiso   1.00
H659   H     0.28011   0.31195   0.92923   0.00000  Uiso   1.00
H660   H     0.24249   0.36263   0.92840   0.00000  Uiso   1.00
H661   H     0.23245   0.46802   0.80784   0.00000  Uiso   1.00
H662   H     0.23708   0.28388   0.63381   0.00000  Uiso   1.00
H663   H     0.12597   0.18942   0.86946   0.00000  Uiso   1.00
H664   H     0.09226   0.22063   0.52521   0.00000  Uiso   1.00
H665   H     0.20144   0.31246   0.97081   0.00000  Uiso   1.00
H666   H     0.04168   0.31579   0.66650   0.00000  Uiso   1.00
N667   N     0.16667   0.25001   0.62935   0.00000  Uiso   1.00
N668   N     0.16667   0.24999   0.87066   0.00000  Uiso   1.00
O669   O     0.16667   0.18572   0.79072   0.00000  Uiso   1.00
O670   O     0.01124   0.23276   0.81380   0.00000  Uiso   1.00
O671   O     0.17395   0.02418   0.83918   0.00000  Uiso   1.00
O672   O     0.09699   0.47539   0.68494   0.00000  Uiso   1.00
O673   O     0.18180   0.11453   0.84012   0.00000  Uiso   1.00
O674   O     0.10007   0.38382   0.68029   0.00000  Uiso   1.00
O675   O     0.25299   0.28188   0.54275   0.00000  Uiso   1.00
O676   O     0.12373   0.17688   0.96238   0.00000  Uiso   1.00
O677   O     0.08795   0.21024   0.61953   0.00000  Uiso   1.00
O678   O     0.21540   0.31635   0.87573   0.00000  Uiso   1.00
O679   O     0.16666   0.31427   0.70929   0.00000  Uiso   1.00
O680   O     0.16667   0.18573   0.70928   0.00000  Uiso   1.00
O681   O     0.16666   0.31427   0.79072   0.00000  Uiso   1.00
O682   O     0.09161   0.24999   0.78132   0.00000  Uiso   1.00
O683   O     0.24172   0.25000   0.71868   0.00000  Uiso   1.00
O684   O     0.09161   0.25000   0.69989   0.00000  Uiso   1.00
O685   O     0.24172   0.25000   0.80012   0.00000  Uiso   1.00
O686   O     0.32199   0.27079   0.68676   0.00000  Uiso   1.00
C687   C     0.50124   0.16487   0.75037   0.00000  Uiso   1.00
C688   C     0.52123   0.28393   0.94945   0.00000  Uiso   1.00
C689   C     0.50110   0.24884   0.52744   0.00000  Uiso   1.00
C690   C     0.50036   0.24836   0.97269   0.00000  Uiso   1.00
C691   C     0.40145   0.25104   0.73773   0.00000  Uiso   1.00
C692   C     0.59864   0.25045   0.76243   0.00000  Uiso   1.00
C693   C     0.34663   0.25673   0.73159   0.00000  Uiso   1.00
C694   C     0.65379   0.24856   0.76948   0.00000  Uiso   1.00
C695   C     0.50558   0.04666   0.79557   0.00000  Uiso   1.00
C696   C     0.46605   0.45255   0.71649   0.00000  Uiso   1.00
C697   C     0.50884   0.09284   0.79594   0.00000  Uiso   1.00
C698   C     0.49989   0.33490   0.74981   0.00000  Uiso   1.00
C699   C     0.46755   0.40631   0.71398   0.00000  Uiso   1.00
C700   C     0.50377   0.11641   0.75146   0.00000  Uiso   1.00
C701   C     0.50036   0.38292   0.74920   0.00000  Uiso   1.00
C702   C     0.50169   0.09319   0.70768   0.00000  Uiso   1.00
C703   C     0.53502   0.40551   0.78319   0.00000  Uiso   1.00
C704   C     0.50274   0.04741   0.70770   0.00000  Uiso   1.00
C705   C     0.53703   0.45127   0.78260   0.00000  Uiso   1.00
C706   C     0.50360   0.02376   0.75124   0.00000  Uiso   1.00
C707   C     0.50221   0.47521   0.74997   0.00000  Uiso   1.00
C708   C     0.33667   0.31477   0.67832   0.00000  Uiso   1.00
C709   C     0.54295   0.26598   0.55976   0.00000  Uiso   1.00
C710   C     0.34977   0.26739   0.84810   0.00000  Uiso   1.00
C711   C     0.45699   0.01929   0.85001   0.00000  Uiso   1.00
C712   C     0.38544   0.47948   0.70663   0.00000  Uiso   1.00
C713   C     0.56805   0.11941   0.85583   0.00000  Uiso   1.00
C714   C     0.45120   0.38573   0.63472   0.00000  Uiso   1.00
C715   C     0.62314   0.24815   0.54726   0.00000  Uiso   1.00
C716   C     0.49512   0.14494   0.97489   0.00000  Uiso   1.00
C717   C     0.41324   0.16639   0.60291   0.00000  Uiso   1.00
C718   C     0.58996   0.33636   0.90600   0.00000  Uiso   1.00
C719   C     0.47906   0.21307   0.94284   0.00000  Uiso   1.00
C720   C     0.53995   0.26824   0.61005   0.00000  Uiso   1.00
C721   C     0.47772   0.21564   0.89194   0.00000  Uiso   1.00
C722   C     0.46088   0.22999   0.59936   0.00000  Uiso   1.00
C723   C     0.52421   0.28319   0.89877   0.00000  Uiso   1.00
C724   C     0.45948   0.23205   0.54829   0.00000  Uiso   1.00
Cu725  Cu    0.50000   0.24999   0.79822   0.00000  Uiso   1.00
Cu726  Cu    0.50000   0.25000   0.70179   0.00000  Uiso   1.00
H727   H     0.49953   0.11037   0.67323   0.00000  Uiso   1.00
H728   H     0.33561   0.33629   0.71065   0.00000  Uiso   1.00
H729   H     0.64297   0.32878   0.64814   0.00000  Uiso   1.00
H730   H     0.64648   0.27326   0.86200   0.00000  Uiso   1.00
H731   H     0.36426   0.29856   0.83328   0.00000  Uiso   1.00
H732   H     0.37786   0.25738   0.87961   0.00000  Uiso   1.00
H733   H     0.43383   0.49763   0.82300   0.00000  Uiso   1.00
H734   H     0.43806   0.05178   0.85222   0.00000  Uiso   1.00
H735   H     0.45859   0.00313   0.88607   0.00000  Uiso   1.00
H736   H     0.39226   0.00053   0.73964   0.00000  Uiso   1.00
H737   H     0.36977   0.44667   0.71555   0.00000  Uiso   1.00
H738   H     0.56159   0.38764   0.80927   0.00000  Uiso   1.00
H739   H     0.35599   0.49592   0.68039   0.00000  Uiso   1.00
H740   H     0.57356   0.13961   0.88940   0.00000  Uiso   1.00
H741   H     0.58774   0.13710   0.82841   0.00000  Uiso   1.00
H742   H     0.58617   0.08681   0.86465   0.00000  Uiso   1.00
H743   H     0.42671   0.36388   0.60908   0.00000  Uiso   1.00
H744   H     0.49117   0.37367   0.63683   0.00000  Uiso   1.00
H745   H     0.44836   0.41969   0.61938   0.00000  Uiso   1.00
H746   H     0.60894   0.21854   0.52566   0.00000  Uiso   1.00
H747   H     0.63498   0.23898   0.58601   0.00000  Uiso   1.00
H748   H     0.65765   0.26053   0.53272   0.00000  Uiso   1.00
H749   H     0.50247   0.03038   0.67344   0.00000  Uiso   1.00
H750   H     0.52800   0.15836   0.50026   0.00000  Uiso   1.00
H751   H     0.50840   0.13125   0.94183   0.00000  Uiso   1.00
H752   H     0.47832   0.11729   0.99381   0.00000  Uiso   1.00
H753   H     0.39284   0.14805   0.62911   0.00000  Uiso   1.00
H754   H     0.38846   0.16569   0.56716   0.00000  Uiso   1.00
H755   H     0.44969   0.14872   0.60077   0.00000  Uiso   1.00
H756   H     0.61548   0.35250   0.88261   0.00000  Uiso   1.00
H757   H     0.61345   0.31195   0.92923   0.00000  Uiso   1.00
H758   H     0.57582   0.36263   0.92840   0.00000  Uiso   1.00
H759   H     0.56578   0.46802   0.80784   0.00000  Uiso   1.00
H760   H     0.57041   0.28388   0.63381   0.00000  Uiso   1.00
H761   H     0.45930   0.18942   0.86946   0.00000  Uiso   1.00
H762   H     0.42560   0.22063   0.52521   0.00000  Uiso   1.00
H763   H     0.53477   0.31246   0.97081   0.00000  Uiso   1.00
H764   H     0.37501   0.31579   0.66650   0.00000  Uiso   1.00
N765   N     0.50000   0.25001   0.62935   0.00000  Uiso   1.00
N766   N     0.50000   0.24999   0.87066   0.00000  Uiso   1.00
O767   O     0.50000   0.18572   0.79072   0.00000  Uiso   1.00
O768   O     0.34458   0.23276   0.81380   0.00000  Uiso   1.00
O769   O     0.50729   0.02418   0.83918   0.00000  Uiso   1.00
O770   O     0.43032   0.47539   0.68494   0.00000  Uiso   1.00
O771   O     0.51513   0.11453   0.84012   0.00000  Uiso   1.00
O772   O     0.43340   0.38382   0.68029   0.00000  Uiso   1.00
O773   O     0.58632   0.28188   0.54275   0.00000  Uiso   1.00
O774   O     0.45707   0.17688   0.96238   0.00000  Uiso   1.00
O775   O     0.42129   0.21024   0.61953   0.00000  Uiso   1.00
O776   O     0.54874   0.31635   0.87573   0.00000  Uiso   1.00
O777   O     0.50000   0.31427   0.70929   0.00000  Uiso   1.00
O778   O     0.50000   0.18573   0.70928   0.00000  Uiso   1.00
O779   O     0.50000   0.31427   0.79072   0.00000  Uiso   1.00
O780   O     0.42495   0.24999   0.78132   0.00000  Uiso   1.00
O781   O     0.57505   0.25000   0.71868   0.00000  Uiso   1.00
O782   O     0.42495   0.25000   0.69989   0.00000  Uiso   1.00
O783   O     0.57505   0.25000   0.80012   0.00000  Uiso   1.00
O784   O     0.65532   0.27079   0.68676   0.00000  Uiso   1.00
C785   C     0.83458   0.16487   0.75037   0.00000  Uiso   1.00
C786   C     0.85457   0.28393   0.94945   0.00000  Uiso   1.00
C787   C     0.83443   0.24884   0.52744   0.00000  Uiso   1.00
C788   C     0.83370   0.24836   0.97269   0.00000  Uiso   1.00
C789   C     0.73479   0.25104   0.73773   0.00000  Uiso   1.00
C790   C     0.93197   0.25045   0.76243   0.00000  Uiso   1.00
C791   C     0.67997   0.25673   0.73159   0.00000  Uiso   1.00
C792   C     0.98712   0.24856   0.76948   0.00000  Uiso   1.00
C793   C     0.83891   0.04666   0.79557   0.00000  Uiso   1.00
C794   C     0.79939   0.45255   0.71649   0.00000  Uiso   1.00
C795   C     0.84217   0.09284   0.79594   0.00000  Uiso   1.00
C796   C     0.83322   0.33490   0.74981   0.00000  Uiso   1.00
C797   C     0.80088   0.40631   0.71398   0.00000  Uiso   1.00
C798   C     0.83710   0.11641   0.75146   0.00000  Uiso   1.00
C799   C     0.83370   0.38292   0.74920   0.00000  Uiso   1.00
C800   C     0.83503   0.09319   0.70768   0.00000  Uiso   1.00
C801   C     0.86835   0.40551   0.78319   0.00000  Uiso   1.00
C802   C     0.83608   0.04741   0.70770   0.00000  Uiso   1.00
C803   C     0.87036   0.45127   0.78260   0.00000  Uiso   1.00
C804   C     0.83693   0.02376   0.75124   0.00000  Uiso   1.00
C805   C     0.83554   0.47521   0.74997   0.00000  Uiso   1.00
C806   C     0.67000   0.31477   0.67832   0.00000  Uiso   1.00
C807   C     0.87628   0.26598   0.55976   0.00000  Uiso   1.00
C808   C     0.68311   0.26739   0.84810   0.00000  Uiso   1.00
C809   C     0.79032   0.01929   0.85001   0.00000  Uiso   1.00
C810   C     0.71878   0.47948   0.70663   0.00000  Uiso   1.00
C811   C     0.90138   0.11941   0.85583   0.00000  Uiso   1.00
C812   C     0.78453   0.38573   0.63472   0.00000  Uiso   1.00
C813   C     0.95647   0.24815   0.54726   0.00000  Uiso   1.00
C814   C     0.82845   0.14494   0.97489   0.00000  Uiso   1.00
C815   C     0.74657   0.16639   0.60291   0.00000  Uiso   1.00
C816   C     0.92329   0.33636   0.90600   0.00000  Uiso   1.00
C817   C     0.81239   0.21307   0.94284   0.00000  Uiso   1.00
C818   C     0.87329   0.26824   0.61005   0.00000  Uiso   1.00
C819   C     0.81105   0.21564   0.89194   0.00000  Uiso   1.00
C820   C     0.79421   0.22999   0.59936   0.00000  Uiso   1.00
C821   C     0.85754   0.28319   0.89877   0.00000  Uiso   1.00
C822   C     0.79281   0.23205   0.54829   0.00000  Uiso   1.00
Cu823  Cu    0.83333   0.24999   0.79822   0.00000  Uiso   1.00
Cu824  Cu    0.83333   0.25000   0.70179   0.00000  Uiso   1.00
H825   H     0.83286   0.11037   0.67323   0.00000  Uiso   1.00
H826   H     0.66894   0.33629   0.71065   0.00000  Uiso   1.00
H827   H     0.97631   0.32878   0.64814   0.00000  Uiso   1.00
H828   H     0.97982   0.27326   0.86200   0.00000  Uiso   1.00
H829   H     0.69759   0.29856   0.83328   0.00000  Uiso   1.00
H830   H     0.71120   0.25738   0.87961   0.00000  Uiso   1.00
H831   H     0.76716   0.49763   0.82300   0.00000  Uiso   1.00
H832   H     0.77139   0.05178   0.85222   0.00000  Uiso   1.00
H833   H     0.79192   0.00313   0.88607   0.00000  Uiso   1.00
H834   H     0.72560   0.00053   0.73964   0.00000  Uiso   1.00
H835   H     0.70311   0.44667   0.71555   0.00000  Uiso   1.00
H836   H     0.89492   0.38764   0.80927   0.00000  Uiso   1.00
H837   H     0.68932   0.49592   0.68039   0.00000  Uiso   1.00
H838   H     0.90689   0.13961   0.88940   0.00000  Uiso   1.00
H839   H     0.92108   0.13710   0.82841   0.00000  Uiso   1.00
H840   H     0.91950   0.08681   0.86465   0.00000  Uiso   1.00
H841   H     0.76004   0.36388   0.60908   0.00000  Uiso   1.00
H842   H     0.82451   0.37367   0.63683   0.00000  Uiso   1.00
H843   H     0.78169   0.41969   0.61938   0.00000  Uiso   1.00
H844   H     0.94227   0.21854   0.52566   0.00000  Uiso   1.00
H845   H     0.96831   0.23898   0.58601   0.00000  Uiso   1.00
H846   H     0.99098   0.26053   0.53272   0.00000  Uiso   1.00
H847   H     0.83580   0.03038   0.67344   0.00000  Uiso   1.00
H848   H     0.86133   0.15836   0.50026   0.00000  Uiso   1.00
H849   H     0.84174   0.13125   0.94183   0.00000  Uiso   1.00
H850   H     0.81165   0.11729   0.99381   0.00000  Uiso   1.00
H851   H     0.72617   0.14805   0.62911   0.00000  Uiso   1.00
H852   H     0.72179   0.16569   0.56716   0.00000  Uiso   1.00
H853   H     0.78303   0.14872   0.60077   0.00000  Uiso   1.00
H854   H     0.94881   0.35250   0.88261   0.00000  Uiso   1.00
H855   H     0.94678   0.31195   0.92923   0.00000  Uiso   1.00
H856   H     0.90915   0.36263   0.92840   0.00000  Uiso   1.00
H857   H     0.89911   0.46802   0.80784   0.00000  Uiso   1.00
H858   H     0.90374   0.28388   0.63381   0.00000  Uiso   1.00
H859   H     0.79263   0.18942   0.86946   0.00000  Uiso   1.00
H860   H     0.75893   0.22063   0.52521   0.00000  Uiso   1.00
H861   H     0.86810   0.31246   0.97081   0.00000  Uiso   1.00
H862   H     0.70835   0.31579   0.66650   0.00000  Uiso   1.00
N863   N     0.83333   0.25001   0.62935   0.00000  Uiso   1.00
N864   N     0.83333   0.24999   0.87066   0.00000  Uiso   1.00
O865   O     0.83334   0.18572   0.79072   0.00000  Uiso   1.00
O866   O     0.67791   0.23276   0.81380   0.00000  Uiso   1.00
O867   O     0.84062   0.02418   0.83918   0.00000  Uiso   1.00
O868   O     0.76365   0.47539   0.68494   0.00000  Uiso   1.00
O869   O     0.84847   0.11453   0.84012   0.00000  Uiso   1.00
O870   O     0.76674   0.38382   0.68029   0.00000  Uiso   1.00
O871   O     0.91965   0.28188   0.54275   0.00000  Uiso   1.00
O872   O     0.79040   0.17688   0.96238   0.00000  Uiso   1.00
O873   O     0.75462   0.21024   0.61953   0.00000  Uiso   1.00
O874   O     0.88207   0.31635   0.87573   0.00000  Uiso   1.00
O875   O     0.83333   0.31427   0.70929   0.00000  Uiso   1.00
O876   O     0.83334   0.18573   0.70928   0.00000  Uiso   1.00
O877   O     0.83333   0.31427   0.79072   0.00000  Uiso   1.00
O878   O     0.75828   0.24999   0.78132   0.00000  Uiso   1.00
O879   O     0.90839   0.25000   0.71868   0.00000  Uiso   1.00
O880   O     0.75828   0.25000   0.69989   0.00000  Uiso   1.00
O881   O     0.90839   0.25000   0.80012   0.00000  Uiso   1.00
O882   O     0.98866   0.27079   0.68676   0.00000  Uiso   1.00
C883   C     0.16791   0.66487   0.75037   0.00000  Uiso   1.00
C884   C     0.18790   0.78393   0.94945   0.00000  Uiso   1.00
C885   C     0.16777   0.74884   0.52744   0.00000  Uiso   1.00
C886   C     0.16703   0.74836   0.97269   0.00000  Uiso   1.00
C887   C     0.06812   0.75104   0.73773   0.00000  Uiso   1.00
C888   C     0.26531   0.75045   0.76243   0.00000  Uiso   1.00
C889   C     0.01330   0.75673   0.73159   0.00000  Uiso   1.00
C890   C     0.32045   0.74856   0.76948   0.00000  Uiso   1.00
C891   C     0.17225   0.54666   0.79557   0.00000  Uiso   1.00
C892   C     0.13272   0.95255   0.71649   0.00000  Uiso   1.00
C893   C     0.17551   0.59284   0.79594   0.00000  Uiso   1.00
C894   C     0.16655   0.83490   0.74981   0.00000  Uiso   1.00
C895   C     0.13421   0.90631   0.71398   0.00000  Uiso   1.00
C896   C     0.17043   0.61641   0.75146   0.00000  Uiso   1.00
C897   C     0.16703   0.88292   0.74920   0.00000  Uiso   1.00
C898   C     0.16836   0.59319   0.70768   0.00000  Uiso   1.00
C899   C     0.20169   0.90551   0.78319   0.00000  Uiso   1.00
C900   C     0.16941   0.54741   0.70770   0.00000  Uiso   1.00
C901   C     0.20369   0.95127   0.78260   0.00000  Uiso   1.00
C902   C     0.17027   0.52376   0.75124   0.00000  Uiso   1.00
C903   C     0.16888   0.97521   0.74997   0.00000  Uiso   1.00
C904   C     0.00333   0.81477   0.67832   0.00000  Uiso   1.00
C905   C     0.20962   0.76598   0.55976   0.00000  Uiso   1.00
C906   C     0.01644   0.76739   0.84810   0.00000  Uiso   1.00
C907   C     0.12366   0.51929   0.85001   0.00000  Uiso   1.00
C908   C     0.05211   0.97948   0.70663   0.00000  Uiso   1.00
C909   C     0.23471   0.61941   0.85583   0.00000  Uiso   1.00
C910   C     0.11786   0.88573   0.63472   0.00000  Uiso   1.00
C911   C     0.28981   0.74815   0.54726   0.00000  Uiso   1.00
C912   C     0.16179   0.64494   0.97489   0.00000  Uiso   1.00
C913   C     0.07990   0.66639   0.60291   0.00000  Uiso   1.00
C914   C     0.25663   0.83636   0.90600   0.00000  Uiso   1.00
C915   C     0.14573   0.71307   0.94284   0.00000  Uiso   1.00
C916   C     0.20662   0.76824   0.61005   0.00000  Uiso   1.00
C917   C     0.14439   0.71564   0.89194   0.00000  Uiso   1.00
C918   C     0.12755   0.72999   0.59936   0.00000  Uiso   1.00
C919   C     0.19087   0.78319   0.89877   0.00000  Uiso   1.00
C920   C     0.12615   0.73205   0.54829   0.00000  Uiso   1.00
Cu921  Cu    0.16667   0.74999   0.79822   0.00000  Uiso   1.00
Cu922  Cu    0.16667   0.75000   0.70179   0.00000  Uiso   1.00
H923   H     0.16619   0.61037   0.67323   0.00000  Uiso   1.00
H924   H     0.00228   0.83629   0.71065   0.00000  Uiso   1.00
H925   H     0.30964   0.82878   0.64814   0.00000  Uiso   1.00
H926   H     0.31315   0.77326   0.86200   0.00000  Uiso   1.00
H927   H     0.03093   0.79856   0.83328   0.00000  Uiso   1.00
H928   H     0.04453   0.75738   0.87961   0.00000  Uiso   1.00
H929   H     0.10049   0.99763   0.82300   0.00000  Uiso   1.00
H930   H     0.10473   0.55178   0.85222   0.00000  Uiso   1.00
H931   H     0.12525   0.50313   0.88607   0.00000  Uiso   1.00
H932   H     0.05893   0.50053   0.73964   0.00000  Uiso   1.00
H933   H     0.03644   0.94667   0.71555   0.00000  Uiso   1.00
H934   H     0.22826   0.88764   0.80927   0.00000  Uiso   1.00
H935   H     0.02266   0.99592   0.68039   0.00000  Uiso   1.00
H936   H     0.24022   0.63961   0.88940   0.00000  Uiso   1.00
H937   H     0.25441   0.63710   0.82841   0.00000  Uiso   1.00
H938   H     0.25284   0.58681   0.86465   0.00000  Uiso   1.00
H939   H     0.09337   0.86388   0.60908   0.00000  Uiso   1.00
H940   H     0.15784   0.87367   0.63683   0.00000  Uiso   1.00
H941   H     0.11502   0.91969   0.61938   0.00000  Uiso   1.00
H942   H     0.27560   0.71854   0.52566   0.00000  Uiso   1.00
H943   H     0.30164   0.73898   0.58601   0.00000  Uiso   1.00
H944   H     0.32432   0.76053   0.53272   0.00000  Uiso   1.00
H945   H     0.16914   0.53038   0.67344   0.00000  Uiso   1.00
H946   H     0.19467   0.65836   0.50026   0.00000  Uiso   1.00
H947   H     0.17507   0.63125   0.94183   0.00000  Uiso   1.00
H948   H     0.14498   0.61729   0.99381   0.00000  Uiso   1.00
H949   H     0.05950   0.64805   0.62911   0.00000  Uiso   1.00
H950   H     0.05512   0.66569   0.56716   0.00000  Uiso   1.00
H951   H     0.11636   0.64872   0.60077   0.00000  Uiso   1.00
H952   H     0.28214   0.85250   0.88261   0.00000  Uiso   1.00
H953   H     0.28011   0.81195   0.92923   0.00000  Uiso   1.00
H954   H     0.24249   0.86263   0.92840   0.00000  Uiso   1.00
H955   H     0.23245   0.96802   0.80784   0.00000  Uiso   1.00
H956   H     0.23708   0.78388   0.63381   0.00000  Uiso   1.00
H957   H     0.12597   0.68942   0.86946   0.00000  Uiso   1.00
H958   H     0.09226   0.72063   0.52521   0.00000  Uiso   1.00
H959   H     0.20144   0.81246   0.97081   0.00000  Uiso   1.00
H960   H     0.04168   0.81579   0.66650   0.00000  Uiso   1.00
N961   N     0.16667   0.75001   0.62935   0.00000  Uiso   1.00
N962   N     0.16667   0.74999   0.87066   0.00000  Uiso   1.00
O963   O     0.16667   0.68572   0.79072   0.00000  Uiso   1.00
O964   O     0.01124   0.73276   0.81380   0.00000  Uiso   1.00
O965   O     0.17395   0.52418   0.83918   0.00000  Uiso   1.00
O966   O     0.09699   0.97539   0.68494   0.00000  Uiso   1.00
O967   O     0.18180   0.61453   0.84012   0.00000  Uiso   1.00
O968   O     0.10007   0.88382   0.68029   0.00000  Uiso   1.00
O969   O     0.25299   0.78188   0.54275   0.00000  Uiso   1.00
O970   O     0.12373   0.67688   0.96238   0.00000  Uiso   1.00
O971   O     0.08795   0.71024   0.61953   0.00000  Uiso   1.00
O972   O     0.21540   0.81635   0.87573   0.00000  Uiso   1.00
O973   O     0.16666   0.81427   0.70929   0.00000  Uiso   1.00
O974   O     0.16667   0.68573   0.70928   0.00000  Uiso   1.00
O975   O     0.16666   0.81427   0.79072   0.00000  Uiso   1.00
O976   O     0.09161   0.74999   0.78132   0.00000  Uiso   1.00
O977   O     0.24172   0.75000   0.71868   0.00000  Uiso   1.00
O978   O     0.09161   0.75000   0.69989   0.00000  Uiso   1.00
O979   O     0.24172   0.75000   0.80012   0.00000  Uiso   1.00
O980   O     0.32199   0.77079   0.68676   0.00000  Uiso   1.00
C981   C     0.50124   0.66487   0.75037   0.00000  Uiso   1.00
C982   C     0.52123   0.78393   0.94945   0.00000  Uiso   1.00
C983   C     0.50110   0.74884   0.52744   0.00000  Uiso   1.00
C984   C     0.50036   0.74836   0.97269   0.00000  Uiso   1.00
C985   C     0.40145   0.75104   0.73773   0.00000  Uiso   1.00
C986   C     0.59864   0.75045   0.76243   0.00000  Uiso   1.00
C987   C     0.34663   0.75673   0.73159   0.00000  Uiso   1.00
C988   C     0.65379   0.74856   0.76948   0.00000  Uiso   1.00
C989   C     0.50558   0.54666   0.79557   0.00000  Uiso   1.00
C990   C     0.46605   0.95255   0.71649   0.00000  Uiso   1.00
C991   C     0.50884   0.59284   0.79594   0.00000  Uiso   1.00
C992   C     0.49989   0.83490   0.74981   0.00000  Uiso   1.00
C993   C     0.46755   0.90631   0.71398   0.00000  Uiso   1.00
C994   C     0.50377   0.61641   0.75146   0.00000  Uiso   1.00
C995   C     0.50036   0.88292   0.74920   0.00000  Uiso   1.00
C996   C     0.50169   0.59319   0.70768   0.00000  Uiso   1.00
C997   C     0.53502   0.90551   0.78319   0.00000  Uiso   1.00
C998   C     0.50274   0.54741   0.70770   0.00000  Uiso   1.00
C999   C     0.53703   0.95127   0.78260   0.00000  Uiso   1.00
C1000  C     0.50360   0.52376   0.75124   0.00000  Uiso   1.00
C1001  C     0.50221   0.97521   0.74997   0.00000  Uiso   1.00
C1002  C     0.33667   0.81477   0.67832   0.00000  Uiso   1.00
C1003  C     0.54295   0.76598   0.55976   0.00000  Uiso   1.00
C1004  C     0.34977   0.76739   0.84810   0.00000  Uiso   1.00
C1005  C     0.45699   0.51929   0.85001   0.00000  Uiso   1.00
C1006  C     0.38544   0.97948   0.70663   0.00000  Uiso   1.00
C1007  C     0.56805   0.61941   0.85583   0.00000  Uiso   1.00
C1008  C     0.45120   0.88573   0.63472   0.00000  Uiso   1.00
C1009  C     0.62314   0.74815   0.54726   0.00000  Uiso   1.00
C1010  C     0.49512   0.64494   0.97489   0.00000  Uiso   1.00
C1011  C     0.41324   0.66639   0.60291   0.00000  Uiso   1.00
C1012  C     0.58996   0.83636   0.90600   0.00000  Uiso   1.00
C1013  C     0.47906   0.71307   0.94284   0.00000  Uiso   1.00
C1014  C     0.53995   0.76824   0.61005   0.00000  Uiso   1.00
C1015  C     0.47772   0.71564   0.89194   0.00000  Uiso   1.00
C1016  C     0.46088   0.72999   0.59936   0.00000  Uiso   1.00
C1017  C     0.52421   0.78319   0.89877   0.00000  Uiso   1.00
C1018  C     0.45948   0.73205   0.54829   0.00000  Uiso   1.00
Cu1019 Cu    0.50000   0.74999   0.79822   0.00000  Uiso   1.00
Cu1020 Cu    0.50000   0.75000   0.70179   0.00000  Uiso   1.00
H1021  H     0.49953   0.61037   0.67323   0.00000  Uiso   1.00
H1022  H     0.33561   0.83629   0.71065   0.00000  Uiso   1.00
H1023  H     0.64297   0.82878   0.64814   0.00000  Uiso   1.00
H1024  H     0.64648   0.77326   0.86200   0.00000  Uiso   1.00
H1025  H     0.36426   0.79856   0.83328   0.00000  Uiso   1.00
H1026  H     0.37786   0.75738   0.87961   0.00000  Uiso   1.00
H1027  H     0.43383   0.99763   0.82300   0.00000  Uiso   1.00
H1028  H     0.43806   0.55178   0.85222   0.00000  Uiso   1.00
H1029  H     0.45859   0.50313   0.88607   0.00000  Uiso   1.00
H1030  H     0.39226   0.50053   0.73964   0.00000  Uiso   1.00
H1031  H     0.36977   0.94667   0.71555   0.00000  Uiso   1.00
H1032  H     0.56159   0.88764   0.80927   0.00000  Uiso   1.00
H1033  H     0.35599   0.99592   0.68039   0.00000  Uiso   1.00
H1034  H     0.57356   0.63961   0.88940   0.00000  Uiso   1.00
H1035  H     0.58774   0.63710   0.82841   0.00000  Uiso   1.00
H1036  H     0.58617   0.58681   0.86465   0.00000  Uiso   1.00
H1037  H     0.42671   0.86388   0.60908   0.00000  Uiso   1.00
H1038  H     0.49117   0.87367   0.63683   0.00000  Uiso   1.00
H1039  H     0.44836   0.91969   0.61938   0.00000  Uiso   1.00
H1040  H     0.60894   0.71854   0.52566   0.00000  Uiso   1.00
H1041  H     0.63498   0.73898   0.58601   0.00000  Uiso   1.00
H1042  H     0.65765   0.76053   0.53272   0.00000  Uiso   1.00
H1043  H     0.50247   0.53038   0.67344   0.00000  Uiso   1.00
H1044  H     0.52800   0.65836   0.50026   0.00000  Uiso   1.00
H1045  H     0.50840   0.63125   0.94183   0.00000  Uiso   1.00
H1046  H     0.47832   0.61729   0.99381   0.00000  Uiso   1.00
H1047  H     0.39284   0.64805   0.62911   0.00000  Uiso   1.00
H1048  H     0.38846   0.66569   0.56716   0.00000  Uiso   1.00
H1049  H     0.44969   0.64872   0.60077   0.00000  Uiso   1.00
H1050  H     0.61548   0.85250   0.88261   0.00000  Uiso   1.00
H1051  H     0.61345   0.81195   0.92923   0.00000  Uiso   1.00
H1052  H     0.57582   0.86263   0.92840   0.00000  Uiso   1.00
H1053  H     0.56578   0.96802   0.80784   0.00000  Uiso   1.00
H1054  H     0.57041   0.78388   0.63381   0.00000  Uiso   1.00
H1055  H     0.45930   0.68942   0.86946   0.00000  Uiso   1.00
H1056  H     0.42560   0.72063   0.52521   0.00000  Uiso   1.00
H1057  H     0.53477   0.81246   0.97081   0.00000  Uiso   1.00
H1058  H     0.37501   0.81579   0.66650   0.00000  Uiso   1.00
N1059  N     0.50000   0.75001   0.62935   0.00000  Uiso   1.00
N1060  N     0.50000   0.74999   0.87066   0.00000  Uiso   1.00
O1061  O     0.50000   0.68572   0.79072   0.00000  Uiso   1.00
O1062  O     0.34458   0.73276   0.81380   0.00000  Uiso   1.00
O1063  O     0.50729   0.52418   0.83918   0.00000  Uiso   1.00
O1064  O     0.43032   0.97539   0.68494   0.00000  Uiso   1.00
O1065  O     0.51513   0.61453   0.84012   0.00000  Uiso   1.00
O1066  O     0.43340   0.88382   0.68029   0.00000  Uiso   1.00
O1067  O     0.58632   0.78188   0.54275   0.00000  Uiso   1.00
O1068  O     0.45707   0.67688   0.96238   0.00000  Uiso   1.00
O1069  O     0.42129   0.71024   0.61953   0.00000  Uiso   1.00
O1070  O     0.54874   0.81635   0.87573   0.00000  Uiso   1.00
O1071  O     0.50000   0.81427   0.70929   0.00000  Uiso   1.00
O1072  O     0.50000   0.68573   0.70928   0.00000  Uiso   1.00
O1073  O     0.50000   0.81427   0.79072   0.00000  Uiso   1.00
O1074  O     0.42495   0.74999   0.78132   0.00000  Uiso   1.00
O1075  O     0.57505   0.75000   0.71868   0.00000  Uiso   1.00
O1076  O     0.42495   0.75000   0.69989   0.00000  Uiso   1.00
O1077  O     0.57505   0.75000   0.80012   0.00000  Uiso   1.00
O1078  O     0.65532   0.77079   0.68676   0.00000  Uiso   1.00
C1079  C     0.83458   0.66487   0.75037   0.00000  Uiso   1.00
C1080  C     0.85457   0.78393   0.94945   0.00000  Uiso   1.00
C1081  C     0.83443   0.74884   0.52744   0.00000  Uiso   1.00
C1082  C     0.83370   0.74836   0.97269   0.00000  Uiso   1.00
C1083  C     0.73479   0.75104   0.73773   0.00000  Uiso   1.00
C1084  C     0.93197   0.75045   0.76243   0.00000  Uiso   1.00
C1085  C     0.67997   0.75673   0.73159   0.00000  Uiso   1.00
C1086  C     0.98712   0.74856   0.76948   0.00000  Uiso   1.00
C1087  C     0.83891   0.54666   0.79557   0.00000  Uiso   1.00
C1088  C     0.79939   0.95255   0.71649   0.00000  Uiso   1.00
C1089  C     0.84217   0.59284   0.79594   0.00000  Uiso   1.00
C1090  C     0.83322   0.83490   0.74981   0.00000  Uiso   1.00
C1091  C     0.80088   0.90631   0.71398   0.00000  Uiso   1.00
C1092  C     0.83710   0.61641   0.75146   0.00000  Uiso   1.00
C1093  C     0.83370   0.88292   0.74920   0.00000  Uiso   1.00
C1094  C     0.83503   0.59319   0.70768   0.00000  Uiso   1.00
C1095  C     0.86835   0.90551   0.78319   0.00000  Uiso   1.00
C1096  C     0.83608   0.54741   0.70770   0.00000  Uiso   1.00
C1097  C     0.87036   0.95127   0.78260   0.00000  Uiso   1.00
C1098  C     0.83693   0.52376   0.75124   0.00000  Uiso   1.00
C1099  C     0.83554   0.97521   0.74997   0.00000  Uiso   1.00
C1100  C     0.67000   0.81477   0.67832   0.00000  Uiso   1.00
C1101  C     0.87628   0.76598   0.55976   0.00000  Uiso   1.00
C1102  C     0.68311   0.76739   0.84810   0.00000  Uiso   1.00
C1103  C     0.79032   0.51929   0.85001   0.00000  Uiso   1.00
C1104  C     0.71878   0.97948   0.70663   0.00000  Uiso   1.00
C1105  C     0.90138   0.61941   0.85583   0.00000  Uiso   1.00
C1106  C     0.78453   0.88573   0.63472   0.00000  Uiso   1.00
C1107  C     0.95647   0.74815   0.54726   0.00000  Uiso   1.00
C1108  C     0.82845   0.64494   0.97489   0.00000  Uiso   1.00
C1109  C     0.74657   0.66639   0.60291   0.00000  Uiso   1.00
C1110  C     0.92329   0.83636   0.90600   0.00000  Uiso   1.00
C1111  C     0.81239   0.71307   0.94284   0.00000  Uiso   1.00
C1112  C     0.87329   0.76824   0.61005   0.00000  Uiso   1.00
C1113  C     0.81105   0.71564   0.89194   0.00000  Uiso   1.00
C1114  C     0.79421   0.72999   0.59936   0.00000  Uiso   1.00
C1115  C     0.85754   0.78319   0.89877   0.00000  Uiso   1.00
C1116  C     0.79281   0.73205   0.54829   0.00000  Uiso   1.00
Cu1117 Cu    0.83333   0.74999   0.79822   0.00000  Uiso   1.00
Cu1118 Cu    0.83333   0.75000   0.70179   0.00000  Uiso   1.00
H1119  H     0.83286   0.61037   0.67323   0.00000  Uiso   1.00
H1120  H     0.66894   0.83629   0.71065   0.00000  Uiso   1.00
H1121  H     0.97631   0.82878   0.64814   0.00000  Uiso   1.00
H1122  H     0.97982   0.77326   0.86200   0.00000  Uiso   1.00
H1123  H     0.69759   0.79856   0.83328   0.00000  Uiso   1.00
H1124  H     0.71120   0.75738   0.87961   0.00000  Uiso   1.00
H1125  H     0.76716   0.99763   0.82300   0.00000  Uiso   1.00
H1126  H     0.77139   0.55178   0.85222   0.00000  Uiso   1.00
H1127  H     0.79192   0.50313   0.88607   0.00000  Uiso   1.00
H1128  H     0.72560   0.50053   0.73964   0.00000  Uiso   1.00
H1129  H     0.70311   0.94667   0.71555   0.00000  Uiso   1.00
H1130  H     0.89492   0.88764   0.80927   0.00000  Uiso   1.00
H1131  H     0.68932   0.99592   0.68039   0.00000  Uiso   1.00
H1132  H     0.90689   0.63961   0.88940   0.00000  Uiso   1.00
H1133  H     0.92108   0.63710   0.82841   0.00000  Uiso   1.00
H1134  H     0.91950   0.58681   0.86465   0.00000  Uiso   1.00
H1135  H     0.76004   0.86388   0.60908   0.00000  Uiso   1.00
H1136  H     0.82451   0.87367   0.63683   0.00000  Uiso   1.00
H1137  H     0.78169   0.91969   0.61938   0.00000  Uiso   1.00
H1138  H     0.94227   0.71854   0.52566   0.00000  Uiso   1.00
H1139  H     0.96831   0.73898   0.58601   0.00000  Uiso   1.00
H1140  H     0.99098   0.76053   0.53272   0.00000  Uiso   1.00
H1141  H     0.83580   0.53038   0.67344   0.00000  Uiso   1.00
H1142  H     0.86133   0.65836   0.50026   0.00000  Uiso   1.00
H1143  H     0.84174   0.63125   0.94183   0.00000  Uiso   1.00
H1144  H     0.81165   0.61729   0.99381   0.00000  Uiso   1.00
H1145  H     0.72617   0.64805   0.62911   0.00000  Uiso   1.00
H1146  H     0.72179   0.66569   0.56716   0.00000  Uiso   1.00
H1147  H     0.78303   0.64872   0.60077   0.00000  Uiso   1.00
H1148  H     0.94881   0.85250   0.88261   0.00000  Uiso   1.00
H1149  H     0.94678   0.81195   0.92923   0.00000  Uiso   1.00
H1150  H     0.90915   0.86263   0.92840   0.00000  Uiso   1.00
H1151  H     0.89911   0.96802   0.80784   0.00000  Uiso   1.00
H1152  H     0.90374   0.78388   0.63381   0.00000  Uiso   1.00
H1153  H     0.79263   0.68942   0.86946   0.00000  Uiso   1.00
H1154  H     0.75893   0.72063   0.52521   0.00000  Uiso   1.00
H1155  H     0.86810   0.81246   0.97081   0.00000  Uiso   1.00
H1156  H     0.70835   0.81579   0.66650   0.00000  Uiso   1.00
N1157  N     0.83333   0.75001   0.62935   0.00000  Uiso   1.00
N1158  N     0.83333   0.74999   0.87066   0.00000  Uiso   1.00
O1159  O     0.83334   0.68572   0.79072   0.00000  Uiso   1.00
O1160  O     0.67791   0.73276   0.81380   0.00000  Uiso   1.00
O1161  O     0.84062   0.52418   0.83918   0.00000  Uiso   1.00
O1162  O     0.76365   0.97539   0.68494   0.00000  Uiso   1.00
O1163  O     0.84847   0.61453   0.84012   0.00000  Uiso   1.00
O1164  O     0.76674   0.88382   0.68029   0.00000  Uiso   1.00
O1165  O     0.91965   0.78188   0.54275   0.00000  Uiso   1.00
O1166  O     0.79040   0.67688   0.96238   0.00000  Uiso   1.00
O1167  O     0.75462   0.71024   0.61953   0.00000  Uiso   1.00
O1168  O     0.88207   0.81635   0.87573   0.00000  Uiso   1.00
O1169  O     0.83333   0.81427   0.70929   0.00000  Uiso   1.00
O1170  O     0.83334   0.68573   0.70928   0.00000  Uiso   1.00
O1171  O     0.83333   0.81427   0.79072   0.00000  Uiso   1.00
O1172  O     0.75828   0.74999   0.78132   0.00000  Uiso   1.00
O1173  O     0.90839   0.75000   0.71868   0.00000  Uiso   1.00
O1174  O     0.75828   0.75000   0.69989   0.00000  Uiso   1.00
O1175  O     0.90839   0.75000   0.80012   0.00000  Uiso   1.00
O1176  O     0.98866   0.77079   0.68676   0.00000  Uiso   1.00
loop_
_geom_bond_atom_site_label_1
_geom_bond_atom_site_label_2
_geom_bond_distance
_geom_bond_site_symmetry_2
_ccdc_geom_bond_type
C1     O81     1.293   .     A
C1     O92     1.299   .     A
C1     C14     1.470   .     S
C2     C4      1.402   .     A
C2     H77     1.080   .     S
C2     C37     1.421   .     A
C3     C23     1.419   .     A
C3     C38     1.404   .     A
C3     C592    1.518   1_554 S
C4     C33     1.419   .     A
C4     C591    1.518   .     S
C5     O94     1.281   .     A
C5     C7      1.446   .     S
C5     O96     1.294   .     A
C6     O97     1.291   .     A
C6     C8      1.444   .     S
C6     O95     1.286   .     A
C7     C204    1.359   1_455 S
C7     O294    1.390   1_455 S
C8     C105    1.359   .     S
C8     O180    1.390   .     S
C9     C20     1.410   .     A
C9     C11     1.401   .     A
C9     O83     1.383   .     S
C10    C21     1.412   .     A
C10    C13     1.404   .     A
C10    O84     1.383   .     S
C11    C14     1.416   .     A
C11    O85     1.383   .     S
C12    O91     1.290   .     A
C12    C15     1.455   .     S
C12    O93     1.295   .     A
C13    O86     1.383   .     S
C13    C15     1.407   .     A
C14    C16     1.401   .     A
C15    C17     1.396   .     A
C16    C18     1.387   .     A
C16    H41     1.082   .     S
C17    H52     1.083   .     S
C17    C19     1.387   .     A
C18    H63     1.083   .     S
C18    C20     1.401   .     A
C19    C21     1.403   .     A
C19    H73     1.083   .     S
C20    C315    1.471   1_545 S
C21    C314    1.471   .     S
C22    H78     1.108   .     S
C22    H42     1.115   .     S
C22    H239    1.108   1_455 S
C22    O294    1.412   1_455 S
C23    O87     1.382   .     S
C23    C34     1.412   .     A
C24    H45     1.115   .     S
C24    O82     1.412   .     S
C24    H46     1.109   .     S
C24    H240    1.107   1_455 S
C25    H48     1.114   .     S
C25    H49     1.109   .     S
C25    O83     1.409   .     S
C25    H341    1.112   1_545 S
C26    H53     1.109   .     S
C26    O84     1.409   .     S
C26    H51     1.114   .     S
C26    H344    1.112   .     S
C27    H54     1.109   .     S
C27    H55     1.114   .     S
C27    O85     1.411   .     S
C27    H56     1.113   .     S
C28    H57     1.109   .     S
C28    O86     1.411   .     S
C28    H59     1.111   .     S
C28    H58     1.114   .     S
C29    H60     1.114   .     S
C29    H61     1.113   .     S
C29    H62     1.109   .     S
C29    O87     1.410   .     S
C30    H66     1.109   .     S
C30    O88     1.409   .     S
C30    H65     1.111   .     S
C30    H652    1.114   .     S
C31    H67     1.109   .     S
C31    O89     1.412   .     S
C31    H68     1.111   .     S
C31    H69     1.115   .     S
C32    H72     1.111   .     S
C32    O90     1.413   .     S
C32    H71     1.114   .     S
C32    H70     1.109   .     S
C33    O88     1.381   .     S
C33    C35     1.412   .     A
C34    N79     1.361   .     A
C34    H74     1.074   .     S
C35    H75     1.081   .     S
C35    N80     1.364   .     A
C36    O89     1.384   .     S
C36    N79     1.372   .     A
C36    C38     1.415   .     A
C37    O90     1.393   .     S
C37    N80     1.373   .     A
C38    H76     1.081   .     S
Cu39   O97     1.976   .     S
Cu39   O93     1.957   .     S
Cu39   Cu40    2.679   .     S
Cu39   O94     1.973   .     S
Cu39   O81     1.959   .     S
Cu39   N80     2.012   .     S
Cu40   O96     1.976   .     S
Cu40   N79     2.012   .     S
Cu40   O92     1.957   .     S
Cu40   O95     1.973   .     S
Cu40   O91     1.959   .     S
H43    C120    1.108   .     S
H44    C122    1.107   .     S
H47    C319    1.112   .     S
H50    C320    1.112   1_545 S
H64    C618    1.114   1_554 S
O82    C204    1.390   1_455 S
O98    C105    1.390   .     S
O98    C120    1.412   .     S
C99    O179    1.293   .     A
C99    O190    1.299   .     A
C99    C112    1.470   .     S
C100   C102    1.402   .     A
C100   H175    1.080   .     S
C100   C135    1.421   .     A
C101   C121    1.419   .     A
C101   C136    1.404   .     A
C101   C690    1.518   1_554 S
C102   C131    1.419   .     A
C102   C689    1.518   .     S
C103   O192    1.281   .     A
C103   C105    1.446   .     S
C103   O194    1.294   .     A
C104   O195    1.291   .     A
C104   C106    1.444   .     S
C104   O193    1.286   .     A
C106   C203    1.359   .     S
C106   O278    1.390   .     S
C107   C118    1.410   .     A
C107   C109    1.401   .     A
C107   O181    1.383   .     S
C108   C119    1.412   .     A
C108   C111    1.404   .     A
C108   O182    1.383   .     S
C109   C112    1.416   .     A
C109   O183    1.383   .     S
C110   O189    1.290   .     A
C110   C113    1.455   .     S
C110   O191    1.295   .     A
C111   O184    1.383   .     S
C111   C113    1.407   .     A
C112   C114    1.401   .     A
C113   C115    1.396   .     A
C114   C116    1.387   .     A
C114   H139    1.082   .     S
C115   H150    1.083   .     S
C115   C117    1.387   .     A
C116   H161    1.083   .     S
C116   C118    1.401   .     A
C117   C119    1.403   .     A
C117   H171    1.083   .     S
C118   C413    1.471   1_545 S
C119   C412    1.471   .     S
C120   H176    1.108   .     S
C120   H140    1.115   .     S
C121   O185    1.382   .     S
C121   C132    1.412   .     A
C122   H143    1.115   .     S
C122   O180    1.412   .     S
C122   H144    1.109   .     S
C123   H146    1.114   .     S
C123   H147    1.109   .     S
C123   O181    1.409   .     S
C123   H439    1.112   1_545 S
C124   H151    1.109   .     S
C124   O182    1.409   .     S
C124   H149    1.114   .     S
C124   H442    1.112   .     S
C125   H152    1.109   .     S
C125   H153    1.114   .     S
C125   O183    1.411   .     S
C125   H154    1.113   .     S
C126   H155    1.109   .     S
C126   O184    1.411   .     S
C126   H157    1.111   .     S
C126   H156    1.114   .     S
C127   H158    1.114   .     S
C127   H159    1.113   .     S
C127   H160    1.109   .     S
C127   O185    1.410   .     S
C128   H164    1.109   .     S
C128   O186    1.409   .     S
C128   H163    1.111   .     S
C128   H750    1.114   .     S
C129   H165    1.109   .     S
C129   O187    1.412   .     S
C129   H166    1.111   .     S
C129   H167    1.115   .     S
C130   H170    1.111   .     S
C130   O188    1.413   .     S
C130   H169    1.114   .     S
C130   H168    1.109   .     S
C131   O186    1.381   .     S
C131   C133    1.412   .     A
C132   N177    1.361   .     A
C132   H172    1.074   .     S
C133   H173    1.081   .     S
C133   N178    1.364   .     A
C134   O187    1.384   .     S
C134   N177    1.372   .     A
C134   C136    1.415   .     A
C135   O188    1.393   .     S
C135   N178    1.373   .     A
C136   H174    1.081   .     S
Cu137  O195    1.976   .     S
Cu137  O191    1.957   .     S
Cu137  Cu138   2.679   .     S
Cu137  O192    1.973   .     S
Cu137  O179    1.959   .     S
Cu137  N178    2.012   .     S
Cu138  O194    1.976   .     S
Cu138  N177    2.012   .     S
Cu138  O190    1.957   .     S
Cu138  O193    1.973   .     S
Cu138  O189    1.959   .     S
H141   C218    1.108   .     S
H142   C220    1.107   .     S
H145   C417    1.112   .     S
H148   C418    1.112   1_545 S
H162   C716    1.114   1_554 S
O196   C203    1.390   .     S
O196   C218    1.412   .     S
C197   O277    1.293   .     A
C197   O288    1.299   .     A
C197   C210    1.470   .     S
C198   C200    1.402   .     A
C198   H273    1.080   .     S
C198   C233    1.421   .     A
C199   C219    1.419   .     A
C199   C234    1.404   .     A
C199   C788    1.518   1_554 S
C200   C229    1.419   .     A
C200   C787    1.518   .     S
C201   O290    1.281   .     A
C201   C203    1.446   .     S
C201   O292    1.294   .     A
C202   O293    1.291   .     A
C202   C204    1.444   .     S
C202   O291    1.286   .     A
C204   C7      1.359   1_655 S
C204   O82     1.390   1_655 S
C205   C216    1.410   .     A
C205   C207    1.401   .     A
C205   O279    1.383   .     S
C206   C217    1.412   .     A
C206   C209    1.404   .     A
C206   O280    1.383   .     S
C207   C210    1.416   .     A
C207   O281    1.383   .     S
C208   O287    1.290   .     A
C208   C211    1.455   .     S
C208   O289    1.295   .     A
C209   O282    1.383   .     S
C209   C211    1.407   .     A
C210   C212    1.401   .     A
C211   C213    1.396   .     A
C212   C214    1.387   .     A
C212   H237    1.082   .     S
C213   H248    1.083   .     S
C213   C215    1.387   .     A
C214   H259    1.083   .     S
C214   C216    1.401   .     A
C215   C217    1.403   .     A
C215   H269    1.083   .     S
C216   C511    1.471   1_545 S
C217   C510    1.471   .     S
C218   H274    1.108   .     S
C218   H238    1.115   .     S
C219   O283    1.382   .     S
C219   C230    1.412   .     A
C220   H241    1.115   .     S
C220   O278    1.412   .     S
C220   H242    1.109   .     S
C221   H244    1.114   .     S
C221   H245    1.109   .     S
C221   O279    1.409   .     S
C221   H537    1.112   1_545 S
C222   H249    1.109   .     S
C222   O280    1.409   .     S
C222   H247    1.114   .     S
C222   H540    1.112   .     S
C223   H250    1.109   .     S
C223   H251    1.114   .     S
C223   O281    1.411   .     S
C223   H252    1.113   .     S
C224   H253    1.109   .     S
C224   O282    1.411   .     S
C224   H255    1.111   .     S
C224   H254    1.114   .     S
C225   H256    1.114   .     S
C225   H257    1.113   .     S
C225   H258    1.109   .     S
C225   O283    1.410   .     S
C226   H262    1.109   .     S
C226   O284    1.409   .     S
C226   H261    1.111   .     S
C226   H848    1.114   .     S
C227   H263    1.109   .     S
C227   O285    1.412   .     S
C227   H264    1.111   .     S
C227   H265    1.115   .     S
C228   H268    1.111   .     S
C228   O286    1.413   .     S
C228   H267    1.114   .     S
C228   H266    1.109   .     S
C229   O284    1.381   .     S
C229   C231    1.412   .     A
C230   N275    1.361   .     A
C230   H270    1.074   .     S
C231   H271    1.081   .     S
C231   N276    1.364   .     A
C232   O285    1.384   .     S
C232   N275    1.372   .     A
C232   C234    1.415   .     A
C233   O286    1.393   .     S
C233   N276    1.373   .     A
C234   H272    1.081   .     S
Cu235  O293    1.976   .     S
Cu235  O289    1.957   .     S
Cu235  Cu236   2.679   .     S
Cu235  O290    1.973   .     S
Cu235  O277    1.959   .     S
Cu235  N276    2.012   .     S
Cu236  O292    1.976   .     S
Cu236  N275    2.012   .     S
Cu236  O288    1.957   .     S
Cu236  O291    1.973   .     S
Cu236  O287    1.959   .     S
H239   C22     1.108   1_655 S
H240   C24     1.107   1_655 S
H243   C515    1.112   .     S
H246   C516    1.112   1_545 S
H260   C814    1.114   1_554 S
O294   C7      1.390   1_655 S
O294   C22     1.412   1_655 S
C295   O375    1.293   .     A
C295   O386    1.299   .     A
C295   C308    1.470   .     S
C296   C298    1.402   .     A
C296   H371    1.080   .     S
C296   C331    1.421   .     A
C297   C317    1.419   .     A
C297   C332    1.404   .     A
C297   C886    1.518   1_554 S
C298   C327    1.419   .     A
C298   C885    1.518   .     S
C299   O388    1.281   .     A
C299   C301    1.446   .     S
C299   O390    1.294   .     A
C300   O391    1.291   .     A
C300   C302    1.444   .     S
C300   O389    1.286   .     A
C301   C498    1.359   1_455 S
C301   O588    1.390   1_455 S
C302   C399    1.359   .     S
C302   O474    1.390   .     S
C303   C314    1.410   .     A
C303   C305    1.401   .     A
C303   O377    1.383   .     S
C304   C315    1.412   .     A
C304   C307    1.404   .     A
C304   O378    1.383   .     S
C305   C308    1.416   .     A
C305   O379    1.383   .     S
C306   O385    1.290   .     A
C306   C309    1.455   .     S
C306   O387    1.295   .     A
C307   O380    1.383   .     S
C307   C309    1.407   .     A
C308   C310    1.401   .     A
C309   C311    1.396   .     A
C310   C312    1.387   .     A
C310   H335    1.082   .     S
C311   H346    1.083   .     S
C311   C313    1.387   .     A
C312   H357    1.083   .     S
C312   C314    1.401   .     A
C313   C315    1.403   .     A
C313   H367    1.083   .     S
C315   C20     1.471   1_565 S
C316   H372    1.108   .     S
C316   H336    1.115   .     S
C316   H533    1.108   1_455 S
C316   O588    1.412   1_455 S
C317   O381    1.382   .     S
C317   C328    1.412   .     A
C318   H339    1.115   .     S
C318   O376    1.412   .     S
C318   H340    1.109   .     S
C318   H534    1.107   1_455 S
C319   H342    1.114   .     S
C319   H343    1.109   .     S
C319   O377    1.409   .     S
C320   H347    1.109   .     S
C320   O378    1.409   .     S
C320   H345    1.114   .     S
C320   H50     1.112   1_565 S
C321   H348    1.109   .     S
C321   H349    1.114   .     S
C321   O379    1.411   .     S
C321   H350    1.113   .     S
C322   H351    1.109   .     S
C322   O380    1.411   .     S
C322   H353    1.111   .     S
C322   H352    1.114   .     S
C323   H354    1.114   .     S
C323   H355    1.113   .     S
C323   H356    1.109   .     S
C323   O381    1.410   .     S
C324   H360    1.109   .     S
C324   O382    1.409   .     S
C324   H359    1.111   .     S
C324   H946    1.114   .     S
C325   H361    1.109   .     S
C325   O383    1.412   .     S
C325   H362    1.111   .     S
C325   H363    1.115   .     S
C326   H366    1.111   .     S
C326   O384    1.413   .     S
C326   H365    1.114   .     S
C326   H364    1.109   .     S
C327   O382    1.381   .     S
C327   C329    1.412   .     A
C328   N373    1.361   .     A
C328   H368    1.074   .     S
C329   H369    1.081   .     S
C329   N374    1.364   .     A
C330   O383    1.384   .     S
C330   N373    1.372   .     A
C330   C332    1.415   .     A
C331   O384    1.393   .     S
C331   N374    1.373   .     A
C332   H370    1.081   .     S
Cu333  O391    1.976   .     S
Cu333  O387    1.957   .     S
Cu333  Cu334   2.679   .     S
Cu333  O388    1.973   .     S
Cu333  O375    1.959   .     S
Cu333  N374    2.012   .     S
Cu334  O390    1.976   .     S
Cu334  N373    2.012   .     S
Cu334  O386    1.957   .     S
Cu334  O389    1.973   .     S
Cu334  O385    1.959   .     S
H337   C414    1.108   .     S
H338   C416    1.107   .     S
H341   C25     1.112   1_565 S
H358   C912    1.114   1_554 S
O376   C498    1.390   1_455 S
O392   C399    1.390   .     S
O392   C414    1.412   .     S
C393   O473    1.293   .     A
C393   O484    1.299   .     A
C393   C406    1.470   .     S
C394   C396    1.402   .     A
C394   H469    1.080   .     S
C394   C429    1.421   .     A
C395   C415    1.419   .     A
C395   C430    1.404   .     A
C395   C984    1.518   1_554 S
C396   C425    1.419   .     A
C396   C983    1.518   .     S
C397   O486    1.281   .     A
C397   C399    1.446   .     S
C397   O488    1.294   .     A
C398   O489    1.291   .     A
C398   C400    1.444   .     S
C398   O487    1.286   .     A
C400   C497    1.359   .     S
C400   O572    1.390   .     S
C401   C412    1.410   .     A
C401   C403    1.401   .     A
C401   O475    1.383   .     S
C402   C413    1.412   .     A
C402   C405    1.404   .     A
C402   O476    1.383   .     S
C403   C406    1.416   .     A
C403   O477    1.383   .     S
C404   O483    1.290   .     A
C404   C407    1.455   .     S
C404   O485    1.295   .     A
C405   O478    1.383   .     S
C405   C407    1.407   .     A
C406   C408    1.401   .     A
C407   C409    1.396   .     A
C408   C410    1.387   .     A
C408   H433    1.082   .     S
C409   H444    1.083   .     S
C409   C411    1.387   .     A
C410   H455    1.083   .     S
C410   C412    1.401   .     A
C411   C413    1.403   .     A
C411   H465    1.083   .     S
C413   C118    1.471   1_565 S
C414   H470    1.108   .     S
C414   H434    1.115   .     S
C415   O479    1.382   .     S
C415   C426    1.412   .     A
C416   H437    1.115   .     S
C416   O474    1.412   .     S
C416   H438    1.109   .     S
C417   H440    1.114   .     S
C417   H441    1.109   .     S
C417   O475    1.409   .     S
C418   H445    1.109   .     S
C418   O476    1.409   .     S
C418   H443    1.114   .     S
C418   H148    1.112   1_565 S
C419   H446    1.109   .     S
C419   H447    1.114   .     S
C419   O477    1.411   .     S
C419   H448    1.113   .     S
C420   H449    1.109   .     S
C420   O478    1.411   .     S
C420   H451    1.111   .     S
C420   H450    1.114   .     S
C421   H452    1.114   .     S
C421   H453    1.113   .     S
C421   H454    1.109   .     S
C421   O479    1.410   .     S
C422   H458    1.109   .     S
C422   O480    1.409   .     S
C422   H457    1.111   .     S
C422   H1044   1.114   .     S
C423   H459    1.109   .     S
C423   O481    1.412   .     S
C423   H460    1.111   .     S
C423   H461    1.115   .     S
C424   H464    1.111   .     S
C424   O482    1.413   .     S
C424   H463    1.114   .     S
C424   H462    1.109   .     S
C425   O480    1.381   .     S
C425   C427    1.412   .     A
C426   N471    1.361   .     A
C426   H466    1.074   .     S
C427   H467    1.081   .     S
C427   N472    1.364   .     A
C428   O481    1.384   .     S
C428   N471    1.372   .     A
C428   C430    1.415   .     A
C429   O482    1.393   .     S
C429   N472    1.373   .     A
C430   H468    1.081   .     S
Cu431  O489    1.976   .     S
Cu431  O485    1.957   .     S
Cu431  Cu432   2.679   .     S
Cu431  O486    1.973   .     S
Cu431  O473    1.959   .     S
Cu431  N472    2.012   .     S
Cu432  O488    1.976   .     S
Cu432  N471    2.012   .     S
Cu432  O484    1.957   .     S
Cu432  O487    1.973   .     S
Cu432  O483    1.959   .     S
H435   C512    1.108   .     S
H436   C514    1.107   .     S
H439   C123    1.112   1_565 S
H456   C1010   1.114   1_554 S
O490   C497    1.390   .     S
O490   C512    1.412   .     S
C491   O571    1.293   .     A
C491   O582    1.299   .     A
C491   C504    1.470   .     S
C492   C494    1.402   .     A
C492   H567    1.080   .     S
C492   C527    1.421   .     A
C493   C513    1.419   .     A
C493   C528    1.404   .     A
C493   C1082   1.518   1_554 S
C494   C523    1.419   .     A
C494   C1081   1.518   .     S
C495   O584    1.281   .     A
C495   C497    1.446   .     S
C495   O586    1.294   .     A
C496   O587    1.291   .     A
C496   C498    1.444   .     S
C496   O585    1.286   .     A
C498   C301    1.359   1_655 S
C498   O376    1.390   1_655 S
C499   C510    1.410   .     A
C499   C501    1.401   .     A
C499   O573    1.383   .     S
C500   C511    1.412   .     A
C500   C503    1.404   .     A
C500   O574    1.383   .     S
C501   C504    1.416   .     A
C501   O575    1.383   .     S
C502   O581    1.290   .     A
C502   C505    1.455   .     S
C502   O583    1.295   .     A
C503   O576    1.383   .     S
C503   C505    1.407   .     A
C504   C506    1.401   .     A
C505   C507    1.396   .     A
C506   C508    1.387   .     A
C506   H531    1.082   .     S
C507   H542    1.083   .     S
C507   C509    1.387   .     A
C508   H553    1.083   .     S
C508   C510    1.401   .     A
C509   C511    1.403   .     A
C509   H563    1.083   .     S
C511   C216    1.471   1_565 S
C512   H568    1.108   .     S
C512   H532    1.115   .     S
C513   O577    1.382   .     S
C513   C524    1.412   .     A
C514   H535    1.115   .     S
C514   O572    1.412   .     S
C514   H536    1.109   .     S
C515   H538    1.114   .     S
C515   H539    1.109   .     S
C515   O573    1.409   .     S
C516   H543    1.109   .     S
C516   O574    1.409   .     S
C516   H541    1.114   .     S
C516   H246    1.112   1_565 S
C517   H544    1.109   .     S
C517   H545    1.114   .     S
C517   O575    1.411   .     S
C517   H546    1.113   .     S
C518   H547    1.109   .     S
C518   O576    1.411   .     S
C518   H549    1.111   .     S
C518   H548    1.114   .     S
C519   H550    1.114   .     S
C519   H551    1.113   .     S
C519   H552    1.109   .     S
C519   O577    1.410   .     S
C520   H556    1.109   .     S
C520   O578    1.409   .     S
C520   H555    1.111   .     S
C520   H1142   1.114   .     S
C521   H557    1.109   .     S
C521   O579    1.412   .     S
C521   H558    1.111   .     S
C521   H559    1.115   .     S
C522   H562    1.111   .     S
C522   O580    1.413   .     S
C522   H561    1.114   .     S
C522   H560    1.109   .     S
C523   O578    1.381   .     S
C523   C525    1.412   .     A
C524   N569    1.361   .     A
C524   H564    1.074   .     S
C525   H565    1.081   .     S
C525   N570    1.364   .     A
C526   O579    1.384   .     S
C526   N569    1.372   .     A
C526   C528    1.415   .     A
C527   O580    1.393   .     S
C527   N570    1.373   .     A
C528   H566    1.081   .     S
Cu529  O587    1.976   .     S
Cu529  O583    1.957   .     S
Cu529  Cu530   2.679   .     S
Cu529  O584    1.973   .     S
Cu529  O571    1.959   .     S
Cu529  N570    2.012   .     S
Cu530  O586    1.976   .     S
Cu530  N569    2.012   .     S
Cu530  O582    1.957   .     S
Cu530  O585    1.973   .     S
Cu530  O581    1.959   .     S
H533   C316    1.108   1_655 S
H534   C318    1.107   1_655 S
H537   C221    1.112   1_565 S
H554   C1108   1.114   1_554 S
O588   C301    1.390   1_655 S
O588   C316    1.412   1_655 S
C589   O669    1.293   .     A
C589   O680    1.299   .     A
C589   C602    1.470   .     S
C590   C592    1.402   .     A
C590   H665    1.080   .     S
C590   C625    1.421   .     A
C591   C611    1.419   .     A
C591   C626    1.404   .     A
C592   C621    1.419   .     A
C592   C3      1.518   1_556 S
C593   O682    1.281   .     A
C593   C595    1.446   .     S
C593   O684    1.294   .     A
C594   O685    1.291   .     A
C594   C596    1.444   .     S
C594   O683    1.286   .     A
C595   C792    1.359   1_455 S
C595   O882    1.390   1_455 S
C596   C693    1.359   .     S
C596   O768    1.390   .     S
C597   C608    1.410   .     A
C597   C599    1.401   .     A
C597   O671    1.383   .     S
C598   C609    1.412   .     A
C598   C601    1.404   .     A
C598   O672    1.383   .     S
C599   C602    1.416   .     A
C599   O673    1.383   .     S
C600   O679    1.290   .     A
C600   C603    1.455   .     S
C600   O681    1.295   .     A
C601   O674    1.383   .     S
C601   C603    1.407   .     A
C602   C604    1.401   .     A
C603   C605    1.396   .     A
C604   C606    1.387   .     A
C604   H629    1.082   .     S
C605   H640    1.083   .     S
C605   C607    1.387   .     A
C606   H651    1.083   .     S
C606   C608    1.401   .     A
C607   C609    1.403   .     A
C607   H661    1.083   .     S
C608   C903    1.471   1_545 S
C609   C902    1.471   .     S
C610   H666    1.108   .     S
C610   H630    1.115   .     S
C610   H827    1.108   1_455 S
C610   O882    1.412   1_455 S
C611   O675    1.382   .     S
C611   C622    1.412   .     A
C612   H633    1.115   .     S
C612   O670    1.412   .     S
C612   H634    1.109   .     S
C612   H828    1.107   1_455 S
C613   H636    1.114   .     S
C613   H637    1.109   .     S
C613   O671    1.409   .     S
C613   H929    1.112   1_545 S
C614   H641    1.109   .     S
C614   O672    1.409   .     S
C614   H639    1.114   .     S
C614   H932    1.112   .     S
C615   H642    1.109   .     S
C615   H643    1.114   .     S
C615   O673    1.411   .     S
C615   H644    1.113   .     S
C616   H645    1.109   .     S
C616   O674    1.411   .     S
C616   H647    1.111   .     S
C616   H646    1.114   .     S
C617   H648    1.114   .     S
C617   H649    1.113   .     S
C617   H650    1.109   .     S
C617   O675    1.410   .     S
C618   H654    1.109   .     S
C618   O676    1.409   .     S
C618   H653    1.111   .     S
C618   H64     1.114   1_556 S
C619   H655    1.109   .     S
C619   O677    1.412   .     S
C619   H656    1.111   .     S
C619   H657    1.115   .     S
C620   H660    1.111   .     S
C620   O678    1.413   .     S
C620   H659    1.114   .     S
C620   H658    1.109   .     S
C621   O676    1.381   .     S
C621   C623    1.412   .     A
C622   N667    1.361   .     A
C622   H662    1.074   .     S
C623   H663    1.081   .     S
C623   N668    1.364   .     A
C624   O677    1.384   .     S
C624   N667    1.372   .     A
C624   C626    1.415   .     A
C625   O678    1.393   .     S
C625   N668    1.373   .     A
C626   H664    1.081   .     S
Cu627  O685    1.976   .     S
Cu627  O681    1.957   .     S
Cu627  Cu628   2.679   .     S
Cu627  O682    1.973   .     S
Cu627  O669    1.959   .     S
Cu627  N668    2.012   .     S
Cu628  O684    1.976   .     S
Cu628  N667    2.012   .     S
Cu628  O680    1.957   .     S
Cu628  O683    1.973   .     S
Cu628  O679    1.959   .     S
H631   C708    1.108   .     S
H632   C710    1.107   .     S
H635   C907    1.112   .     S
H638   C908    1.112   1_545 S
O670   C792    1.390   1_455 S
O686   C693    1.390   .     S
O686   C708    1.412   .     S
C687   O767    1.293   .     A
C687   O778    1.299   .     A
C687   C700    1.470   .     S
C688   C690    1.402   .     A
C688   H763    1.080   .     S
C688   C723    1.421   .     A
C689   C709    1.419   .     A
C689   C724    1.404   .     A
C690   C719    1.419   .     A
C690   C101    1.518   1_556 S
C691   O780    1.281   .     A
C691   C693    1.446   .     S
C691   O782    1.294   .     A
C692   O783    1.291   .     A
C692   C694    1.444   .     S
C692   O781    1.286   .     A
C694   C791    1.359   .     S
C694   O866    1.390   .     S
C695   C706    1.410   .     A
C695   C697    1.401   .     A
C695   O769    1.383   .     S
C696   C707    1.412   .     A
C696   C699    1.404   .     A
C696   O770    1.383   .     S
C697   C700    1.416   .     A
C697   O771    1.383   .     S
C698   O777    1.290   .     A
C698   C701    1.455   .     S
C698   O779    1.295   .     A
C699   O772    1.383   .     S
C699   C701    1.407   .     A
C700   C702    1.401   .     A
C701   C703    1.396   .     A
C702   C704    1.387   .     A
C702   H727    1.082   .     S
C703   H738    1.083   .     S
C703   C705    1.387   .     A
C704   H749    1.083   .     S
C704   C706    1.401   .     A
C705   C707    1.403   .     A
C705   H759    1.083   .     S
C706   C1001   1.471   1_545 S
C707   C1000   1.471   .     S
C708   H764    1.108   .     S
C708   H728    1.115   .     S
C709   O773    1.382   .     S
C709   C720    1.412   .     A
C710   H731    1.115   .     S
C710   O768    1.412   .     S
C710   H732    1.109   .     S
C711   H734    1.114   .     S
C711   H735    1.109   .     S
C711   O769    1.409   .     S
C711   H1027   1.112   1_545 S
C712   H739    1.109   .     S
C712   O770    1.409   .     S
C712   H737    1.114   .     S
C712   H1030   1.112   .     S
C713   H740    1.109   .     S
C713   H741    1.114   .     S
C713   O771    1.411   .     S
C713   H742    1.113   .     S
C714   H743    1.109   .     S
C714   O772    1.411   .     S
C714   H745    1.111   .     S
C714   H744    1.114   .     S
C715   H746    1.114   .     S
C715   H747    1.113   .     S
C715   H748    1.109   .     S
C715   O773    1.410   .     S
C716   H752    1.109   .     S
C716   O774    1.409   .     S
C716   H751    1.111   .     S
C716   H162    1.114   1_556 S
C717   H753    1.109   .     S
C717   O775    1.412   .     S
C717   H754    1.111   .     S
C717   H755    1.115   .     S
C718   H758    1.111   .     S
C718   O776    1.413   .     S
C718   H757    1.114   .     S
C718   H756    1.109   .     S
C719   O774    1.381   .     S
C719   C721    1.412   .     A
C720   N765    1.361   .     A
C720   H760    1.074   .     S
C721   H761    1.081   .     S
C721   N766    1.364   .     A
C722   O775    1.384   .     S
C722   N765    1.372   .     A
C722   C724    1.415   .     A
C723   O776    1.393   .     S
C723   N766    1.373   .     A
C724   H762    1.081   .     S
Cu725  O783    1.976   .     S
Cu725  O779    1.957   .     S
Cu725  Cu726   2.679   .     S
Cu725  O780    1.973   .     S
Cu725  O767    1.959   .     S
Cu725  N766    2.012   .     S
Cu726  O782    1.976   .     S
Cu726  N765    2.012   .     S
Cu726  O778    1.957   .     S
Cu726  O781    1.973   .     S
Cu726  O777    1.959   .     S
H729   C806    1.108   .     S
H730   C808    1.107   .     S
H733   C1005   1.112   .     S
H736   C1006   1.112   1_545 S
O784   C791    1.390   .     S
O784   C806    1.412   .     S
C785   O865    1.293   .     A
C785   O876    1.299   .     A
C785   C798    1.470   .     S
C786   C788    1.402   .     A
C786   H861    1.080   .     S
C786   C821    1.421   .     A
C787   C807    1.419   .     A
C787   C822    1.404   .     A
C788   C817    1.419   .     A
C788   C199    1.518   1_556 S
C789   O878    1.281   .     A
C789   C791    1.446   .     S
C789   O880    1.294   .     A
C790   O881    1.291   .     A
C790   C792    1.444   .     S
C790   O879    1.286   .     A
C792   C595    1.359   1_655 S
C792   O670    1.390   1_655 S
C793   C804    1.410   .     A
C793   C795    1.401   .     A
C793   O867    1.383   .     S
C794   C805    1.412   .     A
C794   C797    1.404   .     A
C794   O868    1.383   .     S
C795   C798    1.416   .     A
C795   O869    1.383   .     S
C796   O875    1.290   .     A
C796   C799    1.455   .     S
C796   O877    1.295   .     A
C797   O870    1.383   .     S
C797   C799    1.407   .     A
C798   C800    1.401   .     A
C799   C801    1.396   .     A
C800   C802    1.387   .     A
C800   H825    1.082   .     S
C801   H836    1.083   .     S
C801   C803    1.387   .     A
C802   H847    1.083   .     S
C802   C804    1.401   .     A
C803   C805    1.403   .     A
C803   H857    1.083   .     S
C804   C1099   1.471   1_545 S
C805   C1098   1.471   .     S
C806   H862    1.108   .     S
C806   H826    1.115   .     S
C807   O871    1.382   .     S
C807   C818    1.412   .     A
C808   H829    1.115   .     S
C808   O866    1.412   .     S
C808   H830    1.109   .     S
C809   H832    1.114   .     S
C809   H833    1.109   .     S
C809   O867    1.409   .     S
C809   H1125   1.112   1_545 S
C810   H837    1.109   .     S
C810   O868    1.409   .     S
C810   H835    1.114   .     S
C810   H1128   1.112   .     S
C811   H838    1.109   .     S
C811   H839    1.114   .     S
C811   O869    1.411   .     S
C811   H840    1.113   .     S
C812   H841    1.109   .     S
C812   O870    1.411   .     S
C812   H843    1.111   .     S
C812   H842    1.114   .     S
C813   H844    1.114   .     S
C813   H845    1.113   .     S
C813   H846    1.109   .     S
C813   O871    1.410   .     S
C814   H850    1.109   .     S
C814   O872    1.409   .     S
C814   H849    1.111   .     S
C814   H260    1.114   1_556 S
C815   H851    1.109   .     S
C815   O873    1.412   .     S
C815   H852    1.111   .     S
C815   H853    1.115   .     S
C816   H856    1.111   .     S
C816   O874    1.413   .     S
C816   H855    1.114   .     S
C816   H854    1.109   .     S
C817   O872    1.381   .     S
C817   C819    1.412   .     A
C818   N863    1.361   .     A
C818   H858    1.074   .     S
C819   H859    1.081   .     S
C819   N864    1.364   .     A
C820   O873    1.384   .     S
C820   N863    1.372   .     A
C820   C822    1.415   .     A
C821   O874    1.393   .     S
C821   N864    1.373   .     A
C822   H860    1.081   .     S
Cu823  O881    1.976   .     S
Cu823  O877    1.957   .     S
Cu823  Cu824   2.679   .     S
Cu823  O878    1.973   .     S
Cu823  O865    1.959   .     S
Cu823  N864    2.012   .     S
Cu824  O880    1.976   .     S
Cu824  N863    2.012   .     S
Cu824  O876    1.957   .     S
Cu824  O879    1.973   .     S
Cu824  O875    1.959   .     S
H827   C610    1.108   1_655 S
H828   C612    1.107   1_655 S
H831   C1103   1.112   .     S
H834   C1104   1.112   1_545 S
O882   C595    1.390   1_655 S
O882   C610    1.412   1_655 S
C883   O963    1.293   .     A
C883   O974    1.299   .     A
C883   C896    1.470   .     S
C884   C886    1.402   .     A
C884   H959    1.080   .     S
C884   C919    1.421   .     A
C885   C905    1.419   .     A
C885   C920    1.404   .     A
C886   C915    1.419   .     A
C886   C297    1.518   1_556 S
C887   O976    1.281   .     A
C887   C889    1.446   .     S
C887   O978    1.294   .     A
C888   O979    1.291   .     A
C888   C890    1.444   .     S
C888   O977    1.286   .     A
C889   C1086   1.359   1_455 S
C889   O1176   1.390   1_455 S
C890   C987    1.359   .     S
C890   O1062   1.390   .     S
C891   C902    1.410   .     A
C891   C893    1.401   .     A
C891   O965    1.383   .     S
C892   C903    1.412   .     A
C892   C895    1.404   .     A
C892   O966    1.383   .     S
C893   C896    1.416   .     A
C893   O967    1.383   .     S
C894   O973    1.290   .     A
C894   C897    1.455   .     S
C894   O975    1.295   .     A
C895   O968    1.383   .     S
C895   C897    1.407   .     A
C896   C898    1.401   .     A
C897   C899    1.396   .     A
C898   C900    1.387   .     A
C898   H923    1.082   .     S
C899   H934    1.083   .     S
C899   C901    1.387   .     A
C900   H945    1.083   .     S
C900   C902    1.401   .     A
C901   C903    1.403   .     A
C901   H955    1.083   .     S
C903   C608    1.471   1_565 S
C904   H960    1.108   .     S
C904   H924    1.115   .     S
C904   H1121   1.108   1_455 S
C904   O1176   1.412   1_455 S
C905   O969    1.382   .     S
C905   C916    1.412   .     A
C906   H927    1.115   .     S
C906   O964    1.412   .     S
C906   H928    1.109   .     S
C906   H1122   1.107   1_455 S
C907   H930    1.114   .     S
C907   H931    1.109   .     S
C907   O965    1.409   .     S
C908   H935    1.109   .     S
C908   O966    1.409   .     S
C908   H933    1.114   .     S
C908   H638    1.112   1_565 S
C909   H936    1.109   .     S
C909   H937    1.114   .     S
C909   O967    1.411   .     S
C909   H938    1.113   .     S
C910   H939    1.109   .     S
C910   O968    1.411   .     S
C910   H941    1.111   .     S
C910   H940    1.114   .     S
C911   H942    1.114   .     S
C911   H943    1.113   .     S
C911   H944    1.109   .     S
C911   O969    1.410   .     S
C912   H948    1.109   .     S
C912   O970    1.409   .     S
C912   H947    1.111   .     S
C912   H358    1.114   1_556 S
C913   H949    1.109   .     S
C913   O971    1.412   .     S
C913   H950    1.111   .     S
C913   H951    1.115   .     S
C914   H954    1.111   .     S
C914   O972    1.413   .     S
C914   H953    1.114   .     S
C914   H952    1.109   .     S
C915   O970    1.381   .     S
C915   C917    1.412   .     A
C916   N961    1.361   .     A
C916   H956    1.074   .     S
C917   H957    1.081   .     S
C917   N962    1.364   .     A
C918   O971    1.384   .     S
C918   N961    1.372   .     A
C918   C920    1.415   .     A
C919   O972    1.393   .     S
C919   N962    1.373   .     A
C920   H958    1.081   .     S
Cu921  O979    1.976   .     S
Cu921  O975    1.957   .     S
Cu921  Cu922   2.679   .     S
Cu921  O976    1.973   .     S
Cu921  O963    1.959   .     S
Cu921  N962    2.012   .     S
Cu922  O978    1.976   .     S
Cu922  N961    2.012   .     S
Cu922  O974    1.957   .     S
Cu922  O977    1.973   .     S
Cu922  O973    1.959   .     S
H925   C1002   1.108   .     S
H926   C1004   1.107   .     S
H929   C613    1.112   1_565 S
O964   C1086   1.390   1_455 S
O980   C987    1.390   .     S
O980   C1002   1.412   .     S
C981   O1061   1.293   .     A
C981   O1072   1.299   .     A
C981   C994    1.470   .     S
C982   C984    1.402   .     A
C982   H1057   1.080   .     S
C982   C1017   1.421   .     A
C983   C1003   1.419   .     A
C983   C1018   1.404   .     A
C984   C1013   1.419   .     A
C984   C395    1.518   1_556 S
C985   O1074   1.281   .     A
C985   C987    1.446   .     S
C985   O1076   1.294   .     A
C986   O1077   1.291   .     A
C986   C988    1.444   .     S
C986   O1075   1.286   .     A
C988   C1085   1.359   .     S
C988   O1160   1.390   .     S
C989   C1000   1.410   .     A
C989   C991    1.401   .     A
C989   O1063   1.383   .     S
C990   C1001   1.412   .     A
C990   C993    1.404   .     A
C990   O1064   1.383   .     S
C991   C994    1.416   .     A
C991   O1065   1.383   .     S
C992   O1071   1.290   .     A
C992   C995    1.455   .     S
C992   O1073   1.295   .     A
C993   O1066   1.383   .     S
C993   C995    1.407   .     A
C994   C996    1.401   .     A
C995   C997    1.396   .     A
C996   C998    1.387   .     A
C996   H1021   1.082   .     S
C997   H1032   1.083   .     S
C997   C999    1.387   .     A
C998   H1043   1.083   .     S
C998   C1000   1.401   .     A
C999   C1001   1.403   .     A
C999   H1053   1.083   .     S
C1001  C706    1.471   1_565 S
C1002  H1058   1.108   .     S
C1002  H1022   1.115   .     S
C1003  O1067   1.382   .     S
C1003  C1014   1.412   .     A
C1004  H1025   1.115   .     S
C1004  O1062   1.412   .     S
C1004  H1026   1.109   .     S
C1005  H1028   1.114   .     S
C1005  H1029   1.109   .     S
C1005  O1063   1.409   .     S
C1006  H1033   1.109   .     S
C1006  O1064   1.409   .     S
C1006  H1031   1.114   .     S
C1006  H736    1.112   1_565 S
C1007  H1034   1.109   .     S
C1007  H1035   1.114   .     S
C1007  O1065   1.411   .     S
C1007  H1036   1.113   .     S
C1008  H1037   1.109   .     S
C1008  O1066   1.411   .     S
C1008  H1039   1.111   .     S
C1008  H1038   1.114   .     S
C1009  H1040   1.114   .     S
C1009  H1041   1.113   .     S
C1009  H1042   1.109   .     S
C1009  O1067   1.410   .     S
C1010  H1046   1.109   .     S
C1010  O1068   1.409   .     S
C1010  H1045   1.111   .     S
C1010  H456    1.114   1_556 S
C1011  H1047   1.109   .     S
C1011  O1069   1.412   .     S
C1011  H1048   1.111   .     S
C1011  H1049   1.115   .     S
C1012  H1052   1.111   .     S
C1012  O1070   1.413   .     S
C1012  H1051   1.114   .     S
C1012  H1050   1.109   .     S
C1013  O1068   1.381   .     S
C1013  C1015   1.412   .     A
C1014  N1059   1.361   .     A
C1014  H1054   1.074   .     S
C1015  H1055   1.081   .     S
C1015  N1060   1.364   .     A
C1016  O1069   1.384   .     S
C1016  N1059   1.372   .     A
C1016  C1018   1.415   .     A
C1017  O1070   1.393   .     S
C1017  N1060   1.373   .     A
C1018  H1056   1.081   .     S
Cu1019 O1077   1.976   .     S
Cu1019 O1073   1.957   .     S
Cu1019 Cu1020  2.679   .     S
Cu1019 O1074   1.973   .     S
Cu1019 O1061   1.959   .     S
Cu1019 N1060   2.012   .     S
Cu1020 O1076   1.976   .     S
Cu1020 N1059   2.012   .     S
Cu1020 O1072   1.957   .     S
Cu1020 O1075   1.973   .     S
Cu1020 O1071   1.959   .     S
H1023  C1100   1.108   .     S
H1024  C1102   1.107   .     S
H1027  C711    1.112   1_565 S
O1078  C1085   1.390   .     S
O1078  C1100   1.412   .     S
C1079  O1159   1.293   .     A
C1079  O1170   1.299   .     A
C1079  C1092   1.470   .     S
C1080  C1082   1.402   .     A
C1080  H1155   1.080   .     S
C1080  C1115   1.421   .     A
C1081  C1101   1.419   .     A
C1081  C1116   1.404   .     A
C1082  C1111   1.419   .     A
C1082  C493    1.518   1_556 S
C1083  O1172   1.281   .     A
C1083  C1085   1.446   .     S
C1083  O1174   1.294   .     A
C1084  O1175   1.291   .     A
C1084  C1086   1.444   .     S
C1084  O1173   1.286   .     A
C1086  C889    1.359   1_655 S
C1086  O964    1.390   1_655 S
C1087  C1098   1.410   .     A
C1087  C1089   1.401   .     A
C1087  O1161   1.383   .     S
C1088  C1099   1.412   .     A
C1088  C1091   1.404   .     A
C1088  O1162   1.383   .     S
C1089  C1092   1.416   .     A
C1089  O1163   1.383   .     S
C1090  O1169   1.290   .     A
C1090  C1093   1.455   .     S
C1090  O1171   1.295   .     A
C1091  O1164   1.383   .     S
C1091  C1093   1.407   .     A
C1092  C1094   1.401   .     A
C1093  C1095   1.396   .     A
C1094  C1096   1.387   .     A
C1094  H1119   1.082   .     S
C1095  H1130   1.083   .     S
C1095  C1097   1.387   .     A
C1096  H1141   1.083   .     S
C1096  C1098   1.401   .     A
C1097  C1099   1.403   .     A
C1097  H1151   1.083   .     S
C1099  C804    1.471   1_565 S
C1100  H1156   1.108   .     S
C1100  H1120   1.115   .     S
C1101  O1165   1.382   .     S
C1101  C1112   1.412   .     A
C1102  H1123   1.115   .     S
C1102  O1160   1.412   .     S
C1102  H1124   1.109   .     S
C1103  H1126   1.114   .     S
C1103  H1127   1.109   .     S
C1103  O1161   1.409   .     S
C1104  H1131   1.109   .     S
C1104  O1162   1.409   .     S
C1104  H1129   1.114   .     S
C1104  H834    1.112   1_565 S
C1105  H1132   1.109   .     S
C1105  H1133   1.114   .     S
C1105  O1163   1.411   .     S
C1105  H1134   1.113   .     S
C1106  H1135   1.109   .     S
C1106  O1164   1.411   .     S
C1106  H1137   1.111   .     S
C1106  H1136   1.114   .     S
C1107  H1138   1.114   .     S
C1107  H1139   1.113   .     S
C1107  H1140   1.109   .     S
C1107  O1165   1.410   .     S
C1108  H1144   1.109   .     S
C1108  O1166   1.409   .     S
C1108  H1143   1.111   .     S
C1108  H554    1.114   1_556 S
C1109  H1145   1.109   .     S
C1109  O1167   1.412   .     S
C1109  H1146   1.111   .     S
C1109  H1147   1.115   .     S
C1110  H1150   1.111   .     S
C1110  O1168   1.413   .     S
C1110  H1149   1.114   .     S
C1110  H1148   1.109   .     S
C1111  O1166   1.381   .     S
C1111  C1113   1.412   .     A
C1112  N1157   1.361   .     A
C1112  H1152   1.074   .     S
C1113  H1153   1.081   .     S
C1113  N1158   1.364   .     A
C1114  O1167   1.384   .     S
C1114  N1157   1.372   .     A
C1114  C1116   1.415   .     A
C1115  O1168   1.393   .     S
C1115  N1158   1.373   .     A
C1116  H1154   1.081   .     S
Cu1117 O1175   1.976   .     S
Cu1117 O1171   1.957   .     S
Cu1117 Cu1118  2.679   .     S
Cu1117 O1172   1.973   .     S
Cu1117 O1159   1.959   .     S
Cu1117 N1158   2.012   .     S
Cu1118 O1174   1.976   .     S
Cu1118 N1157   2.012   .     S
Cu1118 O1170   1.957   .     S
Cu1118 O1173   1.973   .     S
Cu1118 O1169   1.959   .     S
H1121  C904    1.108   1_655 S
H1122  C906    1.107   1_655 S
H1125  C809    1.112   1_565 S
O1176  C889    1.390   1_655 S
O1176  C904    1.412   1_655 S
