data_str_m2_o2_o5_pcu_sym.9
_audit_creation_date              2020-01-03
_audit_creation_method            'Materials Studio'
_symmetry_space_group_name_H-M    'P1'
_symmetry_Int_Tables_number       1
_symmetry_cell_setting            triclinic
loop_
_symmetry_equiv_pos_as_xyz
  x,y,z
_cell_length_a                    30.3865
_cell_length_b                    27.7525
_cell_length_c                    27.1667
_cell_angle_alpha                 89.7903
_cell_angle_beta                  91.4963
_cell_angle_gamma                 90.2984
loop_
_atom_site_label
_atom_site_type_symbol
_atom_site_fract_x
_atom_site_fract_y
_atom_site_fract_z
_atom_site_U_iso_or_equiv
_atom_site_adp_type
_atom_site_occupancy
C1     C     0.16465   0.24970   0.16515   0.00000  Uiso   1.00
C2     C     0.29011   0.44582   0.18245   0.00000  Uiso   1.00
C3     C     0.24993   0.25005   0.07353   0.00000  Uiso   1.00
C4     C     0.25008   0.24995   0.25980   0.00000  Uiso   1.00
C5     C     0.25148   0.02751   0.17257   0.00000  Uiso   1.00
C6     C     0.25121   0.47278   0.17451   0.00000  Uiso   1.00
C7     C     0.25001   0.25007   0.02186   0.00000  Uiso   1.00
C8     C     0.25005   0.24992   0.31148   0.00000  Uiso   1.00
C9     C     0.04700   0.28550   0.13382   0.00000  Uiso   1.00
C10    C     0.44895   0.20726   0.13232   0.00000  Uiso   1.00
C11    C     0.45222   0.28864   0.16527   0.00000  Uiso   1.00
C12    C     0.33456   0.24994   0.16184   0.00000  Uiso   1.00
C13    C     0.04632   0.20522   0.16911   0.00000  Uiso   1.00
C14    C     0.09184   0.28977   0.14651   0.00000  Uiso   1.00
C15    C     0.40304   0.20692   0.13752   0.00000  Uiso   1.00
C16    C     0.40690   0.29176   0.15781   0.00000  Uiso   1.00
C17    C     0.09239   0.20466   0.16699   0.00000  Uiso   1.00
C18    C     0.11586   0.24828   0.16028   0.00000  Uiso   1.00
C19    C     0.38214   0.24918   0.15342   0.00000  Uiso   1.00
C20    C     0.02304   0.24540   0.15069   0.00000  Uiso   1.00
C21    C     0.47426   0.24658   0.15043   0.00000  Uiso   1.00
C22    C     0.02342   0.31150   0.05752   0.00000  Uiso   1.00
C23    C     0.26845   0.10692   0.20690   0.00000  Uiso   1.00
C24    C     0.06113   0.33519   0.02971   0.00000  Uiso   1.00
C25    C     0.06150   0.38994   0.03536   0.00000  Uiso   1.00
C26    C     0.47224   0.17800   0.05854   0.00000  Uiso   1.00
C27    C     0.45181   0.13624   0.02910   0.00000  Uiso   1.00
C28    C     0.47168   0.08768   0.04403   0.00000  Uiso   1.00
C29    C     0.47895   0.32541   0.23512   0.00000  Uiso   1.00
C30    C     0.46524   0.37310   0.25819   0.00000  Uiso   1.00
C31    C     0.49587   0.41460   0.24466   0.00000  Uiso   1.00
C32    C     0.02576   0.15965   0.23501   0.00000  Uiso   1.00
C33    C     0.02376   0.10637   0.24935   0.00000  Uiso   1.00
C34    C     0.21236   0.39654   0.15946   0.00000  Uiso   1.00
C35    C     0.48167   0.08178   0.23008   0.00000  Uiso   1.00
C36    C     0.09713   0.36546   0.17923   0.00000  Uiso   1.00
C37    C     0.11511   0.35227   0.23072   0.00000  Uiso   1.00
C38    C     0.37879   0.12885   0.14419   0.00000  Uiso   1.00
C39    C     0.35205   0.09016   0.11711   0.00000  Uiso   1.00
C40    C     0.38448   0.33706   0.09274   0.00000  Uiso   1.00
C41    C     0.37116   0.38680   0.07449   0.00000  Uiso   1.00
C42    C     0.11286   0.13853   0.12473   0.00000  Uiso   1.00
C43    C     0.11700   0.08436   0.13105   0.00000  Uiso   1.00
C44    C     0.32139   0.05648   0.27689   0.00000  Uiso   1.00
C45    C     0.23233   0.10262   0.12915   0.00000  Uiso   1.00
C46    C     0.34633   0.02160   0.31068   0.00000  Uiso   1.00
C47    C     0.16287   0.47450   0.22155   0.00000  Uiso   1.00
C48    C     0.11700   0.49469   0.22888   0.00000  Uiso   1.00
C49    C     0.24382   0.01557   0.05754   0.00000  Uiso   1.00
C50    C     0.22234   0.48354   0.01834   0.00000  Uiso   1.00
C51    C     0.36379   0.46084   0.17036   0.00000  Uiso   1.00
C52    C     0.40379   0.48815   0.19073   0.00000  Uiso   1.00
C53    C     0.28794   0.39463   0.18014   0.00000  Uiso   1.00
C54    C     0.26992   0.05580   0.21126   0.00000  Uiso   1.00
C55    C     0.21149   0.44690   0.16679   0.00000  Uiso   1.00
C56    C     0.23306   0.05181   0.13090   0.00000  Uiso   1.00
Cu57   Cu    0.25000   0.29821   0.16667   0.00000  Uiso   1.00
Cu58   Cu    0.25000   0.20178   0.16667   0.00000  Uiso   1.00
H59    H     0.28169   0.12914   0.23618   0.00000  Uiso   1.00
H60    H     0.08826   0.40568   0.01325   0.00000  Uiso   1.00
H61    H     0.06743   0.40006   0.07448   0.00000  Uiso   1.00
H62    H     0.00773   0.18094   0.05003   0.00000  Uiso   1.00
H63    H     0.45624   0.21208   0.04542   0.00000  Uiso   1.00
H64    H     0.41572   0.13510   0.03447   0.00000  Uiso   1.00
H65    H     0.45716   0.14272   0.32272   0.00000  Uiso   1.00
H66    H     0.00814   0.08899   0.04233   0.00000  Uiso   1.00
H67    H     0.45906   0.05928   0.01859   0.00000  Uiso   1.00
H68    H     0.46231   0.07793   0.08205   0.00000  Uiso   1.00
H69    H     0.01387   0.31774   0.24525   0.00000  Uiso   1.00
H70    H     0.18222   0.37810   0.15050   0.00000  Uiso   1.00
H71    H     0.45870   0.29624   0.25204   0.00000  Uiso   1.00
H72    H     0.43103   0.38183   0.24585   0.00000  Uiso   1.00
H73    H     0.46566   0.36905   0.29889   0.00000  Uiso   1.00
H74    H     0.03011   0.40663   0.25707   0.00000  Uiso   1.00
H75    H     0.48535   0.44800   0.26326   0.00000  Uiso   1.00
H76    H     0.49483   0.42088   0.20425   0.00000  Uiso   1.00
H77    H     0.49713   0.17890   0.25016   0.00000  Uiso   1.00
H78    H     0.05637   0.17496   0.25258   0.00000  Uiso   1.00
H79    H     0.05267   0.08754   0.23446   0.00000  Uiso   1.00
H80    H     0.02570   0.10318   0.29005   0.00000  Uiso   1.00
H81    H     0.21738   0.12057   0.09758   0.00000  Uiso   1.00
H82    H     0.48039   0.04427   0.24434   0.00000  Uiso   1.00
H83    H     0.48122   0.08048   0.18922   0.00000  Uiso   1.00
H84    H     0.45211   0.10125   0.24242   0.00000  Uiso   1.00
H85    H     0.06066   0.36767   0.17950   0.00000  Uiso   1.00
H86    H     0.10859   0.40219   0.17004   0.00000  Uiso   1.00
H87    H     0.10540   0.38010   0.25747   0.00000  Uiso   1.00
H88    H     0.10153   0.31708   0.24277   0.00000  Uiso   1.00
H89    H     0.15154   0.35023   0.23101   0.00000  Uiso   1.00
H90    H     0.36375   0.13554   0.18043   0.00000  Uiso   1.00
H91    H     0.41279   0.11523   0.15060   0.00000  Uiso   1.00
H92    H     0.31663   0.37412   0.19090   0.00000  Uiso   1.00
H93    H     0.37135   0.07497   0.08674   0.00000  Uiso   1.00
H94    H     0.34313   0.06086   0.14274   0.00000  Uiso   1.00
H95    H     0.32122   0.10570   0.10127   0.00000  Uiso   1.00
H96    H     0.35869   0.31114   0.07961   0.00000  Uiso   1.00
H97    H     0.41614   0.32801   0.07513   0.00000  Uiso   1.00
H98    H     0.39690   0.41357   0.08518   0.00000  Uiso   1.00
H99    H     0.36778   0.38657   0.03368   0.00000  Uiso   1.00
H100   H     0.33896   0.39690   0.08968   0.00000  Uiso   1.00
H101   H     0.14097   0.15203   0.10316   0.00000  Uiso   1.00
H102   H     0.08185   0.14507   0.10273   0.00000  Uiso   1.00
H103   H     0.49174   0.32575   0.04252   0.00000  Uiso   1.00
H104   H     0.08678   0.06970   0.14782   0.00000  Uiso   1.00
H105   H     0.12107   0.06713   0.09463   0.00000  Uiso   1.00
H106   H     0.14597   0.07587   0.15508   0.00000  Uiso   1.00
H107   H     0.30976   0.08661   0.29998   0.00000  Uiso   1.00
H108   H     0.34491   0.07035   0.24930   0.00000  Uiso   1.00
H109   H     0.35767   0.49003   0.28970   0.00000  Uiso   1.00
H110   H     0.37546   0.04006   0.32760   0.00000  Uiso   1.00
H111   H     0.32494   0.00872   0.00710   0.00000  Uiso   1.00
H112   H     0.18702   0.49942   0.23972   0.00000  Uiso   1.00
H113   H     0.16484   0.43898   0.24065   0.00000  Uiso   1.00
H114   H     0.02276   0.27205   0.04969   0.00000  Uiso   1.00
H115   H     0.09248   0.47752   0.20347   0.00000  Uiso   1.00
H116   H     0.10702   0.48803   0.26737   0.00000  Uiso   1.00
H117   H     0.11713   0.03411   0.22264   0.00000  Uiso   1.00
H118   H     0.27248   0.49582   0.07408   0.00000  Uiso   1.00
H119   H     0.25555   0.04926   0.03959   0.00000  Uiso   1.00
H120   H     0.19410   0.00254   0.00039   0.00000  Uiso   1.00
H121   H     0.24655   0.47438   0.32332   0.00000  Uiso   1.00
H122   H     0.21034   0.44965   0.03539   0.00000  Uiso   1.00
H123   H     0.35647   0.47370   0.13217   0.00000  Uiso   1.00
H124   H     0.37277   0.42225   0.17050   0.00000  Uiso   1.00
H125   H     0.09315   0.32041   0.04319   0.00000  Uiso   1.00
H126   H     0.41312   0.47408   0.22780   0.00000  Uiso   1.00
H127   H     0.43196   0.48338   0.16600   0.00000  Uiso   1.00
H128   H     0.39669   0.02711   0.19387   0.00000  Uiso   1.00
H129   H     0.05730   0.32627   0.32336   0.00000  Uiso   1.00
H130   H     0.02963   0.40530   0.02215   0.00000  Uiso   1.00
N131   N     0.25000   0.12935   0.16667   0.00000  Uiso   1.00
N132   N     0.25000   0.37065   0.16667   0.00000  Uiso   1.00
O133   O     0.18573   0.29071   0.16667   0.00000  Uiso   1.00
O134   O     0.46864   0.16882   0.10956   0.00000  Uiso   1.00
O135   O     0.47466   0.32860   0.18314   0.00000  Uiso   1.00
O136   O     0.02448   0.16381   0.18316   0.00000  Uiso   1.00
O137   O     0.11261   0.33394   0.14257   0.00000  Uiso   1.00
O138   O     0.37806   0.17101   0.11507   0.00000  Uiso   1.00
O139   O     0.38883   0.33591   0.14502   0.00000  Uiso   1.00
O140   O     0.11358   0.16087   0.17162   0.00000  Uiso   1.00
O141   O     0.28493   0.03260   0.25416   0.00000  Uiso   1.00
O142   O     0.17134   0.46979   0.17068   0.00000  Uiso   1.00
O143   O     0.21253   0.02623   0.09324   0.00000  Uiso   1.00
O144   O     0.31427   0.20929   0.16666   0.00000  Uiso   1.00
O145   O     0.32764   0.46914   0.20051   0.00000  Uiso   1.00
O146   O     0.31427   0.29071   0.16666   0.00000  Uiso   1.00
O147   O     0.18573   0.20928   0.16667   0.00000  Uiso   1.00
O148   O     0.25000   0.29071   0.09613   0.00000  Uiso   1.00
O149   O     0.25000   0.20929   0.23720   0.00000  Uiso   1.00
O150   O     0.25000   0.29071   0.23720   0.00000  Uiso   1.00
O151   O     0.25000   0.20929   0.09613   0.00000  Uiso   1.00
O152   O     0.02633   0.32267   0.10832   0.00000  Uiso   1.00
C153   C     0.66465   0.24970   0.16515   0.00000  Uiso   1.00
C154   C     0.79011   0.44582   0.18245   0.00000  Uiso   1.00
C155   C     0.74993   0.25005   0.07353   0.00000  Uiso   1.00
C156   C     0.75008   0.24995   0.25980   0.00000  Uiso   1.00
C157   C     0.75148   0.02751   0.17257   0.00000  Uiso   1.00
C158   C     0.75121   0.47278   0.17451   0.00000  Uiso   1.00
C159   C     0.75001   0.25007   0.02186   0.00000  Uiso   1.00
C160   C     0.75005   0.24992   0.31148   0.00000  Uiso   1.00
C161   C     0.54700   0.28550   0.13382   0.00000  Uiso   1.00
C162   C     0.94895   0.20726   0.13232   0.00000  Uiso   1.00
C163   C     0.95222   0.28864   0.16527   0.00000  Uiso   1.00
C164   C     0.83456   0.24994   0.16184   0.00000  Uiso   1.00
C165   C     0.54632   0.20522   0.16911   0.00000  Uiso   1.00
C166   C     0.59184   0.28977   0.14651   0.00000  Uiso   1.00
C167   C     0.90304   0.20692   0.13752   0.00000  Uiso   1.00
C168   C     0.90690   0.29176   0.15781   0.00000  Uiso   1.00
C169   C     0.59239   0.20466   0.16699   0.00000  Uiso   1.00
C170   C     0.61586   0.24828   0.16028   0.00000  Uiso   1.00
C171   C     0.88214   0.24918   0.15342   0.00000  Uiso   1.00
C172   C     0.52304   0.24540   0.15069   0.00000  Uiso   1.00
C173   C     0.97426   0.24658   0.15043   0.00000  Uiso   1.00
C174   C     0.52342   0.31150   0.05752   0.00000  Uiso   1.00
C175   C     0.76845   0.10692   0.20690   0.00000  Uiso   1.00
C176   C     0.56113   0.33519   0.02971   0.00000  Uiso   1.00
C177   C     0.56150   0.38994   0.03536   0.00000  Uiso   1.00
C178   C     0.97224   0.17800   0.05854   0.00000  Uiso   1.00
C179   C     0.95181   0.13624   0.02910   0.00000  Uiso   1.00
C180   C     0.97168   0.08768   0.04403   0.00000  Uiso   1.00
C181   C     0.97895   0.32541   0.23512   0.00000  Uiso   1.00
C182   C     0.96524   0.37310   0.25819   0.00000  Uiso   1.00
C183   C     0.99587   0.41460   0.24466   0.00000  Uiso   1.00
C184   C     0.52576   0.15965   0.23501   0.00000  Uiso   1.00
C185   C     0.52376   0.10637   0.24935   0.00000  Uiso   1.00
C186   C     0.71236   0.39654   0.15946   0.00000  Uiso   1.00
C187   C     0.98167   0.08178   0.23008   0.00000  Uiso   1.00
C188   C     0.59713   0.36546   0.17923   0.00000  Uiso   1.00
C189   C     0.61511   0.35227   0.23072   0.00000  Uiso   1.00
C190   C     0.87879   0.12885   0.14419   0.00000  Uiso   1.00
C191   C     0.85205   0.09016   0.11711   0.00000  Uiso   1.00
C192   C     0.88448   0.33706   0.09274   0.00000  Uiso   1.00
C193   C     0.87116   0.38680   0.07449   0.00000  Uiso   1.00
C194   C     0.61286   0.13853   0.12473   0.00000  Uiso   1.00
C195   C     0.61700   0.08436   0.13105   0.00000  Uiso   1.00
C196   C     0.82139   0.05648   0.27689   0.00000  Uiso   1.00
C197   C     0.73233   0.10262   0.12915   0.00000  Uiso   1.00
C198   C     0.84633   0.02160   0.31068   0.00000  Uiso   1.00
C199   C     0.66287   0.47450   0.22155   0.00000  Uiso   1.00
C200   C     0.61700   0.49469   0.22888   0.00000  Uiso   1.00
C201   C     0.74382   0.01557   0.05754   0.00000  Uiso   1.00
C202   C     0.72234   0.48354   0.01834   0.00000  Uiso   1.00
C203   C     0.86379   0.46084   0.17036   0.00000  Uiso   1.00
C204   C     0.90379   0.48815   0.19073   0.00000  Uiso   1.00
C205   C     0.78794   0.39463   0.18014   0.00000  Uiso   1.00
C206   C     0.76992   0.05580   0.21126   0.00000  Uiso   1.00
C207   C     0.71149   0.44690   0.16679   0.00000  Uiso   1.00
C208   C     0.73306   0.05181   0.13090   0.00000  Uiso   1.00
Cu209  Cu    0.75000   0.29821   0.16667   0.00000  Uiso   1.00
Cu210  Cu    0.75000   0.20178   0.16667   0.00000  Uiso   1.00
H211   H     0.78169   0.12914   0.23618   0.00000  Uiso   1.00
H212   H     0.58826   0.40568   0.01325   0.00000  Uiso   1.00
H213   H     0.56743   0.40006   0.07448   0.00000  Uiso   1.00
H214   H     0.50773   0.18094   0.05003   0.00000  Uiso   1.00
H215   H     0.95624   0.21208   0.04542   0.00000  Uiso   1.00
H216   H     0.91572   0.13510   0.03447   0.00000  Uiso   1.00
H217   H     0.95716   0.14272   0.32272   0.00000  Uiso   1.00
H218   H     0.50814   0.08899   0.04233   0.00000  Uiso   1.00
H219   H     0.95906   0.05928   0.01859   0.00000  Uiso   1.00
H220   H     0.96231   0.07793   0.08205   0.00000  Uiso   1.00
H221   H     0.51387   0.31774   0.24525   0.00000  Uiso   1.00
H222   H     0.68222   0.37810   0.15050   0.00000  Uiso   1.00
H223   H     0.95870   0.29624   0.25204   0.00000  Uiso   1.00
H224   H     0.93103   0.38183   0.24585   0.00000  Uiso   1.00
H225   H     0.96566   0.36905   0.29889   0.00000  Uiso   1.00
H226   H     0.53011   0.40663   0.25707   0.00000  Uiso   1.00
H227   H     0.98535   0.44800   0.26326   0.00000  Uiso   1.00
H228   H     0.99483   0.42088   0.20425   0.00000  Uiso   1.00
H229   H     0.99713   0.17890   0.25016   0.00000  Uiso   1.00
H230   H     0.55637   0.17496   0.25258   0.00000  Uiso   1.00
H231   H     0.55267   0.08754   0.23446   0.00000  Uiso   1.00
H232   H     0.52570   0.10318   0.29005   0.00000  Uiso   1.00
H233   H     0.71738   0.12057   0.09758   0.00000  Uiso   1.00
H234   H     0.98039   0.04427   0.24434   0.00000  Uiso   1.00
H235   H     0.98122   0.08048   0.18922   0.00000  Uiso   1.00
H236   H     0.95211   0.10125   0.24242   0.00000  Uiso   1.00
H237   H     0.56066   0.36767   0.17950   0.00000  Uiso   1.00
H238   H     0.60859   0.40219   0.17004   0.00000  Uiso   1.00
H239   H     0.60540   0.38010   0.25747   0.00000  Uiso   1.00
H240   H     0.60153   0.31708   0.24277   0.00000  Uiso   1.00
H241   H     0.65154   0.35023   0.23101   0.00000  Uiso   1.00
H242   H     0.86375   0.13554   0.18043   0.00000  Uiso   1.00
H243   H     0.91279   0.11523   0.15060   0.00000  Uiso   1.00
H244   H     0.81663   0.37412   0.19090   0.00000  Uiso   1.00
H245   H     0.87135   0.07497   0.08674   0.00000  Uiso   1.00
H246   H     0.84313   0.06086   0.14274   0.00000  Uiso   1.00
H247   H     0.82122   0.10570   0.10127   0.00000  Uiso   1.00
H248   H     0.85869   0.31114   0.07961   0.00000  Uiso   1.00
H249   H     0.91614   0.32801   0.07513   0.00000  Uiso   1.00
H250   H     0.89690   0.41357   0.08518   0.00000  Uiso   1.00
H251   H     0.86778   0.38657   0.03368   0.00000  Uiso   1.00
H252   H     0.83896   0.39690   0.08968   0.00000  Uiso   1.00
H253   H     0.64097   0.15203   0.10316   0.00000  Uiso   1.00
H254   H     0.58185   0.14507   0.10273   0.00000  Uiso   1.00
H255   H     0.99174   0.32575   0.04252   0.00000  Uiso   1.00
H256   H     0.58678   0.06970   0.14782   0.00000  Uiso   1.00
H257   H     0.62107   0.06713   0.09463   0.00000  Uiso   1.00
H258   H     0.64597   0.07587   0.15508   0.00000  Uiso   1.00
H259   H     0.80976   0.08661   0.29998   0.00000  Uiso   1.00
H260   H     0.84491   0.07035   0.24930   0.00000  Uiso   1.00
H261   H     0.85767   0.49003   0.28970   0.00000  Uiso   1.00
H262   H     0.87546   0.04006   0.32760   0.00000  Uiso   1.00
H263   H     0.82494   0.00872   0.00710   0.00000  Uiso   1.00
H264   H     0.68702   0.49942   0.23972   0.00000  Uiso   1.00
H265   H     0.66484   0.43898   0.24065   0.00000  Uiso   1.00
H266   H     0.52276   0.27205   0.04969   0.00000  Uiso   1.00
H267   H     0.59248   0.47752   0.20347   0.00000  Uiso   1.00
H268   H     0.60702   0.48803   0.26737   0.00000  Uiso   1.00
H269   H     0.61713   0.03411   0.22264   0.00000  Uiso   1.00
H270   H     0.77248   0.49582   0.07408   0.00000  Uiso   1.00
H271   H     0.75555   0.04926   0.03959   0.00000  Uiso   1.00
H272   H     0.69410   0.00254   0.00039   0.00000  Uiso   1.00
H273   H     0.74655   0.47438   0.32332   0.00000  Uiso   1.00
H274   H     0.71034   0.44965   0.03539   0.00000  Uiso   1.00
H275   H     0.85647   0.47370   0.13217   0.00000  Uiso   1.00
H276   H     0.87277   0.42225   0.17050   0.00000  Uiso   1.00
H277   H     0.59315   0.32041   0.04319   0.00000  Uiso   1.00
H278   H     0.91312   0.47408   0.22780   0.00000  Uiso   1.00
H279   H     0.93196   0.48338   0.16600   0.00000  Uiso   1.00
H280   H     0.89669   0.02711   0.19387   0.00000  Uiso   1.00
H281   H     0.55730   0.32627   0.32336   0.00000  Uiso   1.00
H282   H     0.52963   0.40530   0.02215   0.00000  Uiso   1.00
N283   N     0.75000   0.12935   0.16667   0.00000  Uiso   1.00
N284   N     0.75000   0.37065   0.16667   0.00000  Uiso   1.00
O285   O     0.68573   0.29071   0.16667   0.00000  Uiso   1.00
O286   O     0.96864   0.16882   0.10956   0.00000  Uiso   1.00
O287   O     0.97466   0.32860   0.18314   0.00000  Uiso   1.00
O288   O     0.52448   0.16381   0.18316   0.00000  Uiso   1.00
O289   O     0.61261   0.33394   0.14257   0.00000  Uiso   1.00
O290   O     0.87806   0.17101   0.11507   0.00000  Uiso   1.00
O291   O     0.88883   0.33591   0.14502   0.00000  Uiso   1.00
O292   O     0.61358   0.16087   0.17162   0.00000  Uiso   1.00
O293   O     0.78493   0.03260   0.25416   0.00000  Uiso   1.00
O294   O     0.67134   0.46979   0.17068   0.00000  Uiso   1.00
O295   O     0.71253   0.02623   0.09324   0.00000  Uiso   1.00
O296   O     0.81427   0.20929   0.16666   0.00000  Uiso   1.00
O297   O     0.82764   0.46914   0.20051   0.00000  Uiso   1.00
O298   O     0.81427   0.29071   0.16666   0.00000  Uiso   1.00
O299   O     0.68573   0.20928   0.16667   0.00000  Uiso   1.00
O300   O     0.75000   0.29071   0.09613   0.00000  Uiso   1.00
O301   O     0.75000   0.20929   0.23720   0.00000  Uiso   1.00
O302   O     0.75000   0.29071   0.23720   0.00000  Uiso   1.00
O303   O     0.75000   0.20929   0.09613   0.00000  Uiso   1.00
O304   O     0.52633   0.32267   0.10832   0.00000  Uiso   1.00
C305   C     0.16465   0.74970   0.16515   0.00000  Uiso   1.00
C306   C     0.29011   0.94582   0.18245   0.00000  Uiso   1.00
C307   C     0.24993   0.75005   0.07353   0.00000  Uiso   1.00
C308   C     0.25008   0.74995   0.25980   0.00000  Uiso   1.00
C309   C     0.25148   0.52751   0.17257   0.00000  Uiso   1.00
C310   C     0.25121   0.97278   0.17451   0.00000  Uiso   1.00
C311   C     0.25001   0.75007   0.02186   0.00000  Uiso   1.00
C312   C     0.25005   0.74992   0.31148   0.00000  Uiso   1.00
C313   C     0.04700   0.78550   0.13382   0.00000  Uiso   1.00
C314   C     0.44895   0.70726   0.13232   0.00000  Uiso   1.00
C315   C     0.45222   0.78864   0.16527   0.00000  Uiso   1.00
C316   C     0.33456   0.74994   0.16184   0.00000  Uiso   1.00
C317   C     0.04632   0.70522   0.16911   0.00000  Uiso   1.00
C318   C     0.09184   0.78977   0.14651   0.00000  Uiso   1.00
C319   C     0.40304   0.70692   0.13752   0.00000  Uiso   1.00
C320   C     0.40690   0.79176   0.15781   0.00000  Uiso   1.00
C321   C     0.09239   0.70466   0.16699   0.00000  Uiso   1.00
C322   C     0.11586   0.74828   0.16028   0.00000  Uiso   1.00
C323   C     0.38214   0.74918   0.15342   0.00000  Uiso   1.00
C324   C     0.02304   0.74540   0.15069   0.00000  Uiso   1.00
C325   C     0.47426   0.74658   0.15043   0.00000  Uiso   1.00
C326   C     0.02342   0.81150   0.05752   0.00000  Uiso   1.00
C327   C     0.26845   0.60692   0.20690   0.00000  Uiso   1.00
C328   C     0.06113   0.83519   0.02971   0.00000  Uiso   1.00
C329   C     0.06150   0.88994   0.03536   0.00000  Uiso   1.00
C330   C     0.47224   0.67800   0.05854   0.00000  Uiso   1.00
C331   C     0.45181   0.63624   0.02910   0.00000  Uiso   1.00
C332   C     0.47168   0.58768   0.04403   0.00000  Uiso   1.00
C333   C     0.47895   0.82541   0.23512   0.00000  Uiso   1.00
C334   C     0.46524   0.87310   0.25819   0.00000  Uiso   1.00
C335   C     0.49587   0.91460   0.24466   0.00000  Uiso   1.00
C336   C     0.02576   0.65965   0.23501   0.00000  Uiso   1.00
C337   C     0.02376   0.60637   0.24935   0.00000  Uiso   1.00
C338   C     0.21236   0.89654   0.15946   0.00000  Uiso   1.00
C339   C     0.48167   0.58178   0.23008   0.00000  Uiso   1.00
C340   C     0.09713   0.86546   0.17923   0.00000  Uiso   1.00
C341   C     0.11511   0.85227   0.23072   0.00000  Uiso   1.00
C342   C     0.37879   0.62885   0.14419   0.00000  Uiso   1.00
C343   C     0.35205   0.59016   0.11711   0.00000  Uiso   1.00
C344   C     0.38448   0.83706   0.09274   0.00000  Uiso   1.00
C345   C     0.37116   0.88680   0.07449   0.00000  Uiso   1.00
C346   C     0.11286   0.63853   0.12473   0.00000  Uiso   1.00
C347   C     0.11700   0.58436   0.13105   0.00000  Uiso   1.00
C348   C     0.32139   0.55648   0.27689   0.00000  Uiso   1.00
C349   C     0.23233   0.60262   0.12915   0.00000  Uiso   1.00
C350   C     0.34633   0.52160   0.31068   0.00000  Uiso   1.00
C351   C     0.16287   0.97450   0.22155   0.00000  Uiso   1.00
C352   C     0.11700   0.99469   0.22888   0.00000  Uiso   1.00
C353   C     0.24382   0.51557   0.05754   0.00000  Uiso   1.00
C354   C     0.22234   0.98354   0.01834   0.00000  Uiso   1.00
C355   C     0.36379   0.96084   0.17036   0.00000  Uiso   1.00
C356   C     0.40379   0.98815   0.19073   0.00000  Uiso   1.00
C357   C     0.28794   0.89463   0.18014   0.00000  Uiso   1.00
C358   C     0.26992   0.55580   0.21126   0.00000  Uiso   1.00
C359   C     0.21149   0.94690   0.16679   0.00000  Uiso   1.00
C360   C     0.23306   0.55181   0.13090   0.00000  Uiso   1.00
Cu361  Cu    0.25000   0.79821   0.16667   0.00000  Uiso   1.00
Cu362  Cu    0.25000   0.70178   0.16667   0.00000  Uiso   1.00
H363   H     0.28169   0.62914   0.23618   0.00000  Uiso   1.00
H364   H     0.08826   0.90568   0.01325   0.00000  Uiso   1.00
H365   H     0.06743   0.90006   0.07448   0.00000  Uiso   1.00
H366   H     0.00773   0.68094   0.05003   0.00000  Uiso   1.00
H367   H     0.45624   0.71208   0.04542   0.00000  Uiso   1.00
H368   H     0.41572   0.63510   0.03447   0.00000  Uiso   1.00
H369   H     0.45716   0.64272   0.32272   0.00000  Uiso   1.00
H370   H     0.00814   0.58899   0.04233   0.00000  Uiso   1.00
H371   H     0.45906   0.55928   0.01859   0.00000  Uiso   1.00
H372   H     0.46231   0.57793   0.08205   0.00000  Uiso   1.00
H373   H     0.01387   0.81774   0.24525   0.00000  Uiso   1.00
H374   H     0.18222   0.87810   0.15050   0.00000  Uiso   1.00
H375   H     0.45870   0.79624   0.25204   0.00000  Uiso   1.00
H376   H     0.43103   0.88183   0.24585   0.00000  Uiso   1.00
H377   H     0.46566   0.86905   0.29889   0.00000  Uiso   1.00
H378   H     0.03011   0.90663   0.25707   0.00000  Uiso   1.00
H379   H     0.48535   0.94800   0.26326   0.00000  Uiso   1.00
H380   H     0.49483   0.92088   0.20425   0.00000  Uiso   1.00
H381   H     0.49713   0.67890   0.25016   0.00000  Uiso   1.00
H382   H     0.05637   0.67496   0.25258   0.00000  Uiso   1.00
H383   H     0.05267   0.58754   0.23446   0.00000  Uiso   1.00
H384   H     0.02570   0.60318   0.29005   0.00000  Uiso   1.00
H385   H     0.21738   0.62057   0.09758   0.00000  Uiso   1.00
H386   H     0.48039   0.54427   0.24434   0.00000  Uiso   1.00
H387   H     0.48122   0.58048   0.18922   0.00000  Uiso   1.00
H388   H     0.45211   0.60125   0.24242   0.00000  Uiso   1.00
H389   H     0.06066   0.86767   0.17950   0.00000  Uiso   1.00
H390   H     0.10859   0.90219   0.17004   0.00000  Uiso   1.00
H391   H     0.10540   0.88010   0.25747   0.00000  Uiso   1.00
H392   H     0.10153   0.81708   0.24277   0.00000  Uiso   1.00
H393   H     0.15154   0.85023   0.23101   0.00000  Uiso   1.00
H394   H     0.36375   0.63554   0.18043   0.00000  Uiso   1.00
H395   H     0.41279   0.61523   0.15060   0.00000  Uiso   1.00
H396   H     0.31663   0.87412   0.19090   0.00000  Uiso   1.00
H397   H     0.37135   0.57497   0.08674   0.00000  Uiso   1.00
H398   H     0.34313   0.56086   0.14274   0.00000  Uiso   1.00
H399   H     0.32122   0.60570   0.10127   0.00000  Uiso   1.00
H400   H     0.35869   0.81114   0.07961   0.00000  Uiso   1.00
H401   H     0.41614   0.82801   0.07513   0.00000  Uiso   1.00
H402   H     0.39690   0.91357   0.08518   0.00000  Uiso   1.00
H403   H     0.36778   0.88657   0.03368   0.00000  Uiso   1.00
H404   H     0.33896   0.89690   0.08968   0.00000  Uiso   1.00
H405   H     0.14097   0.65203   0.10316   0.00000  Uiso   1.00
H406   H     0.08185   0.64507   0.10273   0.00000  Uiso   1.00
H407   H     0.49174   0.82575   0.04252   0.00000  Uiso   1.00
H408   H     0.08678   0.56970   0.14782   0.00000  Uiso   1.00
H409   H     0.12107   0.56713   0.09463   0.00000  Uiso   1.00
H410   H     0.14597   0.57587   0.15508   0.00000  Uiso   1.00
H411   H     0.30976   0.58661   0.29998   0.00000  Uiso   1.00
H412   H     0.34491   0.57035   0.24930   0.00000  Uiso   1.00
H413   H     0.35767   0.99003   0.28970   0.00000  Uiso   1.00
H414   H     0.37546   0.54006   0.32760   0.00000  Uiso   1.00
H415   H     0.32494   0.50872   0.00710   0.00000  Uiso   1.00
H416   H     0.18702   0.99942   0.23972   0.00000  Uiso   1.00
H417   H     0.16484   0.93898   0.24065   0.00000  Uiso   1.00
H418   H     0.02276   0.77205   0.04969   0.00000  Uiso   1.00
H419   H     0.09248   0.97752   0.20347   0.00000  Uiso   1.00
H420   H     0.10702   0.98803   0.26737   0.00000  Uiso   1.00
H421   H     0.11713   0.53411   0.22264   0.00000  Uiso   1.00
H422   H     0.27248   0.99582   0.07408   0.00000  Uiso   1.00
H423   H     0.25555   0.54926   0.03959   0.00000  Uiso   1.00
H424   H     0.19410   0.50254   0.00039   0.00000  Uiso   1.00
H425   H     0.24655   0.97438   0.32332   0.00000  Uiso   1.00
H426   H     0.21034   0.94965   0.03539   0.00000  Uiso   1.00
H427   H     0.35647   0.97370   0.13217   0.00000  Uiso   1.00
H428   H     0.37277   0.92225   0.17050   0.00000  Uiso   1.00
H429   H     0.09315   0.82041   0.04319   0.00000  Uiso   1.00
H430   H     0.41312   0.97408   0.22780   0.00000  Uiso   1.00
H431   H     0.43196   0.98338   0.16600   0.00000  Uiso   1.00
H432   H     0.39669   0.52711   0.19387   0.00000  Uiso   1.00
H433   H     0.05730   0.82627   0.32336   0.00000  Uiso   1.00
H434   H     0.02963   0.90530   0.02215   0.00000  Uiso   1.00
N435   N     0.25000   0.62935   0.16667   0.00000  Uiso   1.00
N436   N     0.25000   0.87065   0.16667   0.00000  Uiso   1.00
O437   O     0.18573   0.79071   0.16667   0.00000  Uiso   1.00
O438   O     0.46864   0.66882   0.10956   0.00000  Uiso   1.00
O439   O     0.47466   0.82860   0.18314   0.00000  Uiso   1.00
O440   O     0.02448   0.66381   0.18316   0.00000  Uiso   1.00
O441   O     0.11261   0.83394   0.14257   0.00000  Uiso   1.00
O442   O     0.37806   0.67101   0.11507   0.00000  Uiso   1.00
O443   O     0.38883   0.83591   0.14502   0.00000  Uiso   1.00
O444   O     0.11358   0.66087   0.17162   0.00000  Uiso   1.00
O445   O     0.28493   0.53260   0.25416   0.00000  Uiso   1.00
O446   O     0.17134   0.96979   0.17068   0.00000  Uiso   1.00
O447   O     0.21253   0.52623   0.09324   0.00000  Uiso   1.00
O448   O     0.31427   0.70929   0.16666   0.00000  Uiso   1.00
O449   O     0.32764   0.96914   0.20051   0.00000  Uiso   1.00
O450   O     0.31427   0.79071   0.16666   0.00000  Uiso   1.00
O451   O     0.18573   0.70928   0.16667   0.00000  Uiso   1.00
O452   O     0.25000   0.79071   0.09613   0.00000  Uiso   1.00
O453   O     0.25000   0.70929   0.23720   0.00000  Uiso   1.00
O454   O     0.25000   0.79071   0.23720   0.00000  Uiso   1.00
O455   O     0.25000   0.70929   0.09613   0.00000  Uiso   1.00
O456   O     0.02633   0.82267   0.10832   0.00000  Uiso   1.00
C457   C     0.66465   0.74970   0.16515   0.00000  Uiso   1.00
C458   C     0.79011   0.94582   0.18245   0.00000  Uiso   1.00
C459   C     0.74993   0.75005   0.07353   0.00000  Uiso   1.00
C460   C     0.75008   0.74995   0.25980   0.00000  Uiso   1.00
C461   C     0.75148   0.52751   0.17257   0.00000  Uiso   1.00
C462   C     0.75121   0.97278   0.17451   0.00000  Uiso   1.00
C463   C     0.75001   0.75007   0.02186   0.00000  Uiso   1.00
C464   C     0.75005   0.74992   0.31148   0.00000  Uiso   1.00
C465   C     0.54700   0.78550   0.13382   0.00000  Uiso   1.00
C466   C     0.94895   0.70726   0.13232   0.00000  Uiso   1.00
C467   C     0.95222   0.78864   0.16527   0.00000  Uiso   1.00
C468   C     0.83456   0.74994   0.16184   0.00000  Uiso   1.00
C469   C     0.54632   0.70522   0.16911   0.00000  Uiso   1.00
C470   C     0.59184   0.78977   0.14651   0.00000  Uiso   1.00
C471   C     0.90304   0.70692   0.13752   0.00000  Uiso   1.00
C472   C     0.90690   0.79176   0.15781   0.00000  Uiso   1.00
C473   C     0.59239   0.70466   0.16699   0.00000  Uiso   1.00
C474   C     0.61586   0.74828   0.16028   0.00000  Uiso   1.00
C475   C     0.88214   0.74918   0.15342   0.00000  Uiso   1.00
C476   C     0.52304   0.74540   0.15069   0.00000  Uiso   1.00
C477   C     0.97426   0.74658   0.15043   0.00000  Uiso   1.00
C478   C     0.52342   0.81150   0.05752   0.00000  Uiso   1.00
C479   C     0.76845   0.60692   0.20690   0.00000  Uiso   1.00
C480   C     0.56113   0.83519   0.02971   0.00000  Uiso   1.00
C481   C     0.56150   0.88994   0.03536   0.00000  Uiso   1.00
C482   C     0.97224   0.67800   0.05854   0.00000  Uiso   1.00
C483   C     0.95181   0.63624   0.02910   0.00000  Uiso   1.00
C484   C     0.97168   0.58768   0.04403   0.00000  Uiso   1.00
C485   C     0.97895   0.82541   0.23512   0.00000  Uiso   1.00
C486   C     0.96524   0.87310   0.25819   0.00000  Uiso   1.00
C487   C     0.99587   0.91460   0.24466   0.00000  Uiso   1.00
C488   C     0.52576   0.65965   0.23501   0.00000  Uiso   1.00
C489   C     0.52376   0.60637   0.24935   0.00000  Uiso   1.00
C490   C     0.71236   0.89654   0.15946   0.00000  Uiso   1.00
C491   C     0.98167   0.58178   0.23008   0.00000  Uiso   1.00
C492   C     0.59713   0.86546   0.17923   0.00000  Uiso   1.00
C493   C     0.61511   0.85227   0.23072   0.00000  Uiso   1.00
C494   C     0.87879   0.62885   0.14419   0.00000  Uiso   1.00
C495   C     0.85205   0.59016   0.11711   0.00000  Uiso   1.00
C496   C     0.88448   0.83706   0.09274   0.00000  Uiso   1.00
C497   C     0.87116   0.88680   0.07449   0.00000  Uiso   1.00
C498   C     0.61286   0.63853   0.12473   0.00000  Uiso   1.00
C499   C     0.61700   0.58436   0.13105   0.00000  Uiso   1.00
C500   C     0.82139   0.55648   0.27689   0.00000  Uiso   1.00
C501   C     0.73233   0.60262   0.12915   0.00000  Uiso   1.00
C502   C     0.84633   0.52160   0.31068   0.00000  Uiso   1.00
C503   C     0.66287   0.97450   0.22155   0.00000  Uiso   1.00
C504   C     0.61700   0.99469   0.22888   0.00000  Uiso   1.00
C505   C     0.74382   0.51557   0.05754   0.00000  Uiso   1.00
C506   C     0.72234   0.98354   0.01834   0.00000  Uiso   1.00
C507   C     0.86379   0.96084   0.17036   0.00000  Uiso   1.00
C508   C     0.90379   0.98815   0.19073   0.00000  Uiso   1.00
C509   C     0.78794   0.89463   0.18014   0.00000  Uiso   1.00
C510   C     0.76992   0.55580   0.21126   0.00000  Uiso   1.00
C511   C     0.71149   0.94690   0.16679   0.00000  Uiso   1.00
C512   C     0.73306   0.55181   0.13090   0.00000  Uiso   1.00
Cu513  Cu    0.75000   0.79821   0.16667   0.00000  Uiso   1.00
Cu514  Cu    0.75000   0.70178   0.16667   0.00000  Uiso   1.00
H515   H     0.78169   0.62914   0.23618   0.00000  Uiso   1.00
H516   H     0.58826   0.90568   0.01325   0.00000  Uiso   1.00
H517   H     0.56743   0.90006   0.07448   0.00000  Uiso   1.00
H518   H     0.50773   0.68094   0.05003   0.00000  Uiso   1.00
H519   H     0.95624   0.71208   0.04542   0.00000  Uiso   1.00
H520   H     0.91572   0.63510   0.03447   0.00000  Uiso   1.00
H521   H     0.95716   0.64272   0.32272   0.00000  Uiso   1.00
H522   H     0.50814   0.58899   0.04233   0.00000  Uiso   1.00
H523   H     0.95906   0.55928   0.01859   0.00000  Uiso   1.00
H524   H     0.96231   0.57793   0.08205   0.00000  Uiso   1.00
H525   H     0.51387   0.81774   0.24525   0.00000  Uiso   1.00
H526   H     0.68222   0.87810   0.15050   0.00000  Uiso   1.00
H527   H     0.95870   0.79624   0.25204   0.00000  Uiso   1.00
H528   H     0.93103   0.88183   0.24585   0.00000  Uiso   1.00
H529   H     0.96566   0.86905   0.29889   0.00000  Uiso   1.00
H530   H     0.53011   0.90663   0.25707   0.00000  Uiso   1.00
H531   H     0.98535   0.94800   0.26326   0.00000  Uiso   1.00
H532   H     0.99483   0.92088   0.20425   0.00000  Uiso   1.00
H533   H     0.99713   0.67890   0.25016   0.00000  Uiso   1.00
H534   H     0.55637   0.67496   0.25258   0.00000  Uiso   1.00
H535   H     0.55267   0.58754   0.23446   0.00000  Uiso   1.00
H536   H     0.52570   0.60318   0.29005   0.00000  Uiso   1.00
H537   H     0.71738   0.62057   0.09758   0.00000  Uiso   1.00
H538   H     0.98039   0.54427   0.24434   0.00000  Uiso   1.00
H539   H     0.98122   0.58048   0.18922   0.00000  Uiso   1.00
H540   H     0.95211   0.60125   0.24242   0.00000  Uiso   1.00
H541   H     0.56066   0.86767   0.17950   0.00000  Uiso   1.00
H542   H     0.60859   0.90219   0.17004   0.00000  Uiso   1.00
H543   H     0.60540   0.88010   0.25747   0.00000  Uiso   1.00
H544   H     0.60153   0.81708   0.24277   0.00000  Uiso   1.00
H545   H     0.65154   0.85023   0.23101   0.00000  Uiso   1.00
H546   H     0.86375   0.63554   0.18043   0.00000  Uiso   1.00
H547   H     0.91279   0.61523   0.15060   0.00000  Uiso   1.00
H548   H     0.81663   0.87412   0.19090   0.00000  Uiso   1.00
H549   H     0.87135   0.57497   0.08674   0.00000  Uiso   1.00
H550   H     0.84313   0.56086   0.14274   0.00000  Uiso   1.00
H551   H     0.82122   0.60570   0.10127   0.00000  Uiso   1.00
H552   H     0.85869   0.81114   0.07961   0.00000  Uiso   1.00
H553   H     0.91614   0.82801   0.07513   0.00000  Uiso   1.00
H554   H     0.89690   0.91357   0.08518   0.00000  Uiso   1.00
H555   H     0.86778   0.88657   0.03368   0.00000  Uiso   1.00
H556   H     0.83896   0.89690   0.08968   0.00000  Uiso   1.00
H557   H     0.64097   0.65203   0.10316   0.00000  Uiso   1.00
H558   H     0.58185   0.64507   0.10273   0.00000  Uiso   1.00
H559   H     0.99174   0.82575   0.04252   0.00000  Uiso   1.00
H560   H     0.58678   0.56970   0.14782   0.00000  Uiso   1.00
H561   H     0.62107   0.56713   0.09463   0.00000  Uiso   1.00
H562   H     0.64597   0.57587   0.15508   0.00000  Uiso   1.00
H563   H     0.80976   0.58661   0.29998   0.00000  Uiso   1.00
H564   H     0.84491   0.57035   0.24930   0.00000  Uiso   1.00
H565   H     0.85767   0.99003   0.28970   0.00000  Uiso   1.00
H566   H     0.87546   0.54006   0.32760   0.00000  Uiso   1.00
H567   H     0.82494   0.50872   0.00710   0.00000  Uiso   1.00
H568   H     0.68702   0.99942   0.23972   0.00000  Uiso   1.00
H569   H     0.66484   0.93898   0.24065   0.00000  Uiso   1.00
H570   H     0.52276   0.77205   0.04969   0.00000  Uiso   1.00
H571   H     0.59248   0.97752   0.20347   0.00000  Uiso   1.00
H572   H     0.60702   0.98803   0.26737   0.00000  Uiso   1.00
H573   H     0.61713   0.53411   0.22264   0.00000  Uiso   1.00
H574   H     0.77248   0.99582   0.07408   0.00000  Uiso   1.00
H575   H     0.75555   0.54926   0.03959   0.00000  Uiso   1.00
H576   H     0.69410   0.50254   0.00039   0.00000  Uiso   1.00
H577   H     0.74655   0.97438   0.32332   0.00000  Uiso   1.00
H578   H     0.71034   0.94965   0.03539   0.00000  Uiso   1.00
H579   H     0.85647   0.97370   0.13217   0.00000  Uiso   1.00
H580   H     0.87277   0.92225   0.17050   0.00000  Uiso   1.00
H581   H     0.59315   0.82041   0.04319   0.00000  Uiso   1.00
H582   H     0.91312   0.97408   0.22780   0.00000  Uiso   1.00
H583   H     0.93196   0.98338   0.16600   0.00000  Uiso   1.00
H584   H     0.89669   0.52711   0.19387   0.00000  Uiso   1.00
H585   H     0.55730   0.82627   0.32336   0.00000  Uiso   1.00
H586   H     0.52963   0.90530   0.02215   0.00000  Uiso   1.00
N587   N     0.75000   0.62935   0.16667   0.00000  Uiso   1.00
N588   N     0.75000   0.87065   0.16667   0.00000  Uiso   1.00
O589   O     0.68573   0.79071   0.16667   0.00000  Uiso   1.00
O590   O     0.96864   0.66882   0.10956   0.00000  Uiso   1.00
O591   O     0.97466   0.82860   0.18314   0.00000  Uiso   1.00
O592   O     0.52448   0.66381   0.18316   0.00000  Uiso   1.00
O593   O     0.61261   0.83394   0.14257   0.00000  Uiso   1.00
O594   O     0.87806   0.67101   0.11507   0.00000  Uiso   1.00
O595   O     0.88883   0.83591   0.14502   0.00000  Uiso   1.00
O596   O     0.61358   0.66087   0.17162   0.00000  Uiso   1.00
O597   O     0.78493   0.53260   0.25416   0.00000  Uiso   1.00
O598   O     0.67134   0.96979   0.17068   0.00000  Uiso   1.00
O599   O     0.71253   0.52623   0.09324   0.00000  Uiso   1.00
O600   O     0.81427   0.70929   0.16666   0.00000  Uiso   1.00
O601   O     0.82764   0.96914   0.20051   0.00000  Uiso   1.00
O602   O     0.81427   0.79071   0.16666   0.00000  Uiso   1.00
O603   O     0.68573   0.70928   0.16667   0.00000  Uiso   1.00
O604   O     0.75000   0.79071   0.09613   0.00000  Uiso   1.00
O605   O     0.75000   0.70929   0.23720   0.00000  Uiso   1.00
O606   O     0.75000   0.79071   0.23720   0.00000  Uiso   1.00
O607   O     0.75000   0.70929   0.09613   0.00000  Uiso   1.00
O608   O     0.52633   0.82267   0.10832   0.00000  Uiso   1.00
C609   C     0.16465   0.24970   0.49849   0.00000  Uiso   1.00
C610   C     0.29011   0.44582   0.51578   0.00000  Uiso   1.00
C611   C     0.24993   0.25005   0.40686   0.00000  Uiso   1.00
C612   C     0.25008   0.24995   0.59314   0.00000  Uiso   1.00
C613   C     0.25148   0.02751   0.50590   0.00000  Uiso   1.00
C614   C     0.25121   0.47278   0.50785   0.00000  Uiso   1.00
C615   C     0.25001   0.25007   0.35519   0.00000  Uiso   1.00
C616   C     0.25005   0.24992   0.64481   0.00000  Uiso   1.00
C617   C     0.04700   0.28550   0.46716   0.00000  Uiso   1.00
C618   C     0.44895   0.20726   0.46565   0.00000  Uiso   1.00
C619   C     0.45222   0.28864   0.49861   0.00000  Uiso   1.00
C620   C     0.33456   0.24994   0.49517   0.00000  Uiso   1.00
C621   C     0.04632   0.20522   0.50244   0.00000  Uiso   1.00
C622   C     0.09184   0.28977   0.47984   0.00000  Uiso   1.00
C623   C     0.40304   0.20692   0.47086   0.00000  Uiso   1.00
C624   C     0.40690   0.29176   0.49114   0.00000  Uiso   1.00
C625   C     0.09239   0.20466   0.50032   0.00000  Uiso   1.00
C626   C     0.11586   0.24828   0.49362   0.00000  Uiso   1.00
C627   C     0.38214   0.24918   0.48675   0.00000  Uiso   1.00
C628   C     0.02304   0.24540   0.48402   0.00000  Uiso   1.00
C629   C     0.47426   0.24658   0.48376   0.00000  Uiso   1.00
C630   C     0.02342   0.31150   0.39085   0.00000  Uiso   1.00
C631   C     0.26845   0.10692   0.54023   0.00000  Uiso   1.00
C632   C     0.06113   0.33519   0.36305   0.00000  Uiso   1.00
C633   C     0.06150   0.38994   0.36869   0.00000  Uiso   1.00
C634   C     0.47224   0.17800   0.39187   0.00000  Uiso   1.00
C635   C     0.45181   0.13624   0.36243   0.00000  Uiso   1.00
C636   C     0.47168   0.08768   0.37736   0.00000  Uiso   1.00
C637   C     0.47895   0.32541   0.56845   0.00000  Uiso   1.00
C638   C     0.46524   0.37310   0.59152   0.00000  Uiso   1.00
C639   C     0.49587   0.41460   0.57799   0.00000  Uiso   1.00
C640   C     0.02576   0.15965   0.56835   0.00000  Uiso   1.00
C641   C     0.02376   0.10637   0.58268   0.00000  Uiso   1.00
C642   C     0.21236   0.39654   0.49279   0.00000  Uiso   1.00
C643   C     0.48167   0.08178   0.56342   0.00000  Uiso   1.00
C644   C     0.09713   0.36546   0.51257   0.00000  Uiso   1.00
C645   C     0.11511   0.35227   0.56405   0.00000  Uiso   1.00
C646   C     0.37879   0.12885   0.47752   0.00000  Uiso   1.00
C647   C     0.35205   0.09016   0.45044   0.00000  Uiso   1.00
C648   C     0.38448   0.33706   0.42607   0.00000  Uiso   1.00
C649   C     0.37116   0.38680   0.40782   0.00000  Uiso   1.00
C650   C     0.11286   0.13853   0.45807   0.00000  Uiso   1.00
C651   C     0.11700   0.08436   0.46438   0.00000  Uiso   1.00
C652   C     0.32139   0.05648   0.61022   0.00000  Uiso   1.00
C653   C     0.23233   0.10262   0.46249   0.00000  Uiso   1.00
C654   C     0.34633   0.02160   0.64401   0.00000  Uiso   1.00
C655   C     0.16287   0.47450   0.55488   0.00000  Uiso   1.00
C656   C     0.11700   0.49469   0.56221   0.00000  Uiso   1.00
C657   C     0.24382   0.01557   0.39087   0.00000  Uiso   1.00
C658   C     0.22234   0.48354   0.35168   0.00000  Uiso   1.00
C659   C     0.36379   0.46084   0.50370   0.00000  Uiso   1.00
C660   C     0.40379   0.48815   0.52406   0.00000  Uiso   1.00
C661   C     0.28794   0.39463   0.51347   0.00000  Uiso   1.00
C662   C     0.26992   0.05580   0.54460   0.00000  Uiso   1.00
C663   C     0.21149   0.44690   0.50012   0.00000  Uiso   1.00
C664   C     0.23306   0.05181   0.46423   0.00000  Uiso   1.00
Cu665  Cu    0.25000   0.29821   0.50000   0.00000  Uiso   1.00
Cu666  Cu    0.25000   0.20178   0.50000   0.00000  Uiso   1.00
H667   H     0.28169   0.12914   0.56951   0.00000  Uiso   1.00
H668   H     0.08826   0.40568   0.34658   0.00000  Uiso   1.00
H669   H     0.06743   0.40006   0.40782   0.00000  Uiso   1.00
H670   H     0.00773   0.18094   0.38336   0.00000  Uiso   1.00
H671   H     0.45624   0.21208   0.37875   0.00000  Uiso   1.00
H672   H     0.41572   0.13510   0.36781   0.00000  Uiso   1.00
H673   H     0.45716   0.14272   0.65606   0.00000  Uiso   1.00
H674   H     0.00814   0.08899   0.37566   0.00000  Uiso   1.00
H675   H     0.45906   0.05928   0.35192   0.00000  Uiso   1.00
H676   H     0.46231   0.07793   0.41538   0.00000  Uiso   1.00
H677   H     0.01387   0.31774   0.57858   0.00000  Uiso   1.00
H678   H     0.18222   0.37810   0.48383   0.00000  Uiso   1.00
H679   H     0.45870   0.29624   0.58537   0.00000  Uiso   1.00
H680   H     0.43103   0.38183   0.57919   0.00000  Uiso   1.00
H681   H     0.46566   0.36905   0.63223   0.00000  Uiso   1.00
H682   H     0.03011   0.40663   0.59041   0.00000  Uiso   1.00
H683   H     0.48535   0.44800   0.59659   0.00000  Uiso   1.00
H684   H     0.49483   0.42088   0.53758   0.00000  Uiso   1.00
H685   H     0.49713   0.17890   0.58350   0.00000  Uiso   1.00
H686   H     0.05637   0.17496   0.58592   0.00000  Uiso   1.00
H687   H     0.05267   0.08754   0.56780   0.00000  Uiso   1.00
H688   H     0.02570   0.10318   0.62338   0.00000  Uiso   1.00
H689   H     0.21738   0.12057   0.43092   0.00000  Uiso   1.00
H690   H     0.48039   0.04427   0.57768   0.00000  Uiso   1.00
H691   H     0.48122   0.08048   0.52255   0.00000  Uiso   1.00
H692   H     0.45211   0.10125   0.57575   0.00000  Uiso   1.00
H693   H     0.06066   0.36767   0.51283   0.00000  Uiso   1.00
H694   H     0.10859   0.40219   0.50337   0.00000  Uiso   1.00
H695   H     0.10540   0.38010   0.59081   0.00000  Uiso   1.00
H696   H     0.10153   0.31708   0.57611   0.00000  Uiso   1.00
H697   H     0.15154   0.35023   0.56434   0.00000  Uiso   1.00
H698   H     0.36375   0.13554   0.51376   0.00000  Uiso   1.00
H699   H     0.41279   0.11523   0.48393   0.00000  Uiso   1.00
H700   H     0.31663   0.37412   0.52423   0.00000  Uiso   1.00
H701   H     0.37135   0.07497   0.42008   0.00000  Uiso   1.00
H702   H     0.34313   0.06086   0.47608   0.00000  Uiso   1.00
H703   H     0.32122   0.10570   0.43460   0.00000  Uiso   1.00
H704   H     0.35869   0.31114   0.41294   0.00000  Uiso   1.00
H705   H     0.41614   0.32801   0.40846   0.00000  Uiso   1.00
H706   H     0.39690   0.41357   0.41851   0.00000  Uiso   1.00
H707   H     0.36778   0.38657   0.36701   0.00000  Uiso   1.00
H708   H     0.33896   0.39690   0.42301   0.00000  Uiso   1.00
H709   H     0.14097   0.15203   0.43649   0.00000  Uiso   1.00
H710   H     0.08185   0.14507   0.43606   0.00000  Uiso   1.00
H711   H     0.49174   0.32575   0.37585   0.00000  Uiso   1.00
H712   H     0.08678   0.06970   0.48116   0.00000  Uiso   1.00
H713   H     0.12107   0.06713   0.42797   0.00000  Uiso   1.00
H714   H     0.14597   0.07587   0.48841   0.00000  Uiso   1.00
H715   H     0.30976   0.08661   0.63331   0.00000  Uiso   1.00
H716   H     0.34491   0.07035   0.58264   0.00000  Uiso   1.00
H717   H     0.35767   0.49003   0.62303   0.00000  Uiso   1.00
H718   H     0.37546   0.04006   0.66093   0.00000  Uiso   1.00
H719   H     0.32494   0.00872   0.34043   0.00000  Uiso   1.00
H720   H     0.18702   0.49942   0.57305   0.00000  Uiso   1.00
H721   H     0.16484   0.43898   0.57398   0.00000  Uiso   1.00
H722   H     0.02276   0.27205   0.38302   0.00000  Uiso   1.00
H723   H     0.09248   0.47752   0.53681   0.00000  Uiso   1.00
H724   H     0.10702   0.48803   0.60070   0.00000  Uiso   1.00
H725   H     0.11713   0.03411   0.55597   0.00000  Uiso   1.00
H726   H     0.27248   0.49582   0.40742   0.00000  Uiso   1.00
H727   H     0.25555   0.04926   0.37293   0.00000  Uiso   1.00
H728   H     0.19410   0.00254   0.33372   0.00000  Uiso   1.00
H729   H     0.24655   0.47438   0.65666   0.00000  Uiso   1.00
H730   H     0.21034   0.44965   0.36873   0.00000  Uiso   1.00
H731   H     0.35647   0.47370   0.46551   0.00000  Uiso   1.00
H732   H     0.37277   0.42225   0.50384   0.00000  Uiso   1.00
H733   H     0.09315   0.32041   0.37652   0.00000  Uiso   1.00
H734   H     0.41312   0.47408   0.56113   0.00000  Uiso   1.00
H735   H     0.43196   0.48338   0.49933   0.00000  Uiso   1.00
H736   H     0.39669   0.02711   0.52720   0.00000  Uiso   1.00
H737   H     0.05730   0.32627   0.65669   0.00000  Uiso   1.00
H738   H     0.02963   0.40530   0.35549   0.00000  Uiso   1.00
N739   N     0.25000   0.12935   0.50000   0.00000  Uiso   1.00
N740   N     0.25000   0.37065   0.50000   0.00000  Uiso   1.00
O741   O     0.18573   0.29071   0.50000   0.00000  Uiso   1.00
O742   O     0.46864   0.16882   0.44289   0.00000  Uiso   1.00
O743   O     0.47466   0.32860   0.51647   0.00000  Uiso   1.00
O744   O     0.02448   0.16381   0.51649   0.00000  Uiso   1.00
O745   O     0.11261   0.33394   0.47591   0.00000  Uiso   1.00
O746   O     0.37806   0.17101   0.44840   0.00000  Uiso   1.00
O747   O     0.38883   0.33591   0.47835   0.00000  Uiso   1.00
O748   O     0.11358   0.16087   0.50495   0.00000  Uiso   1.00
O749   O     0.28493   0.03260   0.58749   0.00000  Uiso   1.00
O750   O     0.17134   0.46979   0.50401   0.00000  Uiso   1.00
O751   O     0.21253   0.02623   0.42658   0.00000  Uiso   1.00
O752   O     0.31427   0.20929   0.50000   0.00000  Uiso   1.00
O753   O     0.32764   0.46914   0.53385   0.00000  Uiso   1.00
O754   O     0.31427   0.29071   0.50000   0.00000  Uiso   1.00
O755   O     0.18573   0.20928   0.50000   0.00000  Uiso   1.00
O756   O     0.25000   0.29071   0.42946   0.00000  Uiso   1.00
O757   O     0.25000   0.20929   0.57054   0.00000  Uiso   1.00
O758   O     0.25000   0.29071   0.57054   0.00000  Uiso   1.00
O759   O     0.25000   0.20929   0.42946   0.00000  Uiso   1.00
O760   O     0.02633   0.32267   0.44165   0.00000  Uiso   1.00
C761   C     0.66465   0.24970   0.49849   0.00000  Uiso   1.00
C762   C     0.79011   0.44582   0.51578   0.00000  Uiso   1.00
C763   C     0.74993   0.25005   0.40686   0.00000  Uiso   1.00
C764   C     0.75008   0.24995   0.59314   0.00000  Uiso   1.00
C765   C     0.75148   0.02751   0.50590   0.00000  Uiso   1.00
C766   C     0.75121   0.47278   0.50785   0.00000  Uiso   1.00
C767   C     0.75001   0.25007   0.35519   0.00000  Uiso   1.00
C768   C     0.75005   0.24992   0.64481   0.00000  Uiso   1.00
C769   C     0.54700   0.28550   0.46716   0.00000  Uiso   1.00
C770   C     0.94895   0.20726   0.46565   0.00000  Uiso   1.00
C771   C     0.95222   0.28864   0.49861   0.00000  Uiso   1.00
C772   C     0.83456   0.24994   0.49517   0.00000  Uiso   1.00
C773   C     0.54632   0.20522   0.50244   0.00000  Uiso   1.00
C774   C     0.59184   0.28977   0.47984   0.00000  Uiso   1.00
C775   C     0.90304   0.20692   0.47086   0.00000  Uiso   1.00
C776   C     0.90690   0.29176   0.49114   0.00000  Uiso   1.00
C777   C     0.59239   0.20466   0.50032   0.00000  Uiso   1.00
C778   C     0.61586   0.24828   0.49362   0.00000  Uiso   1.00
C779   C     0.88214   0.24918   0.48675   0.00000  Uiso   1.00
C780   C     0.52304   0.24540   0.48402   0.00000  Uiso   1.00
C781   C     0.97426   0.24658   0.48376   0.00000  Uiso   1.00
C782   C     0.52342   0.31150   0.39085   0.00000  Uiso   1.00
C783   C     0.76845   0.10692   0.54023   0.00000  Uiso   1.00
C784   C     0.56113   0.33519   0.36305   0.00000  Uiso   1.00
C785   C     0.56150   0.38994   0.36869   0.00000  Uiso   1.00
C786   C     0.97224   0.17800   0.39187   0.00000  Uiso   1.00
C787   C     0.95181   0.13624   0.36243   0.00000  Uiso   1.00
C788   C     0.97168   0.08768   0.37736   0.00000  Uiso   1.00
C789   C     0.97895   0.32541   0.56845   0.00000  Uiso   1.00
C790   C     0.96524   0.37310   0.59152   0.00000  Uiso   1.00
C791   C     0.99587   0.41460   0.57799   0.00000  Uiso   1.00
C792   C     0.52576   0.15965   0.56835   0.00000  Uiso   1.00
C793   C     0.52376   0.10637   0.58268   0.00000  Uiso   1.00
C794   C     0.71236   0.39654   0.49279   0.00000  Uiso   1.00
C795   C     0.98167   0.08178   0.56342   0.00000  Uiso   1.00
C796   C     0.59713   0.36546   0.51257   0.00000  Uiso   1.00
C797   C     0.61511   0.35227   0.56405   0.00000  Uiso   1.00
C798   C     0.87879   0.12885   0.47752   0.00000  Uiso   1.00
C799   C     0.85205   0.09016   0.45044   0.00000  Uiso   1.00
C800   C     0.88448   0.33706   0.42607   0.00000  Uiso   1.00
C801   C     0.87116   0.38680   0.40782   0.00000  Uiso   1.00
C802   C     0.61286   0.13853   0.45807   0.00000  Uiso   1.00
C803   C     0.61700   0.08436   0.46438   0.00000  Uiso   1.00
C804   C     0.82139   0.05648   0.61022   0.00000  Uiso   1.00
C805   C     0.73233   0.10262   0.46249   0.00000  Uiso   1.00
C806   C     0.84633   0.02160   0.64401   0.00000  Uiso   1.00
C807   C     0.66287   0.47450   0.55488   0.00000  Uiso   1.00
C808   C     0.61700   0.49469   0.56221   0.00000  Uiso   1.00
C809   C     0.74382   0.01557   0.39087   0.00000  Uiso   1.00
C810   C     0.72234   0.48354   0.35168   0.00000  Uiso   1.00
C811   C     0.86379   0.46084   0.50370   0.00000  Uiso   1.00
C812   C     0.90379   0.48815   0.52406   0.00000  Uiso   1.00
C813   C     0.78794   0.39463   0.51347   0.00000  Uiso   1.00
C814   C     0.76992   0.05580   0.54460   0.00000  Uiso   1.00
C815   C     0.71149   0.44690   0.50012   0.00000  Uiso   1.00
C816   C     0.73306   0.05181   0.46423   0.00000  Uiso   1.00
Cu817  Cu    0.75000   0.29821   0.50000   0.00000  Uiso   1.00
Cu818  Cu    0.75000   0.20178   0.50000   0.00000  Uiso   1.00
H819   H     0.78169   0.12914   0.56951   0.00000  Uiso   1.00
H820   H     0.58826   0.40568   0.34658   0.00000  Uiso   1.00
H821   H     0.56743   0.40006   0.40782   0.00000  Uiso   1.00
H822   H     0.50773   0.18094   0.38336   0.00000  Uiso   1.00
H823   H     0.95624   0.21208   0.37875   0.00000  Uiso   1.00
H824   H     0.91572   0.13510   0.36781   0.00000  Uiso   1.00
H825   H     0.95716   0.14272   0.65606   0.00000  Uiso   1.00
H826   H     0.50814   0.08899   0.37566   0.00000  Uiso   1.00
H827   H     0.95906   0.05928   0.35192   0.00000  Uiso   1.00
H828   H     0.96231   0.07793   0.41538   0.00000  Uiso   1.00
H829   H     0.51387   0.31774   0.57858   0.00000  Uiso   1.00
H830   H     0.68222   0.37810   0.48383   0.00000  Uiso   1.00
H831   H     0.95870   0.29624   0.58537   0.00000  Uiso   1.00
H832   H     0.93103   0.38183   0.57919   0.00000  Uiso   1.00
H833   H     0.96566   0.36905   0.63223   0.00000  Uiso   1.00
H834   H     0.53011   0.40663   0.59041   0.00000  Uiso   1.00
H835   H     0.98535   0.44800   0.59659   0.00000  Uiso   1.00
H836   H     0.99483   0.42088   0.53758   0.00000  Uiso   1.00
H837   H     0.99713   0.17890   0.58350   0.00000  Uiso   1.00
H838   H     0.55637   0.17496   0.58592   0.00000  Uiso   1.00
H839   H     0.55267   0.08754   0.56780   0.00000  Uiso   1.00
H840   H     0.52570   0.10318   0.62338   0.00000  Uiso   1.00
H841   H     0.71738   0.12057   0.43092   0.00000  Uiso   1.00
H842   H     0.98039   0.04427   0.57768   0.00000  Uiso   1.00
H843   H     0.98122   0.08048   0.52255   0.00000  Uiso   1.00
H844   H     0.95211   0.10125   0.57575   0.00000  Uiso   1.00
H845   H     0.56066   0.36767   0.51283   0.00000  Uiso   1.00
H846   H     0.60859   0.40219   0.50337   0.00000  Uiso   1.00
H847   H     0.60540   0.38010   0.59081   0.00000  Uiso   1.00
H848   H     0.60153   0.31708   0.57611   0.00000  Uiso   1.00
H849   H     0.65154   0.35023   0.56434   0.00000  Uiso   1.00
H850   H     0.86375   0.13554   0.51376   0.00000  Uiso   1.00
H851   H     0.91279   0.11523   0.48393   0.00000  Uiso   1.00
H852   H     0.81663   0.37412   0.52423   0.00000  Uiso   1.00
H853   H     0.87135   0.07497   0.42008   0.00000  Uiso   1.00
H854   H     0.84313   0.06086   0.47608   0.00000  Uiso   1.00
H855   H     0.82122   0.10570   0.43460   0.00000  Uiso   1.00
H856   H     0.85869   0.31114   0.41294   0.00000  Uiso   1.00
H857   H     0.91614   0.32801   0.40846   0.00000  Uiso   1.00
H858   H     0.89690   0.41357   0.41851   0.00000  Uiso   1.00
H859   H     0.86778   0.38657   0.36701   0.00000  Uiso   1.00
H860   H     0.83896   0.39690   0.42301   0.00000  Uiso   1.00
H861   H     0.64097   0.15203   0.43649   0.00000  Uiso   1.00
H862   H     0.58185   0.14507   0.43606   0.00000  Uiso   1.00
H863   H     0.99174   0.32575   0.37585   0.00000  Uiso   1.00
H864   H     0.58678   0.06970   0.48116   0.00000  Uiso   1.00
H865   H     0.62107   0.06713   0.42797   0.00000  Uiso   1.00
H866   H     0.64597   0.07587   0.48841   0.00000  Uiso   1.00
H867   H     0.80976   0.08661   0.63331   0.00000  Uiso   1.00
H868   H     0.84491   0.07035   0.58264   0.00000  Uiso   1.00
H869   H     0.85767   0.49003   0.62303   0.00000  Uiso   1.00
H870   H     0.87546   0.04006   0.66093   0.00000  Uiso   1.00
H871   H     0.82494   0.00872   0.34043   0.00000  Uiso   1.00
H872   H     0.68702   0.49942   0.57305   0.00000  Uiso   1.00
H873   H     0.66484   0.43898   0.57398   0.00000  Uiso   1.00
H874   H     0.52276   0.27205   0.38302   0.00000  Uiso   1.00
H875   H     0.59248   0.47752   0.53681   0.00000  Uiso   1.00
H876   H     0.60702   0.48803   0.60070   0.00000  Uiso   1.00
H877   H     0.61713   0.03411   0.55597   0.00000  Uiso   1.00
H878   H     0.77248   0.49582   0.40742   0.00000  Uiso   1.00
H879   H     0.75555   0.04926   0.37293   0.00000  Uiso   1.00
H880   H     0.69410   0.00254   0.33372   0.00000  Uiso   1.00
H881   H     0.74655   0.47438   0.65666   0.00000  Uiso   1.00
H882   H     0.71034   0.44965   0.36873   0.00000  Uiso   1.00
H883   H     0.85647   0.47370   0.46551   0.00000  Uiso   1.00
H884   H     0.87277   0.42225   0.50384   0.00000  Uiso   1.00
H885   H     0.59315   0.32041   0.37652   0.00000  Uiso   1.00
H886   H     0.91312   0.47408   0.56113   0.00000  Uiso   1.00
H887   H     0.93196   0.48338   0.49933   0.00000  Uiso   1.00
H888   H     0.89669   0.02711   0.52720   0.00000  Uiso   1.00
H889   H     0.55730   0.32627   0.65669   0.00000  Uiso   1.00
H890   H     0.52963   0.40530   0.35549   0.00000  Uiso   1.00
N891   N     0.75000   0.12935   0.50000   0.00000  Uiso   1.00
N892   N     0.75000   0.37065   0.50000   0.00000  Uiso   1.00
O893   O     0.68573   0.29071   0.50000   0.00000  Uiso   1.00
O894   O     0.96864   0.16882   0.44289   0.00000  Uiso   1.00
O895   O     0.97466   0.32860   0.51647   0.00000  Uiso   1.00
O896   O     0.52448   0.16381   0.51649   0.00000  Uiso   1.00
O897   O     0.61261   0.33394   0.47591   0.00000  Uiso   1.00
O898   O     0.87806   0.17101   0.44840   0.00000  Uiso   1.00
O899   O     0.88883   0.33591   0.47835   0.00000  Uiso   1.00
O900   O     0.61358   0.16087   0.50495   0.00000  Uiso   1.00
O901   O     0.78493   0.03260   0.58749   0.00000  Uiso   1.00
O902   O     0.67134   0.46979   0.50401   0.00000  Uiso   1.00
O903   O     0.71253   0.02623   0.42658   0.00000  Uiso   1.00
O904   O     0.81427   0.20929   0.50000   0.00000  Uiso   1.00
O905   O     0.82764   0.46914   0.53385   0.00000  Uiso   1.00
O906   O     0.81427   0.29071   0.50000   0.00000  Uiso   1.00
O907   O     0.68573   0.20928   0.50000   0.00000  Uiso   1.00
O908   O     0.75000   0.29071   0.42946   0.00000  Uiso   1.00
O909   O     0.75000   0.20929   0.57054   0.00000  Uiso   1.00
O910   O     0.75000   0.29071   0.57054   0.00000  Uiso   1.00
O911   O     0.75000   0.20929   0.42946   0.00000  Uiso   1.00
O912   O     0.52633   0.32267   0.44165   0.00000  Uiso   1.00
C913   C     0.16465   0.74970   0.49849   0.00000  Uiso   1.00
C914   C     0.29011   0.94582   0.51578   0.00000  Uiso   1.00
C915   C     0.24993   0.75005   0.40686   0.00000  Uiso   1.00
C916   C     0.25008   0.74995   0.59314   0.00000  Uiso   1.00
C917   C     0.25148   0.52751   0.50590   0.00000  Uiso   1.00
C918   C     0.25121   0.97278   0.50785   0.00000  Uiso   1.00
C919   C     0.25001   0.75007   0.35519   0.00000  Uiso   1.00
C920   C     0.25005   0.74992   0.64481   0.00000  Uiso   1.00
C921   C     0.04700   0.78550   0.46716   0.00000  Uiso   1.00
C922   C     0.44895   0.70726   0.46565   0.00000  Uiso   1.00
C923   C     0.45222   0.78864   0.49861   0.00000  Uiso   1.00
C924   C     0.33456   0.74994   0.49517   0.00000  Uiso   1.00
C925   C     0.04632   0.70522   0.50244   0.00000  Uiso   1.00
C926   C     0.09184   0.78977   0.47984   0.00000  Uiso   1.00
C927   C     0.40304   0.70692   0.47086   0.00000  Uiso   1.00
C928   C     0.40690   0.79176   0.49114   0.00000  Uiso   1.00
C929   C     0.09239   0.70466   0.50032   0.00000  Uiso   1.00
C930   C     0.11586   0.74828   0.49362   0.00000  Uiso   1.00
C931   C     0.38214   0.74918   0.48675   0.00000  Uiso   1.00
C932   C     0.02304   0.74540   0.48402   0.00000  Uiso   1.00
C933   C     0.47426   0.74658   0.48376   0.00000  Uiso   1.00
C934   C     0.02342   0.81150   0.39085   0.00000  Uiso   1.00
C935   C     0.26845   0.60692   0.54023   0.00000  Uiso   1.00
C936   C     0.06113   0.83519   0.36305   0.00000  Uiso   1.00
C937   C     0.06150   0.88994   0.36869   0.00000  Uiso   1.00
C938   C     0.47224   0.67800   0.39187   0.00000  Uiso   1.00
C939   C     0.45181   0.63624   0.36243   0.00000  Uiso   1.00
C940   C     0.47168   0.58768   0.37736   0.00000  Uiso   1.00
C941   C     0.47895   0.82541   0.56845   0.00000  Uiso   1.00
C942   C     0.46524   0.87310   0.59152   0.00000  Uiso   1.00
C943   C     0.49587   0.91460   0.57799   0.00000  Uiso   1.00
C944   C     0.02576   0.65965   0.56835   0.00000  Uiso   1.00
C945   C     0.02376   0.60637   0.58268   0.00000  Uiso   1.00
C946   C     0.21236   0.89654   0.49279   0.00000  Uiso   1.00
C947   C     0.48167   0.58178   0.56342   0.00000  Uiso   1.00
C948   C     0.09713   0.86546   0.51257   0.00000  Uiso   1.00
C949   C     0.11511   0.85227   0.56405   0.00000  Uiso   1.00
C950   C     0.37879   0.62885   0.47752   0.00000  Uiso   1.00
C951   C     0.35205   0.59016   0.45044   0.00000  Uiso   1.00
C952   C     0.38448   0.83706   0.42607   0.00000  Uiso   1.00
C953   C     0.37116   0.88680   0.40782   0.00000  Uiso   1.00
C954   C     0.11286   0.63853   0.45807   0.00000  Uiso   1.00
C955   C     0.11700   0.58436   0.46438   0.00000  Uiso   1.00
C956   C     0.32139   0.55648   0.61022   0.00000  Uiso   1.00
C957   C     0.23233   0.60262   0.46249   0.00000  Uiso   1.00
C958   C     0.34633   0.52160   0.64401   0.00000  Uiso   1.00
C959   C     0.16287   0.97450   0.55488   0.00000  Uiso   1.00
C960   C     0.11700   0.99469   0.56221   0.00000  Uiso   1.00
C961   C     0.24382   0.51557   0.39087   0.00000  Uiso   1.00
C962   C     0.22234   0.98354   0.35168   0.00000  Uiso   1.00
C963   C     0.36379   0.96084   0.50370   0.00000  Uiso   1.00
C964   C     0.40379   0.98815   0.52406   0.00000  Uiso   1.00
C965   C     0.28794   0.89463   0.51347   0.00000  Uiso   1.00
C966   C     0.26992   0.55580   0.54460   0.00000  Uiso   1.00
C967   C     0.21149   0.94690   0.50012   0.00000  Uiso   1.00
C968   C     0.23306   0.55181   0.46423   0.00000  Uiso   1.00
Cu969  Cu    0.25000   0.79821   0.50000   0.00000  Uiso   1.00
Cu970  Cu    0.25000   0.70178   0.50000   0.00000  Uiso   1.00
H971   H     0.28169   0.62914   0.56951   0.00000  Uiso   1.00
H972   H     0.08826   0.90568   0.34658   0.00000  Uiso   1.00
H973   H     0.06743   0.90006   0.40782   0.00000  Uiso   1.00
H974   H     0.00773   0.68094   0.38336   0.00000  Uiso   1.00
H975   H     0.45624   0.71208   0.37875   0.00000  Uiso   1.00
H976   H     0.41572   0.63510   0.36781   0.00000  Uiso   1.00
H977   H     0.45716   0.64272   0.65606   0.00000  Uiso   1.00
H978   H     0.00814   0.58899   0.37566   0.00000  Uiso   1.00
H979   H     0.45906   0.55928   0.35192   0.00000  Uiso   1.00
H980   H     0.46231   0.57793   0.41538   0.00000  Uiso   1.00
H981   H     0.01387   0.81774   0.57858   0.00000  Uiso   1.00
H982   H     0.18222   0.87810   0.48383   0.00000  Uiso   1.00
H983   H     0.45870   0.79624   0.58537   0.00000  Uiso   1.00
H984   H     0.43103   0.88183   0.57919   0.00000  Uiso   1.00
H985   H     0.46566   0.86905   0.63223   0.00000  Uiso   1.00
H986   H     0.03011   0.90663   0.59041   0.00000  Uiso   1.00
H987   H     0.48535   0.94800   0.59659   0.00000  Uiso   1.00
H988   H     0.49483   0.92088   0.53758   0.00000  Uiso   1.00
H989   H     0.49713   0.67890   0.58350   0.00000  Uiso   1.00
H990   H     0.05637   0.67496   0.58592   0.00000  Uiso   1.00
H991   H     0.05267   0.58754   0.56780   0.00000  Uiso   1.00
H992   H     0.02570   0.60318   0.62338   0.00000  Uiso   1.00
H993   H     0.21738   0.62057   0.43092   0.00000  Uiso   1.00
H994   H     0.48039   0.54427   0.57768   0.00000  Uiso   1.00
H995   H     0.48122   0.58048   0.52255   0.00000  Uiso   1.00
H996   H     0.45211   0.60125   0.57575   0.00000  Uiso   1.00
H997   H     0.06066   0.86767   0.51283   0.00000  Uiso   1.00
H998   H     0.10859   0.90219   0.50337   0.00000  Uiso   1.00
H999   H     0.10540   0.88010   0.59081   0.00000  Uiso   1.00
H1000  H     0.10153   0.81708   0.57611   0.00000  Uiso   1.00
H1001  H     0.15154   0.85023   0.56434   0.00000  Uiso   1.00
H1002  H     0.36375   0.63554   0.51376   0.00000  Uiso   1.00
H1003  H     0.41279   0.61523   0.48393   0.00000  Uiso   1.00
H1004  H     0.31663   0.87412   0.52423   0.00000  Uiso   1.00
H1005  H     0.37135   0.57497   0.42008   0.00000  Uiso   1.00
H1006  H     0.34313   0.56086   0.47608   0.00000  Uiso   1.00
H1007  H     0.32122   0.60570   0.43460   0.00000  Uiso   1.00
H1008  H     0.35869   0.81114   0.41294   0.00000  Uiso   1.00
H1009  H     0.41614   0.82801   0.40846   0.00000  Uiso   1.00
H1010  H     0.39690   0.91357   0.41851   0.00000  Uiso   1.00
H1011  H     0.36778   0.88657   0.36701   0.00000  Uiso   1.00
H1012  H     0.33896   0.89690   0.42301   0.00000  Uiso   1.00
H1013  H     0.14097   0.65203   0.43649   0.00000  Uiso   1.00
H1014  H     0.08185   0.64507   0.43606   0.00000  Uiso   1.00
H1015  H     0.49174   0.82575   0.37585   0.00000  Uiso   1.00
H1016  H     0.08678   0.56970   0.48116   0.00000  Uiso   1.00
H1017  H     0.12107   0.56713   0.42797   0.00000  Uiso   1.00
H1018  H     0.14597   0.57587   0.48841   0.00000  Uiso   1.00
H1019  H     0.30976   0.58661   0.63331   0.00000  Uiso   1.00
H1020  H     0.34491   0.57035   0.58264   0.00000  Uiso   1.00
H1021  H     0.35767   0.99003   0.62303   0.00000  Uiso   1.00
H1022  H     0.37546   0.54006   0.66093   0.00000  Uiso   1.00
H1023  H     0.32494   0.50872   0.34043   0.00000  Uiso   1.00
H1024  H     0.18702   0.99942   0.57305   0.00000  Uiso   1.00
H1025  H     0.16484   0.93898   0.57398   0.00000  Uiso   1.00
H1026  H     0.02276   0.77205   0.38302   0.00000  Uiso   1.00
H1027  H     0.09248   0.97752   0.53681   0.00000  Uiso   1.00
H1028  H     0.10702   0.98803   0.60070   0.00000  Uiso   1.00
H1029  H     0.11713   0.53411   0.55597   0.00000  Uiso   1.00
H1030  H     0.27248   0.99582   0.40742   0.00000  Uiso   1.00
H1031  H     0.25555   0.54926   0.37293   0.00000  Uiso   1.00
H1032  H     0.19410   0.50254   0.33372   0.00000  Uiso   1.00
H1033  H     0.24655   0.97438   0.65666   0.00000  Uiso   1.00
H1034  H     0.21034   0.94965   0.36873   0.00000  Uiso   1.00
H1035  H     0.35647   0.97370   0.46551   0.00000  Uiso   1.00
H1036  H     0.37277   0.92225   0.50384   0.00000  Uiso   1.00
H1037  H     0.09315   0.82041   0.37652   0.00000  Uiso   1.00
H1038  H     0.41312   0.97408   0.56113   0.00000  Uiso   1.00
H1039  H     0.43196   0.98338   0.49933   0.00000  Uiso   1.00
H1040  H     0.39669   0.52711   0.52720   0.00000  Uiso   1.00
H1041  H     0.05730   0.82627   0.65669   0.00000  Uiso   1.00
H1042  H     0.02963   0.90530   0.35549   0.00000  Uiso   1.00
N1043  N     0.25000   0.62935   0.50000   0.00000  Uiso   1.00
N1044  N     0.25000   0.87065   0.50000   0.00000  Uiso   1.00
O1045  O     0.18573   0.79071   0.50000   0.00000  Uiso   1.00
O1046  O     0.46864   0.66882   0.44289   0.00000  Uiso   1.00
O1047  O     0.47466   0.82860   0.51647   0.00000  Uiso   1.00
O1048  O     0.02448   0.66381   0.51649   0.00000  Uiso   1.00
O1049  O     0.11261   0.83394   0.47591   0.00000  Uiso   1.00
O1050  O     0.37806   0.67101   0.44840   0.00000  Uiso   1.00
O1051  O     0.38883   0.83591   0.47835   0.00000  Uiso   1.00
O1052  O     0.11358   0.66087   0.50495   0.00000  Uiso   1.00
O1053  O     0.28493   0.53260   0.58749   0.00000  Uiso   1.00
O1054  O     0.17134   0.96979   0.50401   0.00000  Uiso   1.00
O1055  O     0.21253   0.52623   0.42658   0.00000  Uiso   1.00
O1056  O     0.31427   0.70929   0.50000   0.00000  Uiso   1.00
O1057  O     0.32764   0.96914   0.53385   0.00000  Uiso   1.00
O1058  O     0.31427   0.79071   0.50000   0.00000  Uiso   1.00
O1059  O     0.18573   0.70928   0.50000   0.00000  Uiso   1.00
O1060  O     0.25000   0.79071   0.42946   0.00000  Uiso   1.00
O1061  O     0.25000   0.70929   0.57054   0.00000  Uiso   1.00
O1062  O     0.25000   0.79071   0.57054   0.00000  Uiso   1.00
O1063  O     0.25000   0.70929   0.42946   0.00000  Uiso   1.00
O1064  O     0.02633   0.82267   0.44165   0.00000  Uiso   1.00
C1065  C     0.66465   0.74970   0.49849   0.00000  Uiso   1.00
C1066  C     0.79011   0.94582   0.51578   0.00000  Uiso   1.00
C1067  C     0.74993   0.75005   0.40686   0.00000  Uiso   1.00
C1068  C     0.75008   0.74995   0.59314   0.00000  Uiso   1.00
C1069  C     0.75148   0.52751   0.50590   0.00000  Uiso   1.00
C1070  C     0.75121   0.97278   0.50785   0.00000  Uiso   1.00
C1071  C     0.75001   0.75007   0.35519   0.00000  Uiso   1.00
C1072  C     0.75005   0.74992   0.64481   0.00000  Uiso   1.00
C1073  C     0.54700   0.78550   0.46716   0.00000  Uiso   1.00
C1074  C     0.94895   0.70726   0.46565   0.00000  Uiso   1.00
C1075  C     0.95222   0.78864   0.49861   0.00000  Uiso   1.00
C1076  C     0.83456   0.74994   0.49517   0.00000  Uiso   1.00
C1077  C     0.54632   0.70522   0.50244   0.00000  Uiso   1.00
C1078  C     0.59184   0.78977   0.47984   0.00000  Uiso   1.00
C1079  C     0.90304   0.70692   0.47086   0.00000  Uiso   1.00
C1080  C     0.90690   0.79176   0.49114   0.00000  Uiso   1.00
C1081  C     0.59239   0.70466   0.50032   0.00000  Uiso   1.00
C1082  C     0.61586   0.74828   0.49362   0.00000  Uiso   1.00
C1083  C     0.88214   0.74918   0.48675   0.00000  Uiso   1.00
C1084  C     0.52304   0.74540   0.48402   0.00000  Uiso   1.00
C1085  C     0.97426   0.74658   0.48376   0.00000  Uiso   1.00
C1086  C     0.52342   0.81150   0.39085   0.00000  Uiso   1.00
C1087  C     0.76845   0.60692   0.54023   0.00000  Uiso   1.00
C1088  C     0.56113   0.83519   0.36305   0.00000  Uiso   1.00
C1089  C     0.56150   0.88994   0.36869   0.00000  Uiso   1.00
C1090  C     0.97224   0.67800   0.39187   0.00000  Uiso   1.00
C1091  C     0.95181   0.63624   0.36243   0.00000  Uiso   1.00
C1092  C     0.97168   0.58768   0.37736   0.00000  Uiso   1.00
C1093  C     0.97895   0.82541   0.56845   0.00000  Uiso   1.00
C1094  C     0.96524   0.87310   0.59152   0.00000  Uiso   1.00
C1095  C     0.99587   0.91460   0.57799   0.00000  Uiso   1.00
C1096  C     0.52576   0.65965   0.56835   0.00000  Uiso   1.00
C1097  C     0.52376   0.60637   0.58268   0.00000  Uiso   1.00
C1098  C     0.71236   0.89654   0.49279   0.00000  Uiso   1.00
C1099  C     0.98167   0.58178   0.56342   0.00000  Uiso   1.00
C1100  C     0.59713   0.86546   0.51257   0.00000  Uiso   1.00
C1101  C     0.61511   0.85227   0.56405   0.00000  Uiso   1.00
C1102  C     0.87879   0.62885   0.47752   0.00000  Uiso   1.00
C1103  C     0.85205   0.59016   0.45044   0.00000  Uiso   1.00
C1104  C     0.88448   0.83706   0.42607   0.00000  Uiso   1.00
C1105  C     0.87116   0.88680   0.40782   0.00000  Uiso   1.00
C1106  C     0.61286   0.63853   0.45807   0.00000  Uiso   1.00
C1107  C     0.61700   0.58436   0.46438   0.00000  Uiso   1.00
C1108  C     0.82139   0.55648   0.61022   0.00000  Uiso   1.00
C1109  C     0.73233   0.60262   0.46249   0.00000  Uiso   1.00
C1110  C     0.84633   0.52160   0.64401   0.00000  Uiso   1.00
C1111  C     0.66287   0.97450   0.55488   0.00000  Uiso   1.00
C1112  C     0.61700   0.99469   0.56221   0.00000  Uiso   1.00
C1113  C     0.74382   0.51557   0.39087   0.00000  Uiso   1.00
C1114  C     0.72234   0.98354   0.35168   0.00000  Uiso   1.00
C1115  C     0.86379   0.96084   0.50370   0.00000  Uiso   1.00
C1116  C     0.90379   0.98815   0.52406   0.00000  Uiso   1.00
C1117  C     0.78794   0.89463   0.51347   0.00000  Uiso   1.00
C1118  C     0.76992   0.55580   0.54460   0.00000  Uiso   1.00
C1119  C     0.71149   0.94690   0.50012   0.00000  Uiso   1.00
C1120  C     0.73306   0.55181   0.46423   0.00000  Uiso   1.00
Cu1121 Cu    0.75000   0.79821   0.50000   0.00000  Uiso   1.00
Cu1122 Cu    0.75000   0.70178   0.50000   0.00000  Uiso   1.00
H1123  H     0.78169   0.62914   0.56951   0.00000  Uiso   1.00
H1124  H     0.58826   0.90568   0.34658   0.00000  Uiso   1.00
H1125  H     0.56743   0.90006   0.40782   0.00000  Uiso   1.00
H1126  H     0.50773   0.68094   0.38336   0.00000  Uiso   1.00
H1127  H     0.95624   0.71208   0.37875   0.00000  Uiso   1.00
H1128  H     0.91572   0.63510   0.36781   0.00000  Uiso   1.00
H1129  H     0.95716   0.64272   0.65606   0.00000  Uiso   1.00
H1130  H     0.50814   0.58899   0.37566   0.00000  Uiso   1.00
H1131  H     0.95906   0.55928   0.35192   0.00000  Uiso   1.00
H1132  H     0.96231   0.57793   0.41538   0.00000  Uiso   1.00
H1133  H     0.51387   0.81774   0.57858   0.00000  Uiso   1.00
H1134  H     0.68222   0.87810   0.48383   0.00000  Uiso   1.00
H1135  H     0.95870   0.79624   0.58537   0.00000  Uiso   1.00
H1136  H     0.93103   0.88183   0.57919   0.00000  Uiso   1.00
H1137  H     0.96566   0.86905   0.63223   0.00000  Uiso   1.00
H1138  H     0.53011   0.90663   0.59041   0.00000  Uiso   1.00
H1139  H     0.98535   0.94800   0.59659   0.00000  Uiso   1.00
H1140  H     0.99483   0.92088   0.53758   0.00000  Uiso   1.00
H1141  H     0.99713   0.67890   0.58350   0.00000  Uiso   1.00
H1142  H     0.55637   0.67496   0.58592   0.00000  Uiso   1.00
H1143  H     0.55267   0.58754   0.56780   0.00000  Uiso   1.00
H1144  H     0.52570   0.60318   0.62338   0.00000  Uiso   1.00
H1145  H     0.71738   0.62057   0.43092   0.00000  Uiso   1.00
H1146  H     0.98039   0.54427   0.57768   0.00000  Uiso   1.00
H1147  H     0.98122   0.58048   0.52255   0.00000  Uiso   1.00
H1148  H     0.95211   0.60125   0.57575   0.00000  Uiso   1.00
H1149  H     0.56066   0.86767   0.51283   0.00000  Uiso   1.00
H1150  H     0.60859   0.90219   0.50337   0.00000  Uiso   1.00
H1151  H     0.60540   0.88010   0.59081   0.00000  Uiso   1.00
H1152  H     0.60153   0.81708   0.57611   0.00000  Uiso   1.00
H1153  H     0.65154   0.85023   0.56434   0.00000  Uiso   1.00
H1154  H     0.86375   0.63554   0.51376   0.00000  Uiso   1.00
H1155  H     0.91279   0.61523   0.48393   0.00000  Uiso   1.00
H1156  H     0.81663   0.87412   0.52423   0.00000  Uiso   1.00
H1157  H     0.87135   0.57497   0.42008   0.00000  Uiso   1.00
H1158  H     0.84313   0.56086   0.47608   0.00000  Uiso   1.00
H1159  H     0.82122   0.60570   0.43460   0.00000  Uiso   1.00
H1160  H     0.85869   0.81114   0.41294   0.00000  Uiso   1.00
H1161  H     0.91614   0.82801   0.40846   0.00000  Uiso   1.00
H1162  H     0.89690   0.91357   0.41851   0.00000  Uiso   1.00
H1163  H     0.86778   0.88657   0.36701   0.00000  Uiso   1.00
H1164  H     0.83896   0.89690   0.42301   0.00000  Uiso   1.00
H1165  H     0.64097   0.65203   0.43649   0.00000  Uiso   1.00
H1166  H     0.58185   0.64507   0.43606   0.00000  Uiso   1.00
H1167  H     0.99174   0.82575   0.37585   0.00000  Uiso   1.00
H1168  H     0.58678   0.56970   0.48116   0.00000  Uiso   1.00
H1169  H     0.62107   0.56713   0.42797   0.00000  Uiso   1.00
H1170  H     0.64597   0.57587   0.48841   0.00000  Uiso   1.00
H1171  H     0.80976   0.58661   0.63331   0.00000  Uiso   1.00
H1172  H     0.84491   0.57035   0.58264   0.00000  Uiso   1.00
H1173  H     0.85767   0.99003   0.62303   0.00000  Uiso   1.00
H1174  H     0.87546   0.54006   0.66093   0.00000  Uiso   1.00
H1175  H     0.82494   0.50872   0.34043   0.00000  Uiso   1.00
H1176  H     0.68702   0.99942   0.57305   0.00000  Uiso   1.00
H1177  H     0.66484   0.93898   0.57398   0.00000  Uiso   1.00
H1178  H     0.52276   0.77205   0.38302   0.00000  Uiso   1.00
H1179  H     0.59248   0.97752   0.53681   0.00000  Uiso   1.00
H1180  H     0.60702   0.98803   0.60070   0.00000  Uiso   1.00
H1181  H     0.61713   0.53411   0.55597   0.00000  Uiso   1.00
H1182  H     0.77248   0.99582   0.40742   0.00000  Uiso   1.00
H1183  H     0.75555   0.54926   0.37293   0.00000  Uiso   1.00
H1184  H     0.69410   0.50254   0.33372   0.00000  Uiso   1.00
H1185  H     0.74655   0.97438   0.65666   0.00000  Uiso   1.00
H1186  H     0.71034   0.94965   0.36873   0.00000  Uiso   1.00
H1187  H     0.85647   0.97370   0.46551   0.00000  Uiso   1.00
H1188  H     0.87277   0.92225   0.50384   0.00000  Uiso   1.00
H1189  H     0.59315   0.82041   0.37652   0.00000  Uiso   1.00
H1190  H     0.91312   0.97408   0.56113   0.00000  Uiso   1.00
H1191  H     0.93196   0.98338   0.49933   0.00000  Uiso   1.00
H1192  H     0.89669   0.52711   0.52720   0.00000  Uiso   1.00
H1193  H     0.55730   0.82627   0.65669   0.00000  Uiso   1.00
H1194  H     0.52963   0.90530   0.35549   0.00000  Uiso   1.00
N1195  N     0.75000   0.62935   0.50000   0.00000  Uiso   1.00
N1196  N     0.75000   0.87065   0.50000   0.00000  Uiso   1.00
O1197  O     0.68573   0.79071   0.50000   0.00000  Uiso   1.00
O1198  O     0.96864   0.66882   0.44289   0.00000  Uiso   1.00
O1199  O     0.97466   0.82860   0.51647   0.00000  Uiso   1.00
O1200  O     0.52448   0.66381   0.51649   0.00000  Uiso   1.00
O1201  O     0.61261   0.83394   0.47591   0.00000  Uiso   1.00
O1202  O     0.87806   0.67101   0.44840   0.00000  Uiso   1.00
O1203  O     0.88883   0.83591   0.47835   0.00000  Uiso   1.00
O1204  O     0.61358   0.66087   0.50495   0.00000  Uiso   1.00
O1205  O     0.78493   0.53260   0.58749   0.00000  Uiso   1.00
O1206  O     0.67134   0.96979   0.50401   0.00000  Uiso   1.00
O1207  O     0.71253   0.52623   0.42658   0.00000  Uiso   1.00
O1208  O     0.81427   0.70929   0.50000   0.00000  Uiso   1.00
O1209  O     0.82764   0.96914   0.53385   0.00000  Uiso   1.00
O1210  O     0.81427   0.79071   0.50000   0.00000  Uiso   1.00
O1211  O     0.68573   0.70928   0.50000   0.00000  Uiso   1.00
O1212  O     0.75000   0.79071   0.42946   0.00000  Uiso   1.00
O1213  O     0.75000   0.70929   0.57054   0.00000  Uiso   1.00
O1214  O     0.75000   0.79071   0.57054   0.00000  Uiso   1.00
O1215  O     0.75000   0.70929   0.42946   0.00000  Uiso   1.00
O1216  O     0.52633   0.82267   0.44165   0.00000  Uiso   1.00
C1217  C     0.16465   0.24970   0.83182   0.00000  Uiso   1.00
C1218  C     0.29011   0.44582   0.84912   0.00000  Uiso   1.00
C1219  C     0.24993   0.25005   0.74019   0.00000  Uiso   1.00
C1220  C     0.25008   0.24995   0.92647   0.00000  Uiso   1.00
C1221  C     0.25148   0.02751   0.83924   0.00000  Uiso   1.00
C1222  C     0.25121   0.47278   0.84118   0.00000  Uiso   1.00
C1223  C     0.25001   0.25007   0.68852   0.00000  Uiso   1.00
C1224  C     0.25005   0.24992   0.97815   0.00000  Uiso   1.00
C1225  C     0.04700   0.28550   0.80049   0.00000  Uiso   1.00
C1226  C     0.44895   0.20726   0.79899   0.00000  Uiso   1.00
C1227  C     0.45222   0.28864   0.83194   0.00000  Uiso   1.00
C1228  C     0.33456   0.24994   0.82851   0.00000  Uiso   1.00
C1229  C     0.04632   0.20522   0.83578   0.00000  Uiso   1.00
C1230  C     0.09184   0.28977   0.81318   0.00000  Uiso   1.00
C1231  C     0.40304   0.20692   0.80419   0.00000  Uiso   1.00
C1232  C     0.40690   0.29176   0.82447   0.00000  Uiso   1.00
C1233  C     0.09239   0.20466   0.83366   0.00000  Uiso   1.00
C1234  C     0.11586   0.24828   0.82695   0.00000  Uiso   1.00
C1235  C     0.38214   0.24918   0.82009   0.00000  Uiso   1.00
C1236  C     0.02304   0.24540   0.81736   0.00000  Uiso   1.00
C1237  C     0.47426   0.24658   0.81710   0.00000  Uiso   1.00
C1238  C     0.02342   0.31150   0.72418   0.00000  Uiso   1.00
C1239  C     0.26845   0.10692   0.87356   0.00000  Uiso   1.00
C1240  C     0.06113   0.33519   0.69638   0.00000  Uiso   1.00
C1241  C     0.06150   0.38994   0.70203   0.00000  Uiso   1.00
C1242  C     0.47224   0.17800   0.72520   0.00000  Uiso   1.00
C1243  C     0.45181   0.13624   0.69577   0.00000  Uiso   1.00
C1244  C     0.47168   0.08768   0.71070   0.00000  Uiso   1.00
C1245  C     0.47895   0.32541   0.90178   0.00000  Uiso   1.00
C1246  C     0.46524   0.37310   0.92485   0.00000  Uiso   1.00
C1247  C     0.49587   0.41460   0.91132   0.00000  Uiso   1.00
C1248  C     0.02576   0.15965   0.90168   0.00000  Uiso   1.00
C1249  C     0.02376   0.10637   0.91602   0.00000  Uiso   1.00
C1250  C     0.21236   0.39654   0.82612   0.00000  Uiso   1.00
C1251  C     0.48167   0.08178   0.89675   0.00000  Uiso   1.00
C1252  C     0.09713   0.36546   0.84590   0.00000  Uiso   1.00
C1253  C     0.11511   0.35227   0.89739   0.00000  Uiso   1.00
C1254  C     0.37879   0.12885   0.81086   0.00000  Uiso   1.00
C1255  C     0.35205   0.09016   0.78378   0.00000  Uiso   1.00
C1256  C     0.38448   0.33706   0.75941   0.00000  Uiso   1.00
C1257  C     0.37116   0.38680   0.74116   0.00000  Uiso   1.00
C1258  C     0.11286   0.13853   0.79140   0.00000  Uiso   1.00
C1259  C     0.11700   0.08436   0.79772   0.00000  Uiso   1.00
C1260  C     0.32139   0.05648   0.94355   0.00000  Uiso   1.00
C1261  C     0.23233   0.10262   0.79582   0.00000  Uiso   1.00
C1262  C     0.34633   0.02160   0.97735   0.00000  Uiso   1.00
C1263  C     0.16287   0.47450   0.88821   0.00000  Uiso   1.00
C1264  C     0.11700   0.49469   0.89555   0.00000  Uiso   1.00
C1265  C     0.24382   0.01557   0.72420   0.00000  Uiso   1.00
C1266  C     0.22234   0.48354   0.68501   0.00000  Uiso   1.00
C1267  C     0.36379   0.46084   0.83703   0.00000  Uiso   1.00
C1268  C     0.40379   0.48815   0.85740   0.00000  Uiso   1.00
C1269  C     0.28794   0.39463   0.84681   0.00000  Uiso   1.00
C1270  C     0.26992   0.05580   0.87793   0.00000  Uiso   1.00
C1271  C     0.21149   0.44690   0.83346   0.00000  Uiso   1.00
C1272  C     0.23306   0.05181   0.79756   0.00000  Uiso   1.00
Cu1273 Cu    0.25000   0.29821   0.83333   0.00000  Uiso   1.00
Cu1274 Cu    0.25000   0.20178   0.83333   0.00000  Uiso   1.00
H1275  H     0.28169   0.12914   0.90285   0.00000  Uiso   1.00
H1276  H     0.08826   0.40568   0.67991   0.00000  Uiso   1.00
H1277  H     0.06743   0.40006   0.74115   0.00000  Uiso   1.00
H1278  H     0.00773   0.18094   0.71669   0.00000  Uiso   1.00
H1279  H     0.45624   0.21208   0.71208   0.00000  Uiso   1.00
H1280  H     0.41572   0.13510   0.70114   0.00000  Uiso   1.00
H1281  H     0.45716   0.14272   0.98939   0.00000  Uiso   1.00
H1282  H     0.00814   0.08899   0.70899   0.00000  Uiso   1.00
H1283  H     0.45906   0.05928   0.68525   0.00000  Uiso   1.00
H1284  H     0.46231   0.07793   0.74872   0.00000  Uiso   1.00
H1285  H     0.01387   0.31774   0.91192   0.00000  Uiso   1.00
H1286  H     0.18222   0.37810   0.81717   0.00000  Uiso   1.00
H1287  H     0.45870   0.29624   0.91871   0.00000  Uiso   1.00
H1288  H     0.43103   0.38183   0.91252   0.00000  Uiso   1.00
H1289  H     0.46566   0.36905   0.96556   0.00000  Uiso   1.00
H1290  H     0.03011   0.40663   0.92374   0.00000  Uiso   1.00
H1291  H     0.48535   0.44800   0.92993   0.00000  Uiso   1.00
H1292  H     0.49483   0.42088   0.87091   0.00000  Uiso   1.00
H1293  H     0.49713   0.17890   0.91683   0.00000  Uiso   1.00
H1294  H     0.05637   0.17496   0.91925   0.00000  Uiso   1.00
H1295  H     0.05267   0.08754   0.90113   0.00000  Uiso   1.00
H1296  H     0.02570   0.10318   0.95672   0.00000  Uiso   1.00
H1297  H     0.21738   0.12057   0.76425   0.00000  Uiso   1.00
H1298  H     0.48039   0.04427   0.91101   0.00000  Uiso   1.00
H1299  H     0.48122   0.08048   0.85589   0.00000  Uiso   1.00
H1300  H     0.45211   0.10125   0.90909   0.00000  Uiso   1.00
H1301  H     0.06066   0.36767   0.84617   0.00000  Uiso   1.00
H1302  H     0.10859   0.40219   0.83671   0.00000  Uiso   1.00
H1303  H     0.10540   0.38010   0.92414   0.00000  Uiso   1.00
H1304  H     0.10153   0.31708   0.90944   0.00000  Uiso   1.00
H1305  H     0.15154   0.35023   0.89767   0.00000  Uiso   1.00
H1306  H     0.36375   0.13554   0.84710   0.00000  Uiso   1.00
H1307  H     0.41279   0.11523   0.81726   0.00000  Uiso   1.00
H1308  H     0.31663   0.37412   0.85757   0.00000  Uiso   1.00
H1309  H     0.37135   0.07497   0.75341   0.00000  Uiso   1.00
H1310  H     0.34313   0.06086   0.80941   0.00000  Uiso   1.00
H1311  H     0.32122   0.10570   0.76794   0.00000  Uiso   1.00
H1312  H     0.35869   0.31114   0.74628   0.00000  Uiso   1.00
H1313  H     0.41614   0.32801   0.74179   0.00000  Uiso   1.00
H1314  H     0.39690   0.41357   0.75184   0.00000  Uiso   1.00
H1315  H     0.36778   0.38657   0.70035   0.00000  Uiso   1.00
H1316  H     0.33896   0.39690   0.75635   0.00000  Uiso   1.00
H1317  H     0.14097   0.15203   0.76982   0.00000  Uiso   1.00
H1318  H     0.08185   0.14507   0.76939   0.00000  Uiso   1.00
H1319  H     0.49174   0.32575   0.70918   0.00000  Uiso   1.00
H1320  H     0.08678   0.06970   0.81449   0.00000  Uiso   1.00
H1321  H     0.12107   0.06713   0.76130   0.00000  Uiso   1.00
H1322  H     0.14597   0.07587   0.82175   0.00000  Uiso   1.00
H1323  H     0.30976   0.08661   0.96665   0.00000  Uiso   1.00
H1324  H     0.34491   0.07035   0.91597   0.00000  Uiso   1.00
H1325  H     0.35767   0.49003   0.95636   0.00000  Uiso   1.00
H1326  H     0.37546   0.04006   0.99427   0.00000  Uiso   1.00
H1327  H     0.32494   0.00872   0.67377   0.00000  Uiso   1.00
H1328  H     0.18702   0.49942   0.90638   0.00000  Uiso   1.00
H1329  H     0.16484   0.43898   0.90732   0.00000  Uiso   1.00
H1330  H     0.02276   0.27205   0.71635   0.00000  Uiso   1.00
H1331  H     0.09248   0.47752   0.87014   0.00000  Uiso   1.00
H1332  H     0.10702   0.48803   0.93403   0.00000  Uiso   1.00
H1333  H     0.11713   0.03411   0.88930   0.00000  Uiso   1.00
H1334  H     0.27248   0.49582   0.74075   0.00000  Uiso   1.00
H1335  H     0.25555   0.04926   0.70626   0.00000  Uiso   1.00
H1336  H     0.19410   0.00254   0.66706   0.00000  Uiso   1.00
H1337  H     0.24655   0.47438   0.98999   0.00000  Uiso   1.00
H1338  H     0.21034   0.44965   0.70206   0.00000  Uiso   1.00
H1339  H     0.35647   0.47370   0.79884   0.00000  Uiso   1.00
H1340  H     0.37277   0.42225   0.83717   0.00000  Uiso   1.00
H1341  H     0.09315   0.32041   0.70986   0.00000  Uiso   1.00
H1342  H     0.41312   0.47408   0.89446   0.00000  Uiso   1.00
H1343  H     0.43196   0.48338   0.83266   0.00000  Uiso   1.00
H1344  H     0.39669   0.02711   0.86054   0.00000  Uiso   1.00
H1345  H     0.05730   0.32627   0.99002   0.00000  Uiso   1.00
H1346  H     0.02963   0.40530   0.68882   0.00000  Uiso   1.00
N1347  N     0.25000   0.12935   0.83333   0.00000  Uiso   1.00
N1348  N     0.25000   0.37065   0.83333   0.00000  Uiso   1.00
O1349  O     0.18573   0.29071   0.83334   0.00000  Uiso   1.00
O1350  O     0.46864   0.16882   0.77623   0.00000  Uiso   1.00
O1351  O     0.47466   0.32860   0.84980   0.00000  Uiso   1.00
O1352  O     0.02448   0.16381   0.84982   0.00000  Uiso   1.00
O1353  O     0.11261   0.33394   0.80924   0.00000  Uiso   1.00
O1354  O     0.37806   0.17101   0.78174   0.00000  Uiso   1.00
O1355  O     0.38883   0.33591   0.81168   0.00000  Uiso   1.00
O1356  O     0.11358   0.16087   0.83829   0.00000  Uiso   1.00
O1357  O     0.28493   0.03260   0.92082   0.00000  Uiso   1.00
O1358  O     0.17134   0.46979   0.83735   0.00000  Uiso   1.00
O1359  O     0.21253   0.02623   0.75991   0.00000  Uiso   1.00
O1360  O     0.31427   0.20929   0.83333   0.00000  Uiso   1.00
O1361  O     0.32764   0.46914   0.86718   0.00000  Uiso   1.00
O1362  O     0.31427   0.29071   0.83333   0.00000  Uiso   1.00
O1363  O     0.18573   0.20928   0.83334   0.00000  Uiso   1.00
O1364  O     0.25000   0.29071   0.76280   0.00000  Uiso   1.00
O1365  O     0.25000   0.20929   0.90387   0.00000  Uiso   1.00
O1366  O     0.25000   0.29071   0.90387   0.00000  Uiso   1.00
O1367  O     0.25000   0.20929   0.76280   0.00000  Uiso   1.00
O1368  O     0.02633   0.32267   0.77498   0.00000  Uiso   1.00
C1369  C     0.66465   0.24970   0.83182   0.00000  Uiso   1.00
C1370  C     0.79011   0.44582   0.84912   0.00000  Uiso   1.00
C1371  C     0.74993   0.25005   0.74019   0.00000  Uiso   1.00
C1372  C     0.75008   0.24995   0.92647   0.00000  Uiso   1.00
C1373  C     0.75148   0.02751   0.83924   0.00000  Uiso   1.00
C1374  C     0.75121   0.47278   0.84118   0.00000  Uiso   1.00
C1375  C     0.75001   0.25007   0.68852   0.00000  Uiso   1.00
C1376  C     0.75005   0.24992   0.97815   0.00000  Uiso   1.00
C1377  C     0.54700   0.28550   0.80049   0.00000  Uiso   1.00
C1378  C     0.94895   0.20726   0.79899   0.00000  Uiso   1.00
C1379  C     0.95222   0.28864   0.83194   0.00000  Uiso   1.00
C1380  C     0.83456   0.24994   0.82851   0.00000  Uiso   1.00
C1381  C     0.54632   0.20522   0.83578   0.00000  Uiso   1.00
C1382  C     0.59184   0.28977   0.81318   0.00000  Uiso   1.00
C1383  C     0.90304   0.20692   0.80419   0.00000  Uiso   1.00
C1384  C     0.90690   0.29176   0.82447   0.00000  Uiso   1.00
C1385  C     0.59239   0.20466   0.83366   0.00000  Uiso   1.00
C1386  C     0.61586   0.24828   0.82695   0.00000  Uiso   1.00
C1387  C     0.88214   0.24918   0.82009   0.00000  Uiso   1.00
C1388  C     0.52304   0.24540   0.81736   0.00000  Uiso   1.00
C1389  C     0.97426   0.24658   0.81710   0.00000  Uiso   1.00
C1390  C     0.52342   0.31150   0.72418   0.00000  Uiso   1.00
C1391  C     0.76845   0.10692   0.87356   0.00000  Uiso   1.00
C1392  C     0.56113   0.33519   0.69638   0.00000  Uiso   1.00
C1393  C     0.56150   0.38994   0.70203   0.00000  Uiso   1.00
C1394  C     0.97224   0.17800   0.72520   0.00000  Uiso   1.00
C1395  C     0.95181   0.13624   0.69577   0.00000  Uiso   1.00
C1396  C     0.97168   0.08768   0.71070   0.00000  Uiso   1.00
C1397  C     0.97895   0.32541   0.90178   0.00000  Uiso   1.00
C1398  C     0.96524   0.37310   0.92485   0.00000  Uiso   1.00
C1399  C     0.99587   0.41460   0.91132   0.00000  Uiso   1.00
C1400  C     0.52576   0.15965   0.90168   0.00000  Uiso   1.00
C1401  C     0.52376   0.10637   0.91602   0.00000  Uiso   1.00
C1402  C     0.71236   0.39654   0.82612   0.00000  Uiso   1.00
C1403  C     0.98167   0.08178   0.89675   0.00000  Uiso   1.00
C1404  C     0.59713   0.36546   0.84590   0.00000  Uiso   1.00
C1405  C     0.61511   0.35227   0.89739   0.00000  Uiso   1.00
C1406  C     0.87879   0.12885   0.81086   0.00000  Uiso   1.00
C1407  C     0.85205   0.09016   0.78378   0.00000  Uiso   1.00
C1408  C     0.88448   0.33706   0.75941   0.00000  Uiso   1.00
C1409  C     0.87116   0.38680   0.74116   0.00000  Uiso   1.00
C1410  C     0.61286   0.13853   0.79140   0.00000  Uiso   1.00
C1411  C     0.61700   0.08436   0.79772   0.00000  Uiso   1.00
C1412  C     0.82139   0.05648   0.94355   0.00000  Uiso   1.00
C1413  C     0.73233   0.10262   0.79582   0.00000  Uiso   1.00
C1414  C     0.84633   0.02160   0.97735   0.00000  Uiso   1.00
C1415  C     0.66287   0.47450   0.88821   0.00000  Uiso   1.00
C1416  C     0.61700   0.49469   0.89555   0.00000  Uiso   1.00
C1417  C     0.74382   0.01557   0.72420   0.00000  Uiso   1.00
C1418  C     0.72234   0.48354   0.68501   0.00000  Uiso   1.00
C1419  C     0.86379   0.46084   0.83703   0.00000  Uiso   1.00
C1420  C     0.90379   0.48815   0.85740   0.00000  Uiso   1.00
C1421  C     0.78794   0.39463   0.84681   0.00000  Uiso   1.00
C1422  C     0.76992   0.05580   0.87793   0.00000  Uiso   1.00
C1423  C     0.71149   0.44690   0.83346   0.00000  Uiso   1.00
C1424  C     0.73306   0.05181   0.79756   0.00000  Uiso   1.00
Cu1425 Cu    0.75000   0.29821   0.83333   0.00000  Uiso   1.00
Cu1426 Cu    0.75000   0.20178   0.83333   0.00000  Uiso   1.00
H1427  H     0.78169   0.12914   0.90285   0.00000  Uiso   1.00
H1428  H     0.58826   0.40568   0.67991   0.00000  Uiso   1.00
H1429  H     0.56743   0.40006   0.74115   0.00000  Uiso   1.00
H1430  H     0.50773   0.18094   0.71669   0.00000  Uiso   1.00
H1431  H     0.95624   0.21208   0.71208   0.00000  Uiso   1.00
H1432  H     0.91572   0.13510   0.70114   0.00000  Uiso   1.00
H1433  H     0.95716   0.14272   0.98939   0.00000  Uiso   1.00
H1434  H     0.50814   0.08899   0.70899   0.00000  Uiso   1.00
H1435  H     0.95906   0.05928   0.68525   0.00000  Uiso   1.00
H1436  H     0.96231   0.07793   0.74872   0.00000  Uiso   1.00
H1437  H     0.51387   0.31774   0.91192   0.00000  Uiso   1.00
H1438  H     0.68222   0.37810   0.81717   0.00000  Uiso   1.00
H1439  H     0.95870   0.29624   0.91871   0.00000  Uiso   1.00
H1440  H     0.93103   0.38183   0.91252   0.00000  Uiso   1.00
H1441  H     0.96566   0.36905   0.96556   0.00000  Uiso   1.00
H1442  H     0.53011   0.40663   0.92374   0.00000  Uiso   1.00
H1443  H     0.98535   0.44800   0.92993   0.00000  Uiso   1.00
H1444  H     0.99483   0.42088   0.87091   0.00000  Uiso   1.00
H1445  H     0.99713   0.17890   0.91683   0.00000  Uiso   1.00
H1446  H     0.55637   0.17496   0.91925   0.00000  Uiso   1.00
H1447  H     0.55267   0.08754   0.90113   0.00000  Uiso   1.00
H1448  H     0.52570   0.10318   0.95672   0.00000  Uiso   1.00
H1449  H     0.71738   0.12057   0.76425   0.00000  Uiso   1.00
H1450  H     0.98039   0.04427   0.91101   0.00000  Uiso   1.00
H1451  H     0.98122   0.08048   0.85589   0.00000  Uiso   1.00
H1452  H     0.95211   0.10125   0.90909   0.00000  Uiso   1.00
H1453  H     0.56066   0.36767   0.84617   0.00000  Uiso   1.00
H1454  H     0.60859   0.40219   0.83671   0.00000  Uiso   1.00
H1455  H     0.60540   0.38010   0.92414   0.00000  Uiso   1.00
H1456  H     0.60153   0.31708   0.90944   0.00000  Uiso   1.00
H1457  H     0.65154   0.35023   0.89767   0.00000  Uiso   1.00
H1458  H     0.86375   0.13554   0.84710   0.00000  Uiso   1.00
H1459  H     0.91279   0.11523   0.81726   0.00000  Uiso   1.00
H1460  H     0.81663   0.37412   0.85757   0.00000  Uiso   1.00
H1461  H     0.87135   0.07497   0.75341   0.00000  Uiso   1.00
H1462  H     0.84313   0.06086   0.80941   0.00000  Uiso   1.00
H1463  H     0.82122   0.10570   0.76794   0.00000  Uiso   1.00
H1464  H     0.85869   0.31114   0.74628   0.00000  Uiso   1.00
H1465  H     0.91614   0.32801   0.74179   0.00000  Uiso   1.00
H1466  H     0.89690   0.41357   0.75184   0.00000  Uiso   1.00
H1467  H     0.86778   0.38657   0.70035   0.00000  Uiso   1.00
H1468  H     0.83896   0.39690   0.75635   0.00000  Uiso   1.00
H1469  H     0.64097   0.15203   0.76982   0.00000  Uiso   1.00
H1470  H     0.58185   0.14507   0.76939   0.00000  Uiso   1.00
H1471  H     0.99174   0.32575   0.70918   0.00000  Uiso   1.00
H1472  H     0.58678   0.06970   0.81449   0.00000  Uiso   1.00
H1473  H     0.62107   0.06713   0.76130   0.00000  Uiso   1.00
H1474  H     0.64597   0.07587   0.82175   0.00000  Uiso   1.00
H1475  H     0.80976   0.08661   0.96665   0.00000  Uiso   1.00
H1476  H     0.84491   0.07035   0.91597   0.00000  Uiso   1.00
H1477  H     0.85767   0.49003   0.95636   0.00000  Uiso   1.00
H1478  H     0.87546   0.04006   0.99427   0.00000  Uiso   1.00
H1479  H     0.82494   0.00872   0.67377   0.00000  Uiso   1.00
H1480  H     0.68702   0.49942   0.90638   0.00000  Uiso   1.00
H1481  H     0.66484   0.43898   0.90732   0.00000  Uiso   1.00
H1482  H     0.52276   0.27205   0.71635   0.00000  Uiso   1.00
H1483  H     0.59248   0.47752   0.87014   0.00000  Uiso   1.00
H1484  H     0.60702   0.48803   0.93403   0.00000  Uiso   1.00
H1485  H     0.61713   0.03411   0.88930   0.00000  Uiso   1.00
H1486  H     0.77248   0.49582   0.74075   0.00000  Uiso   1.00
H1487  H     0.75555   0.04926   0.70626   0.00000  Uiso   1.00
H1488  H     0.69410   0.00254   0.66706   0.00000  Uiso   1.00
H1489  H     0.74655   0.47438   0.98999   0.00000  Uiso   1.00
H1490  H     0.71034   0.44965   0.70206   0.00000  Uiso   1.00
H1491  H     0.85647   0.47370   0.79884   0.00000  Uiso   1.00
H1492  H     0.87277   0.42225   0.83717   0.00000  Uiso   1.00
H1493  H     0.59315   0.32041   0.70986   0.00000  Uiso   1.00
H1494  H     0.91312   0.47408   0.89446   0.00000  Uiso   1.00
H1495  H     0.93196   0.48338   0.83266   0.00000  Uiso   1.00
H1496  H     0.89669   0.02711   0.86054   0.00000  Uiso   1.00
H1497  H     0.55730   0.32627   0.99002   0.00000  Uiso   1.00
H1498  H     0.52963   0.40530   0.68882   0.00000  Uiso   1.00
N1499  N     0.75000   0.12935   0.83333   0.00000  Uiso   1.00
N1500  N     0.75000   0.37065   0.83333   0.00000  Uiso   1.00
O1501  O     0.68573   0.29071   0.83334   0.00000  Uiso   1.00
O1502  O     0.96864   0.16882   0.77623   0.00000  Uiso   1.00
O1503  O     0.97466   0.32860   0.84980   0.00000  Uiso   1.00
O1504  O     0.52448   0.16381   0.84982   0.00000  Uiso   1.00
O1505  O     0.61261   0.33394   0.80924   0.00000  Uiso   1.00
O1506  O     0.87806   0.17101   0.78174   0.00000  Uiso   1.00
O1507  O     0.88883   0.33591   0.81168   0.00000  Uiso   1.00
O1508  O     0.61358   0.16087   0.83829   0.00000  Uiso   1.00
O1509  O     0.78493   0.03260   0.92082   0.00000  Uiso   1.00
O1510  O     0.67134   0.46979   0.83735   0.00000  Uiso   1.00
O1511  O     0.71253   0.02623   0.75991   0.00000  Uiso   1.00
O1512  O     0.81427   0.20929   0.83333   0.00000  Uiso   1.00
O1513  O     0.82764   0.46914   0.86718   0.00000  Uiso   1.00
O1514  O     0.81427   0.29071   0.83333   0.00000  Uiso   1.00
O1515  O     0.68573   0.20928   0.83334   0.00000  Uiso   1.00
O1516  O     0.75000   0.29071   0.76280   0.00000  Uiso   1.00
O1517  O     0.75000   0.20929   0.90387   0.00000  Uiso   1.00
O1518  O     0.75000   0.29071   0.90387   0.00000  Uiso   1.00
O1519  O     0.75000   0.20929   0.76280   0.00000  Uiso   1.00
O1520  O     0.52633   0.32267   0.77498   0.00000  Uiso   1.00
C1521  C     0.16465   0.74970   0.83182   0.00000  Uiso   1.00
C1522  C     0.29011   0.94582   0.84912   0.00000  Uiso   1.00
C1523  C     0.24993   0.75005   0.74019   0.00000  Uiso   1.00
C1524  C     0.25008   0.74995   0.92647   0.00000  Uiso   1.00
C1525  C     0.25148   0.52751   0.83924   0.00000  Uiso   1.00
C1526  C     0.25121   0.97278   0.84118   0.00000  Uiso   1.00
C1527  C     0.25001   0.75007   0.68852   0.00000  Uiso   1.00
C1528  C     0.25005   0.74992   0.97815   0.00000  Uiso   1.00
C1529  C     0.04700   0.78550   0.80049   0.00000  Uiso   1.00
C1530  C     0.44895   0.70726   0.79899   0.00000  Uiso   1.00
C1531  C     0.45222   0.78864   0.83194   0.00000  Uiso   1.00
C1532  C     0.33456   0.74994   0.82851   0.00000  Uiso   1.00
C1533  C     0.04632   0.70522   0.83578   0.00000  Uiso   1.00
C1534  C     0.09184   0.78977   0.81318   0.00000  Uiso   1.00
C1535  C     0.40304   0.70692   0.80419   0.00000  Uiso   1.00
C1536  C     0.40690   0.79176   0.82447   0.00000  Uiso   1.00
C1537  C     0.09239   0.70466   0.83366   0.00000  Uiso   1.00
C1538  C     0.11586   0.74828   0.82695   0.00000  Uiso   1.00
C1539  C     0.38214   0.74918   0.82009   0.00000  Uiso   1.00
C1540  C     0.02304   0.74540   0.81736   0.00000  Uiso   1.00
C1541  C     0.47426   0.74658   0.81710   0.00000  Uiso   1.00
C1542  C     0.02342   0.81150   0.72418   0.00000  Uiso   1.00
C1543  C     0.26845   0.60692   0.87356   0.00000  Uiso   1.00
C1544  C     0.06113   0.83519   0.69638   0.00000  Uiso   1.00
C1545  C     0.06150   0.88994   0.70203   0.00000  Uiso   1.00
C1546  C     0.47224   0.67800   0.72520   0.00000  Uiso   1.00
C1547  C     0.45181   0.63624   0.69577   0.00000  Uiso   1.00
C1548  C     0.47168   0.58768   0.71070   0.00000  Uiso   1.00
C1549  C     0.47895   0.82541   0.90178   0.00000  Uiso   1.00
C1550  C     0.46524   0.87310   0.92485   0.00000  Uiso   1.00
C1551  C     0.49587   0.91460   0.91132   0.00000  Uiso   1.00
C1552  C     0.02576   0.65965   0.90168   0.00000  Uiso   1.00
C1553  C     0.02376   0.60637   0.91602   0.00000  Uiso   1.00
C1554  C     0.21236   0.89654   0.82612   0.00000  Uiso   1.00
C1555  C     0.48167   0.58178   0.89675   0.00000  Uiso   1.00
C1556  C     0.09713   0.86546   0.84590   0.00000  Uiso   1.00
C1557  C     0.11511   0.85227   0.89739   0.00000  Uiso   1.00
C1558  C     0.37879   0.62885   0.81086   0.00000  Uiso   1.00
C1559  C     0.35205   0.59016   0.78378   0.00000  Uiso   1.00
C1560  C     0.38448   0.83706   0.75941   0.00000  Uiso   1.00
C1561  C     0.37116   0.88680   0.74116   0.00000  Uiso   1.00
C1562  C     0.11286   0.63853   0.79140   0.00000  Uiso   1.00
C1563  C     0.11700   0.58436   0.79772   0.00000  Uiso   1.00
C1564  C     0.32139   0.55648   0.94355   0.00000  Uiso   1.00
C1565  C     0.23233   0.60262   0.79582   0.00000  Uiso   1.00
C1566  C     0.34633   0.52160   0.97735   0.00000  Uiso   1.00
C1567  C     0.16287   0.97450   0.88821   0.00000  Uiso   1.00
C1568  C     0.11700   0.99469   0.89555   0.00000  Uiso   1.00
C1569  C     0.24382   0.51557   0.72420   0.00000  Uiso   1.00
C1570  C     0.22234   0.98354   0.68501   0.00000  Uiso   1.00
C1571  C     0.36379   0.96084   0.83703   0.00000  Uiso   1.00
C1572  C     0.40379   0.98815   0.85740   0.00000  Uiso   1.00
C1573  C     0.28794   0.89463   0.84681   0.00000  Uiso   1.00
C1574  C     0.26992   0.55580   0.87793   0.00000  Uiso   1.00
C1575  C     0.21149   0.94690   0.83346   0.00000  Uiso   1.00
C1576  C     0.23306   0.55181   0.79756   0.00000  Uiso   1.00
Cu1577 Cu    0.25000   0.79821   0.83333   0.00000  Uiso   1.00
Cu1578 Cu    0.25000   0.70178   0.83333   0.00000  Uiso   1.00
H1579  H     0.28169   0.62914   0.90285   0.00000  Uiso   1.00
H1580  H     0.08826   0.90568   0.67991   0.00000  Uiso   1.00
H1581  H     0.06743   0.90006   0.74115   0.00000  Uiso   1.00
H1582  H     0.00773   0.68094   0.71669   0.00000  Uiso   1.00
H1583  H     0.45624   0.71208   0.71208   0.00000  Uiso   1.00
H1584  H     0.41572   0.63510   0.70114   0.00000  Uiso   1.00
H1585  H     0.45716   0.64272   0.98939   0.00000  Uiso   1.00
H1586  H     0.00814   0.58899   0.70899   0.00000  Uiso   1.00
H1587  H     0.45906   0.55928   0.68525   0.00000  Uiso   1.00
H1588  H     0.46231   0.57793   0.74872   0.00000  Uiso   1.00
H1589  H     0.01387   0.81774   0.91192   0.00000  Uiso   1.00
H1590  H     0.18222   0.87810   0.81717   0.00000  Uiso   1.00
H1591  H     0.45870   0.79624   0.91871   0.00000  Uiso   1.00
H1592  H     0.43103   0.88183   0.91252   0.00000  Uiso   1.00
H1593  H     0.46566   0.86905   0.96556   0.00000  Uiso   1.00
H1594  H     0.03011   0.90663   0.92374   0.00000  Uiso   1.00
H1595  H     0.48535   0.94800   0.92993   0.00000  Uiso   1.00
H1596  H     0.49483   0.92088   0.87091   0.00000  Uiso   1.00
H1597  H     0.49713   0.67890   0.91683   0.00000  Uiso   1.00
H1598  H     0.05637   0.67496   0.91925   0.00000  Uiso   1.00
H1599  H     0.05267   0.58754   0.90113   0.00000  Uiso   1.00
H1600  H     0.02570   0.60318   0.95672   0.00000  Uiso   1.00
H1601  H     0.21738   0.62057   0.76425   0.00000  Uiso   1.00
H1602  H     0.48039   0.54427   0.91101   0.00000  Uiso   1.00
H1603  H     0.48122   0.58048   0.85589   0.00000  Uiso   1.00
H1604  H     0.45211   0.60125   0.90909   0.00000  Uiso   1.00
H1605  H     0.06066   0.86767   0.84617   0.00000  Uiso   1.00
H1606  H     0.10859   0.90219   0.83671   0.00000  Uiso   1.00
H1607  H     0.10540   0.88010   0.92414   0.00000  Uiso   1.00
H1608  H     0.10153   0.81708   0.90944   0.00000  Uiso   1.00
H1609  H     0.15154   0.85023   0.89767   0.00000  Uiso   1.00
H1610  H     0.36375   0.63554   0.84710   0.00000  Uiso   1.00
H1611  H     0.41279   0.61523   0.81726   0.00000  Uiso   1.00
H1612  H     0.31663   0.87412   0.85757   0.00000  Uiso   1.00
H1613  H     0.37135   0.57497   0.75341   0.00000  Uiso   1.00
H1614  H     0.34313   0.56086   0.80941   0.00000  Uiso   1.00
H1615  H     0.32122   0.60570   0.76794   0.00000  Uiso   1.00
H1616  H     0.35869   0.81114   0.74628   0.00000  Uiso   1.00
H1617  H     0.41614   0.82801   0.74179   0.00000  Uiso   1.00
H1618  H     0.39690   0.91357   0.75184   0.00000  Uiso   1.00
H1619  H     0.36778   0.88657   0.70035   0.00000  Uiso   1.00
H1620  H     0.33896   0.89690   0.75635   0.00000  Uiso   1.00
H1621  H     0.14097   0.65203   0.76982   0.00000  Uiso   1.00
H1622  H     0.08185   0.64507   0.76939   0.00000  Uiso   1.00
H1623  H     0.49174   0.82575   0.70918   0.00000  Uiso   1.00
H1624  H     0.08678   0.56970   0.81449   0.00000  Uiso   1.00
H1625  H     0.12107   0.56713   0.76130   0.00000  Uiso   1.00
H1626  H     0.14597   0.57587   0.82175   0.00000  Uiso   1.00
H1627  H     0.30976   0.58661   0.96665   0.00000  Uiso   1.00
H1628  H     0.34491   0.57035   0.91597   0.00000  Uiso   1.00
H1629  H     0.35767   0.99003   0.95636   0.00000  Uiso   1.00
H1630  H     0.37546   0.54006   0.99427   0.00000  Uiso   1.00
H1631  H     0.32494   0.50872   0.67377   0.00000  Uiso   1.00
H1632  H     0.18702   0.99942   0.90638   0.00000  Uiso   1.00
H1633  H     0.16484   0.93898   0.90732   0.00000  Uiso   1.00
H1634  H     0.02276   0.77205   0.71635   0.00000  Uiso   1.00
H1635  H     0.09248   0.97752   0.87014   0.00000  Uiso   1.00
H1636  H     0.10702   0.98803   0.93403   0.00000  Uiso   1.00
H1637  H     0.11713   0.53411   0.88930   0.00000  Uiso   1.00
H1638  H     0.27248   0.99582   0.74075   0.00000  Uiso   1.00
H1639  H     0.25555   0.54926   0.70626   0.00000  Uiso   1.00
H1640  H     0.19410   0.50254   0.66706   0.00000  Uiso   1.00
H1641  H     0.24655   0.97438   0.98999   0.00000  Uiso   1.00
H1642  H     0.21034   0.94965   0.70206   0.00000  Uiso   1.00
H1643  H     0.35647   0.97370   0.79884   0.00000  Uiso   1.00
H1644  H     0.37277   0.92225   0.83717   0.00000  Uiso   1.00
H1645  H     0.09315   0.82041   0.70986   0.00000  Uiso   1.00
H1646  H     0.41312   0.97408   0.89446   0.00000  Uiso   1.00
H1647  H     0.43196   0.98338   0.83266   0.00000  Uiso   1.00
H1648  H     0.39669   0.52711   0.86054   0.00000  Uiso   1.00
H1649  H     0.05730   0.82627   0.99002   0.00000  Uiso   1.00
H1650  H     0.02963   0.90530   0.68882   0.00000  Uiso   1.00
N1651  N     0.25000   0.62935   0.83333   0.00000  Uiso   1.00
N1652  N     0.25000   0.87065   0.83333   0.00000  Uiso   1.00
O1653  O     0.18573   0.79071   0.83334   0.00000  Uiso   1.00
O1654  O     0.46864   0.66882   0.77623   0.00000  Uiso   1.00
O1655  O     0.47466   0.82860   0.84980   0.00000  Uiso   1.00
O1656  O     0.02448   0.66381   0.84982   0.00000  Uiso   1.00
O1657  O     0.11261   0.83394   0.80924   0.00000  Uiso   1.00
O1658  O     0.37806   0.67101   0.78174   0.00000  Uiso   1.00
O1659  O     0.38883   0.83591   0.81168   0.00000  Uiso   1.00
O1660  O     0.11358   0.66087   0.83829   0.00000  Uiso   1.00
O1661  O     0.28493   0.53260   0.92082   0.00000  Uiso   1.00
O1662  O     0.17134   0.96979   0.83735   0.00000  Uiso   1.00
O1663  O     0.21253   0.52623   0.75991   0.00000  Uiso   1.00
O1664  O     0.31427   0.70929   0.83333   0.00000  Uiso   1.00
O1665  O     0.32764   0.96914   0.86718   0.00000  Uiso   1.00
O1666  O     0.31427   0.79071   0.83333   0.00000  Uiso   1.00
O1667  O     0.18573   0.70928   0.83334   0.00000  Uiso   1.00
O1668  O     0.25000   0.79071   0.76280   0.00000  Uiso   1.00
O1669  O     0.25000   0.70929   0.90387   0.00000  Uiso   1.00
O1670  O     0.25000   0.79071   0.90387   0.00000  Uiso   1.00
O1671  O     0.25000   0.70929   0.76280   0.00000  Uiso   1.00
O1672  O     0.02633   0.82267   0.77498   0.00000  Uiso   1.00
C1673  C     0.66465   0.74970   0.83182   0.00000  Uiso   1.00
C1674  C     0.79011   0.94582   0.84912   0.00000  Uiso   1.00
C1675  C     0.74993   0.75005   0.74019   0.00000  Uiso   1.00
C1676  C     0.75008   0.74995   0.92647   0.00000  Uiso   1.00
C1677  C     0.75148   0.52751   0.83924   0.00000  Uiso   1.00
C1678  C     0.75121   0.97278   0.84118   0.00000  Uiso   1.00
C1679  C     0.75001   0.75007   0.68852   0.00000  Uiso   1.00
C1680  C     0.75005   0.74992   0.97815   0.00000  Uiso   1.00
C1681  C     0.54700   0.78550   0.80049   0.00000  Uiso   1.00
C1682  C     0.94895   0.70726   0.79899   0.00000  Uiso   1.00
C1683  C     0.95222   0.78864   0.83194   0.00000  Uiso   1.00
C1684  C     0.83456   0.74994   0.82851   0.00000  Uiso   1.00
C1685  C     0.54632   0.70522   0.83578   0.00000  Uiso   1.00
C1686  C     0.59184   0.78977   0.81318   0.00000  Uiso   1.00
C1687  C     0.90304   0.70692   0.80419   0.00000  Uiso   1.00
C1688  C     0.90690   0.79176   0.82447   0.00000  Uiso   1.00
C1689  C     0.59239   0.70466   0.83366   0.00000  Uiso   1.00
C1690  C     0.61586   0.74828   0.82695   0.00000  Uiso   1.00
C1691  C     0.88214   0.74918   0.82009   0.00000  Uiso   1.00
C1692  C     0.52304   0.74540   0.81736   0.00000  Uiso   1.00
C1693  C     0.97426   0.74658   0.81710   0.00000  Uiso   1.00
C1694  C     0.52342   0.81150   0.72418   0.00000  Uiso   1.00
C1695  C     0.76845   0.60692   0.87356   0.00000  Uiso   1.00
C1696  C     0.56113   0.83519   0.69638   0.00000  Uiso   1.00
C1697  C     0.56150   0.88994   0.70203   0.00000  Uiso   1.00
C1698  C     0.97224   0.67800   0.72520   0.00000  Uiso   1.00
C1699  C     0.95181   0.63624   0.69577   0.00000  Uiso   1.00
C1700  C     0.97168   0.58768   0.71070   0.00000  Uiso   1.00
C1701  C     0.97895   0.82541   0.90178   0.00000  Uiso   1.00
C1702  C     0.96524   0.87310   0.92485   0.00000  Uiso   1.00
C1703  C     0.99587   0.91460   0.91132   0.00000  Uiso   1.00
C1704  C     0.52576   0.65965   0.90168   0.00000  Uiso   1.00
C1705  C     0.52376   0.60637   0.91602   0.00000  Uiso   1.00
C1706  C     0.71236   0.89654   0.82612   0.00000  Uiso   1.00
C1707  C     0.98167   0.58178   0.89675   0.00000  Uiso   1.00
C1708  C     0.59713   0.86546   0.84590   0.00000  Uiso   1.00
C1709  C     0.61511   0.85227   0.89739   0.00000  Uiso   1.00
C1710  C     0.87879   0.62885   0.81086   0.00000  Uiso   1.00
C1711  C     0.85205   0.59016   0.78378   0.00000  Uiso   1.00
C1712  C     0.88448   0.83706   0.75941   0.00000  Uiso   1.00
C1713  C     0.87116   0.88680   0.74116   0.00000  Uiso   1.00
C1714  C     0.61286   0.63853   0.79140   0.00000  Uiso   1.00
C1715  C     0.61700   0.58436   0.79772   0.00000  Uiso   1.00
C1716  C     0.82139   0.55648   0.94355   0.00000  Uiso   1.00
C1717  C     0.73233   0.60262   0.79582   0.00000  Uiso   1.00
C1718  C     0.84633   0.52160   0.97735   0.00000  Uiso   1.00
C1719  C     0.66287   0.97450   0.88821   0.00000  Uiso   1.00
C1720  C     0.61700   0.99469   0.89555   0.00000  Uiso   1.00
C1721  C     0.74382   0.51557   0.72420   0.00000  Uiso   1.00
C1722  C     0.72234   0.98354   0.68501   0.00000  Uiso   1.00
C1723  C     0.86379   0.96084   0.83703   0.00000  Uiso   1.00
C1724  C     0.90379   0.98815   0.85740   0.00000  Uiso   1.00
C1725  C     0.78794   0.89463   0.84681   0.00000  Uiso   1.00
C1726  C     0.76992   0.55580   0.87793   0.00000  Uiso   1.00
C1727  C     0.71149   0.94690   0.83346   0.00000  Uiso   1.00
C1728  C     0.73306   0.55181   0.79756   0.00000  Uiso   1.00
Cu1729 Cu    0.75000   0.79821   0.83333   0.00000  Uiso   1.00
Cu1730 Cu    0.75000   0.70178   0.83333   0.00000  Uiso   1.00
H1731  H     0.78169   0.62914   0.90285   0.00000  Uiso   1.00
H1732  H     0.58826   0.90568   0.67991   0.00000  Uiso   1.00
H1733  H     0.56743   0.90006   0.74115   0.00000  Uiso   1.00
H1734  H     0.50773   0.68094   0.71669   0.00000  Uiso   1.00
H1735  H     0.95624   0.71208   0.71208   0.00000  Uiso   1.00
H1736  H     0.91572   0.63510   0.70114   0.00000  Uiso   1.00
H1737  H     0.95716   0.64272   0.98939   0.00000  Uiso   1.00
H1738  H     0.50814   0.58899   0.70899   0.00000  Uiso   1.00
H1739  H     0.95906   0.55928   0.68525   0.00000  Uiso   1.00
H1740  H     0.96231   0.57793   0.74872   0.00000  Uiso   1.00
H1741  H     0.51387   0.81774   0.91192   0.00000  Uiso   1.00
H1742  H     0.68222   0.87810   0.81717   0.00000  Uiso   1.00
H1743  H     0.95870   0.79624   0.91871   0.00000  Uiso   1.00
H1744  H     0.93103   0.88183   0.91252   0.00000  Uiso   1.00
H1745  H     0.96566   0.86905   0.96556   0.00000  Uiso   1.00
H1746  H     0.53011   0.90663   0.92374   0.00000  Uiso   1.00
H1747  H     0.98535   0.94800   0.92993   0.00000  Uiso   1.00
H1748  H     0.99483   0.92088   0.87091   0.00000  Uiso   1.00
H1749  H     0.99713   0.67890   0.91683   0.00000  Uiso   1.00
H1750  H     0.55637   0.67496   0.91925   0.00000  Uiso   1.00
H1751  H     0.55267   0.58754   0.90113   0.00000  Uiso   1.00
H1752  H     0.52570   0.60318   0.95672   0.00000  Uiso   1.00
H1753  H     0.71738   0.62057   0.76425   0.00000  Uiso   1.00
H1754  H     0.98039   0.54427   0.91101   0.00000  Uiso   1.00
H1755  H     0.98122   0.58048   0.85589   0.00000  Uiso   1.00
H1756  H     0.95211   0.60125   0.90909   0.00000  Uiso   1.00
H1757  H     0.56066   0.86767   0.84617   0.00000  Uiso   1.00
H1758  H     0.60859   0.90219   0.83671   0.00000  Uiso   1.00
H1759  H     0.60540   0.88010   0.92414   0.00000  Uiso   1.00
H1760  H     0.60153   0.81708   0.90944   0.00000  Uiso   1.00
H1761  H     0.65154   0.85023   0.89767   0.00000  Uiso   1.00
H1762  H     0.86375   0.63554   0.84710   0.00000  Uiso   1.00
H1763  H     0.91279   0.61523   0.81726   0.00000  Uiso   1.00
H1764  H     0.81663   0.87412   0.85757   0.00000  Uiso   1.00
H1765  H     0.87135   0.57497   0.75341   0.00000  Uiso   1.00
H1766  H     0.84313   0.56086   0.80941   0.00000  Uiso   1.00
H1767  H     0.82122   0.60570   0.76794   0.00000  Uiso   1.00
H1768  H     0.85869   0.81114   0.74628   0.00000  Uiso   1.00
H1769  H     0.91614   0.82801   0.74179   0.00000  Uiso   1.00
H1770  H     0.89690   0.91357   0.75184   0.00000  Uiso   1.00
H1771  H     0.86778   0.88657   0.70035   0.00000  Uiso   1.00
H1772  H     0.83896   0.89690   0.75635   0.00000  Uiso   1.00
H1773  H     0.64097   0.65203   0.76982   0.00000  Uiso   1.00
H1774  H     0.58185   0.64507   0.76939   0.00000  Uiso   1.00
H1775  H     0.99174   0.82575   0.70918   0.00000  Uiso   1.00
H1776  H     0.58678   0.56970   0.81449   0.00000  Uiso   1.00
H1777  H     0.62107   0.56713   0.76130   0.00000  Uiso   1.00
H1778  H     0.64597   0.57587   0.82175   0.00000  Uiso   1.00
H1779  H     0.80976   0.58661   0.96665   0.00000  Uiso   1.00
H1780  H     0.84491   0.57035   0.91597   0.00000  Uiso   1.00
H1781  H     0.85767   0.99003   0.95636   0.00000  Uiso   1.00
H1782  H     0.87546   0.54006   0.99427   0.00000  Uiso   1.00
H1783  H     0.82494   0.50872   0.67377   0.00000  Uiso   1.00
H1784  H     0.68702   0.99942   0.90638   0.00000  Uiso   1.00
H1785  H     0.66484   0.93898   0.90732   0.00000  Uiso   1.00
H1786  H     0.52276   0.77205   0.71635   0.00000  Uiso   1.00
H1787  H     0.59248   0.97752   0.87014   0.00000  Uiso   1.00
H1788  H     0.60702   0.98803   0.93403   0.00000  Uiso   1.00
H1789  H     0.61713   0.53411   0.88930   0.00000  Uiso   1.00
H1790  H     0.77248   0.99582   0.74075   0.00000  Uiso   1.00
H1791  H     0.75555   0.54926   0.70626   0.00000  Uiso   1.00
H1792  H     0.69410   0.50254   0.66706   0.00000  Uiso   1.00
H1793  H     0.74655   0.97438   0.98999   0.00000  Uiso   1.00
H1794  H     0.71034   0.94965   0.70206   0.00000  Uiso   1.00
H1795  H     0.85647   0.97370   0.79884   0.00000  Uiso   1.00
H1796  H     0.87277   0.92225   0.83717   0.00000  Uiso   1.00
H1797  H     0.59315   0.82041   0.70986   0.00000  Uiso   1.00
H1798  H     0.91312   0.97408   0.89446   0.00000  Uiso   1.00
H1799  H     0.93196   0.98338   0.83266   0.00000  Uiso   1.00
H1800  H     0.89669   0.52711   0.86054   0.00000  Uiso   1.00
H1801  H     0.55730   0.82627   0.99002   0.00000  Uiso   1.00
H1802  H     0.52963   0.90530   0.68882   0.00000  Uiso   1.00
N1803  N     0.75000   0.62935   0.83333   0.00000  Uiso   1.00
N1804  N     0.75000   0.87065   0.83333   0.00000  Uiso   1.00
O1805  O     0.68573   0.79071   0.83334   0.00000  Uiso   1.00
O1806  O     0.96864   0.66882   0.77623   0.00000  Uiso   1.00
O1807  O     0.97466   0.82860   0.84980   0.00000  Uiso   1.00
O1808  O     0.52448   0.66381   0.84982   0.00000  Uiso   1.00
O1809  O     0.61261   0.83394   0.80924   0.00000  Uiso   1.00
O1810  O     0.87806   0.67101   0.78174   0.00000  Uiso   1.00
O1811  O     0.88883   0.83591   0.81168   0.00000  Uiso   1.00
O1812  O     0.61358   0.66087   0.83829   0.00000  Uiso   1.00
O1813  O     0.78493   0.53260   0.92082   0.00000  Uiso   1.00
O1814  O     0.67134   0.96979   0.83735   0.00000  Uiso   1.00
O1815  O     0.71253   0.52623   0.75991   0.00000  Uiso   1.00
O1816  O     0.81427   0.70929   0.83333   0.00000  Uiso   1.00
O1817  O     0.82764   0.96914   0.86718   0.00000  Uiso   1.00
O1818  O     0.81427   0.79071   0.83333   0.00000  Uiso   1.00
O1819  O     0.68573   0.70928   0.83334   0.00000  Uiso   1.00
O1820  O     0.75000   0.79071   0.76280   0.00000  Uiso   1.00
O1821  O     0.75000   0.70929   0.90387   0.00000  Uiso   1.00
O1822  O     0.75000   0.79071   0.90387   0.00000  Uiso   1.00
O1823  O     0.75000   0.70929   0.76280   0.00000  Uiso   1.00
O1824  O     0.52633   0.82267   0.77498   0.00000  Uiso   1.00
loop_
_geom_bond_atom_site_label_1
_geom_bond_atom_site_label_2
_geom_bond_distance
_geom_bond_site_symmetry_2
_ccdc_geom_bond_type
C1     C18     1.485   .     S
C1     O133    1.303   .     A
C1     O147    1.294   .     A
C2     O145    1.388   .     S
C2     C6      1.413   .     A
C2     C53     1.423   .     A
C3     C7      1.404   .     S
C3     O148    1.287   .     A
C3     O151    1.285   .     A
C4     C8      1.404   .     S
C4     O149    1.286   .     A
C4     O150    1.285   .     A
C5     C56     1.420   .     A
C5     C54     1.416   .     A
C5     C310    1.520   1_545 S
C6     C55     1.413   .     A
C6     C309    1.520   .     S
C7     C1224   1.188   1_554 S
C8     C615    1.188   .     S
C9     O152    1.385   .     S
C9     C14     1.401   .     A
C9     C20     1.408   .     A
C10    C15     1.406   .     A
C10    C21     1.414   .     A
C10    O134    1.382   .     S
C11    C21     1.414   .     A
C11    O135    1.382   .     S
C11    C16     1.390   .     A
C12    O146    1.300   .     A
C12    O144    1.291   .     A
C12    C19     1.470   .     S
C13    O136    1.382   .     S
C13    C20     1.407   .     A
C13    C17     1.403   .     A
C14    C18     1.411   .     A
C14    O137    1.381   .     S
C15    C19     1.411   .     A
C15    O138    1.384   .     S
C16    O139    1.385   .     S
C16    C19     1.401   .     A
C17    C18     1.416   .     A
C17    O140    1.382   .     S
C20    C173    1.483   1_455 S
C21    C172    1.483   .     S
C22    O152    1.416   .     S
C22    H114    1.116   .     S
C22    C24     1.533   .     S
C22    H255    1.110   1_455 S
C23    H59     1.077   .     S
C23    N131    1.365   .     A
C23    C54     1.424   .     A
C24    C25     1.528   .     S
C24    H125    1.111   .     S
C24    H1345   1.110   1_554 S
C25    H60     1.110   .     S
C25    H130    1.110   .     S
C25    H61     1.110   .     S
C26    H63     1.119   .     S
C26    C27     1.530   .     S
C26    O134    1.415   .     S
C26    H214    1.111   .     S
C27    H64     1.110   .     S
C27    C28     1.529   .     S
C27    H1281   1.109   1_554 S
C28    H68     1.111   .     S
C28    H67     1.110   .     S
C28    H218    1.111   .     S
C29    C30     1.531   .     S
C29    O135    1.417   .     S
C29    H71     1.119   .     S
C29    H221    1.111   .     S
C30    C31     1.527   .     S
C30    H73     1.111   .     S
C30    H72     1.112   .     S
C31    H75     1.110   .     S
C31    H76     1.111   .     S
C31    H226    1.109   .     S
C32    O136    1.413   .     S
C32    C33     1.529   .     S
C32    H78     1.117   .     S
C32    H229    1.112   1_455 S
C33    H79     1.111   .     S
C33    H80     1.109   .     S
C33    C187    1.528   1_455 S
C34    H70     1.070   .     S
C34    N132    1.363   .     A
C34    C55     1.413   .     A
C35    H82     1.110   .     S
C35    H83     1.111   .     S
C35    H84     1.110   .     S
C35    C185    1.528   .     S
C36    C37     1.532   .     S
C36    O137    1.419   .     S
C36    H86     1.105   .     S
C36    H85     1.110   .     S
C37    H88     1.110   .     S
C37    H87     1.109   .     S
C37    H89     1.109   .     S
C38    C39     1.523   .     S
C38    H91     1.111   .     S
C38    O138    1.410   .     S
C38    H90     1.113   .     S
C39    H93     1.110   .     S
C39    H94     1.106   .     S
C39    H95     1.109   .     S
C40    O139    1.423   .     S
C40    H96     1.114   .     S
C40    H97     1.116   .     S
C40    C41     1.518   .     S
C41    H99     1.111   .     S
C41    H100    1.110   .     S
C41    H98     1.110   .     S
C42    H102    1.118   .     S
C42    O140    1.418   .     S
C42    C43     1.518   .     S
C42    H101    1.111   .     S
C43    H105    1.110   .     S
C43    H104    1.110   .     S
C43    H106    1.108   .     S
C44    O141    1.417   .     S
C44    C46     1.523   .     S
C44    H108    1.115   .     S
C44    H107    1.112   .     S
C45    C56     1.411   .     A
C45    N131    1.360   .     A
C45    H81     1.081   .     S
C46    H110    1.110   .     S
C46    H413    1.108   1_545 S
C46    H719    1.107   .     S
C47    O142    1.419   .     S
C47    H112    1.113   .     S
C47    C48     1.523   .     S
C47    H113    1.113   .     S
C48    H116    1.111   .     S
C48    H115    1.109   .     S
C48    H421    1.107   .     S
C49    H119    1.114   .     S
C49    O143    1.409   .     S
C49    C354    1.521   1_545 S
C49    H422    1.115   1_545 S
C50    H122    1.111   .     S
C50    C353    1.521   .     S
C50    H424    1.111   .     S
C50    H1337   1.110   1_554 S
C51    H123    1.113   .     S
C51    O145    1.408   .     S
C51    H124    1.107   .     S
C51    C52     1.522   .     S
C52    H127    1.110   .     S
C52    H126    1.109   .     S
C52    H432    1.108   .     S
C53    H92     1.077   .     S
C53    N132    1.370   .     A
C54    O141    1.397   .     S
C55    O142    1.385   .     S
C56    O143    1.381   .     S
Cu57   N132    2.010   .     S
Cu57   O133    1.963   .     S
Cu57   O150    1.927   .     S
Cu57   O148    1.928   .     S
Cu57   Cu58    2.676   .     S
Cu57   O146    1.965   .     S
Cu58   O149    1.928   .     S
Cu58   O147    1.965   .     S
Cu58   N131    2.010   .     S
Cu58   O151    1.927   .     S
Cu58   O144    1.963   .     S
H62    C178    1.111   1_455 S
H65    C635    1.109   .     S
H66    C180    1.111   1_455 S
H69    C181    1.111   1_455 S
H74    C183    1.109   1_455 S
H77    C184    1.112   .     S
H103   C174    1.110   .     S
H109   C350    1.108   .     S
H111   C1262   1.107   1_554 S
H117   C352    1.107   1_545 S
H118   C353    1.115   .     S
H120   C354    1.111   1_545 S
H121   C658    1.110   .     S
H128   C356    1.108   1_545 S
H129   C632    1.110   .     S
C153   C170    1.485   .     S
C153   O285    1.303   .     A
C153   O299    1.294   .     A
C154   O297    1.388   .     S
C154   C158    1.413   .     A
C154   C205    1.423   .     A
C155   C159    1.404   .     S
C155   O300    1.287   .     A
C155   O303    1.285   .     A
C156   C160    1.404   .     S
C156   O301    1.286   .     A
C156   O302    1.285   .     A
C157   C208    1.420   .     A
C157   C206    1.416   .     A
C157   C462    1.520   1_545 S
C158   C207    1.413   .     A
C158   C461    1.520   .     S
C159   C1376   1.188   1_554 S
C160   C767    1.188   .     S
C161   O304    1.385   .     S
C161   C166    1.401   .     A
C161   C172    1.408   .     A
C162   C167    1.406   .     A
C162   C173    1.414   .     A
C162   O286    1.382   .     S
C163   C173    1.414   .     A
C163   O287    1.382   .     S
C163   C168    1.390   .     A
C164   O298    1.300   .     A
C164   O296    1.291   .     A
C164   C171    1.470   .     S
C165   O288    1.382   .     S
C165   C172    1.407   .     A
C165   C169    1.403   .     A
C166   C170    1.411   .     A
C166   O289    1.381   .     S
C167   C171    1.411   .     A
C167   O290    1.384   .     S
C168   O291    1.385   .     S
C168   C171    1.401   .     A
C169   C170    1.416   .     A
C169   O292    1.382   .     S
C173   C20     1.483   1_655 S
C174   O304    1.416   .     S
C174   H266    1.116   .     S
C174   C176    1.533   .     S
C175   H211    1.077   .     S
C175   N283    1.365   .     A
C175   C206    1.424   .     A
C176   C177    1.528   .     S
C176   H277    1.111   .     S
C176   H1497   1.110   1_554 S
C177   H212    1.110   .     S
C177   H282    1.110   .     S
C177   H213    1.110   .     S
C178   H215    1.119   .     S
C178   C179    1.530   .     S
C178   O286    1.415   .     S
C178   H62     1.111   1_655 S
C179   H216    1.110   .     S
C179   C180    1.529   .     S
C179   H1433   1.109   1_554 S
C180   H220    1.111   .     S
C180   H219    1.110   .     S
C180   H66     1.111   1_655 S
C181   C182    1.531   .     S
C181   O287    1.417   .     S
C181   H223    1.119   .     S
C181   H69     1.111   1_655 S
C182   C183    1.527   .     S
C182   H225    1.111   .     S
C182   H224    1.112   .     S
C183   H227    1.110   .     S
C183   H228    1.111   .     S
C183   H74     1.109   1_655 S
C184   O288    1.413   .     S
C184   C185    1.529   .     S
C184   H230    1.117   .     S
C185   H231    1.111   .     S
C185   H232    1.109   .     S
C186   H222    1.070   .     S
C186   N284    1.363   .     A
C186   C207    1.413   .     A
C187   H234    1.110   .     S
C187   H235    1.111   .     S
C187   H236    1.110   .     S
C187   C33     1.528   1_655 S
C188   C189    1.532   .     S
C188   O289    1.419   .     S
C188   H238    1.105   .     S
C188   H237    1.110   .     S
C189   H240    1.110   .     S
C189   H239    1.109   .     S
C189   H241    1.109   .     S
C190   C191    1.523   .     S
C190   H243    1.111   .     S
C190   O290    1.410   .     S
C190   H242    1.113   .     S
C191   H245    1.110   .     S
C191   H246    1.106   .     S
C191   H247    1.109   .     S
C192   O291    1.423   .     S
C192   H248    1.114   .     S
C192   H249    1.116   .     S
C192   C193    1.518   .     S
C193   H251    1.111   .     S
C193   H252    1.110   .     S
C193   H250    1.110   .     S
C194   H254    1.118   .     S
C194   O292    1.418   .     S
C194   C195    1.518   .     S
C194   H253    1.111   .     S
C195   H257    1.110   .     S
C195   H256    1.110   .     S
C195   H258    1.108   .     S
C196   O293    1.417   .     S
C196   C198    1.523   .     S
C196   H260    1.115   .     S
C196   H259    1.112   .     S
C197   C208    1.411   .     A
C197   N283    1.360   .     A
C197   H233    1.081   .     S
C198   H262    1.110   .     S
C198   H565    1.108   1_545 S
C198   H871    1.107   .     S
C199   O294    1.419   .     S
C199   H264    1.113   .     S
C199   C200    1.523   .     S
C199   H265    1.113   .     S
C200   H268    1.111   .     S
C200   H267    1.109   .     S
C200   H573    1.107   .     S
C201   H271    1.114   .     S
C201   O295    1.409   .     S
C201   C506    1.521   1_545 S
C201   H574    1.115   1_545 S
C202   H274    1.111   .     S
C202   C505    1.521   .     S
C202   H576    1.111   .     S
C202   H1489   1.110   1_554 S
C203   H275    1.113   .     S
C203   O297    1.408   .     S
C203   H276    1.107   .     S
C203   C204    1.522   .     S
C204   H279    1.110   .     S
C204   H278    1.109   .     S
C204   H584    1.108   .     S
C205   H244    1.077   .     S
C205   N284    1.370   .     A
C206   O293    1.397   .     S
C207   O294    1.385   .     S
C208   O295    1.381   .     S
Cu209  N284    2.010   .     S
Cu209  O285    1.963   .     S
Cu209  O302    1.927   .     S
Cu209  O300    1.928   .     S
Cu209  Cu210   2.676   .     S
Cu209  O298    1.965   .     S
Cu210  O301    1.928   .     S
Cu210  O299    1.965   .     S
Cu210  N283    2.010   .     S
Cu210  O303    1.927   .     S
Cu210  O296    1.963   .     S
H217   C787    1.109   .     S
H229   C32     1.112   1_655 S
H255   C22     1.110   1_655 S
H261   C502    1.108   .     S
H263   C1414   1.107   1_554 S
H269   C504    1.107   1_545 S
H270   C505    1.115   .     S
H272   C506    1.111   1_545 S
H273   C810    1.110   .     S
H280   C508    1.108   1_545 S
H281   C784    1.110   .     S
C305   C322    1.485   .     S
C305   O437    1.303   .     A
C305   O451    1.294   .     A
C306   O449    1.388   .     S
C306   C310    1.413   .     A
C306   C357    1.423   .     A
C307   C311    1.404   .     S
C307   O452    1.287   .     A
C307   O455    1.285   .     A
C308   C312    1.404   .     S
C308   O453    1.286   .     A
C308   O454    1.285   .     A
C309   C360    1.420   .     A
C309   C358    1.416   .     A
C310   C359    1.413   .     A
C310   C5      1.520   1_565 S
C311   C1528   1.188   1_554 S
C312   C919    1.188   .     S
C313   O456    1.385   .     S
C313   C318    1.401   .     A
C313   C324    1.408   .     A
C314   C319    1.406   .     A
C314   C325    1.414   .     A
C314   O438    1.382   .     S
C315   C325    1.414   .     A
C315   O439    1.382   .     S
C315   C320    1.390   .     A
C316   O450    1.300   .     A
C316   O448    1.291   .     A
C316   C323    1.470   .     S
C317   O440    1.382   .     S
C317   C324    1.407   .     A
C317   C321    1.403   .     A
C318   C322    1.411   .     A
C318   O441    1.381   .     S
C319   C323    1.411   .     A
C319   O442    1.384   .     S
C320   O443    1.385   .     S
C320   C323    1.401   .     A
C321   C322    1.416   .     A
C321   O444    1.382   .     S
C324   C477    1.483   1_455 S
C325   C476    1.483   .     S
C326   O456    1.416   .     S
C326   H418    1.116   .     S
C326   C328    1.533   .     S
C326   H559    1.110   1_455 S
C327   H363    1.077   .     S
C327   N435    1.365   .     A
C327   C358    1.424   .     A
C328   C329    1.528   .     S
C328   H429    1.111   .     S
C328   H1649   1.110   1_554 S
C329   H364    1.110   .     S
C329   H434    1.110   .     S
C329   H365    1.110   .     S
C330   H367    1.119   .     S
C330   C331    1.530   .     S
C330   O438    1.415   .     S
C330   H518    1.111   .     S
C331   H368    1.110   .     S
C331   C332    1.529   .     S
C331   H1585   1.109   1_554 S
C332   H372    1.111   .     S
C332   H371    1.110   .     S
C332   H522    1.111   .     S
C333   C334    1.531   .     S
C333   O439    1.417   .     S
C333   H375    1.119   .     S
C333   H525    1.111   .     S
C334   C335    1.527   .     S
C334   H377    1.111   .     S
C334   H376    1.112   .     S
C335   H379    1.110   .     S
C335   H380    1.111   .     S
C335   H530    1.109   .     S
C336   O440    1.413   .     S
C336   C337    1.529   .     S
C336   H382    1.117   .     S
C336   H533    1.112   1_455 S
C337   H383    1.111   .     S
C337   H384    1.109   .     S
C337   C491    1.528   1_455 S
C338   H374    1.070   .     S
C338   N436    1.363   .     A
C338   C359    1.413   .     A
C339   H386    1.110   .     S
C339   H387    1.111   .     S
C339   H388    1.110   .     S
C339   C489    1.528   .     S
C340   C341    1.532   .     S
C340   O441    1.419   .     S
C340   H390    1.105   .     S
C340   H389    1.110   .     S
C341   H392    1.110   .     S
C341   H391    1.109   .     S
C341   H393    1.109   .     S
C342   C343    1.523   .     S
C342   H395    1.111   .     S
C342   O442    1.410   .     S
C342   H394    1.113   .     S
C343   H397    1.110   .     S
C343   H398    1.106   .     S
C343   H399    1.109   .     S
C344   O443    1.423   .     S
C344   H400    1.114   .     S
C344   H401    1.116   .     S
C344   C345    1.518   .     S
C345   H403    1.111   .     S
C345   H404    1.110   .     S
C345   H402    1.110   .     S
C346   H406    1.118   .     S
C346   O444    1.418   .     S
C346   C347    1.518   .     S
C346   H405    1.111   .     S
C347   H409    1.110   .     S
C347   H408    1.110   .     S
C347   H410    1.108   .     S
C348   O445    1.417   .     S
C348   C350    1.523   .     S
C348   H412    1.115   .     S
C348   H411    1.112   .     S
C349   C360    1.411   .     A
C349   N435    1.360   .     A
C349   H385    1.081   .     S
C350   H414    1.110   .     S
C350   H1023   1.107   .     S
C351   O446    1.419   .     S
C351   H416    1.113   .     S
C351   C352    1.523   .     S
C351   H417    1.113   .     S
C352   H420    1.111   .     S
C352   H419    1.109   .     S
C352   H117    1.107   1_565 S
C353   H423    1.114   .     S
C353   O447    1.409   .     S
C354   H426    1.111   .     S
C354   C49     1.521   1_565 S
C354   H120    1.111   1_565 S
C354   H1641   1.110   1_554 S
C355   H427    1.113   .     S
C355   O449    1.408   .     S
C355   H428    1.107   .     S
C355   C356    1.522   .     S
C356   H431    1.110   .     S
C356   H430    1.109   .     S
C356   H128    1.108   1_565 S
C357   H396    1.077   .     S
C357   N436    1.370   .     A
C358   O445    1.397   .     S
C359   O446    1.385   .     S
C360   O447    1.381   .     S
Cu361  N436    2.010   .     S
Cu361  O437    1.963   .     S
Cu361  O454    1.927   .     S
Cu361  O452    1.928   .     S
Cu361  Cu362   2.676   .     S
Cu361  O450    1.965   .     S
Cu362  O453    1.928   .     S
Cu362  O451    1.965   .     S
Cu362  N435    2.010   .     S
Cu362  O455    1.927   .     S
Cu362  O448    1.963   .     S
H366   C482    1.111   1_455 S
H369   C939    1.109   .     S
H370   C484    1.111   1_455 S
H373   C485    1.111   1_455 S
H378   C487    1.109   1_455 S
H381   C488    1.112   .     S
H407   C478    1.110   .     S
H413   C46     1.108   1_565 S
H415   C1566   1.107   1_554 S
H422   C49     1.115   1_565 S
H425   C962    1.110   .     S
H433   C936    1.110   .     S
C457   C474    1.485   .     S
C457   O589    1.303   .     A
C457   O603    1.294   .     A
C458   O601    1.388   .     S
C458   C462    1.413   .     A
C458   C509    1.423   .     A
C459   C463    1.404   .     S
C459   O604    1.287   .     A
C459   O607    1.285   .     A
C460   C464    1.404   .     S
C460   O605    1.286   .     A
C460   O606    1.285   .     A
C461   C512    1.420   .     A
C461   C510    1.416   .     A
C462   C511    1.413   .     A
C462   C157    1.520   1_565 S
C463   C1680   1.188   1_554 S
C464   C1071   1.188   .     S
C465   O608    1.385   .     S
C465   C470    1.401   .     A
C465   C476    1.408   .     A
C466   C471    1.406   .     A
C466   C477    1.414   .     A
C466   O590    1.382   .     S
C467   C477    1.414   .     A
C467   O591    1.382   .     S
C467   C472    1.390   .     A
C468   O602    1.300   .     A
C468   O600    1.291   .     A
C468   C475    1.470   .     S
C469   O592    1.382   .     S
C469   C476    1.407   .     A
C469   C473    1.403   .     A
C470   C474    1.411   .     A
C470   O593    1.381   .     S
C471   C475    1.411   .     A
C471   O594    1.384   .     S
C472   O595    1.385   .     S
C472   C475    1.401   .     A
C473   C474    1.416   .     A
C473   O596    1.382   .     S
C477   C324    1.483   1_655 S
C478   O608    1.416   .     S
C478   H570    1.116   .     S
C478   C480    1.533   .     S
C479   H515    1.077   .     S
C479   N587    1.365   .     A
C479   C510    1.424   .     A
C480   C481    1.528   .     S
C480   H581    1.111   .     S
C480   H1801   1.110   1_554 S
C481   H516    1.110   .     S
C481   H586    1.110   .     S
C481   H517    1.110   .     S
C482   H519    1.119   .     S
C482   C483    1.530   .     S
C482   O590    1.415   .     S
C482   H366    1.111   1_655 S
C483   H520    1.110   .     S
C483   C484    1.529   .     S
C483   H1737   1.109   1_554 S
C484   H524    1.111   .     S
C484   H523    1.110   .     S
C484   H370    1.111   1_655 S
C485   C486    1.531   .     S
C485   O591    1.417   .     S
C485   H527    1.119   .     S
C485   H373    1.111   1_655 S
C486   C487    1.527   .     S
C486   H529    1.111   .     S
C486   H528    1.112   .     S
C487   H531    1.110   .     S
C487   H532    1.111   .     S
C487   H378    1.109   1_655 S
C488   O592    1.413   .     S
C488   C489    1.529   .     S
C488   H534    1.117   .     S
C489   H535    1.111   .     S
C489   H536    1.109   .     S
C490   H526    1.070   .     S
C490   N588    1.363   .     A
C490   C511    1.413   .     A
C491   H538    1.110   .     S
C491   H539    1.111   .     S
C491   H540    1.110   .     S
C491   C337    1.528   1_655 S
C492   C493    1.532   .     S
C492   O593    1.419   .     S
C492   H542    1.105   .     S
C492   H541    1.110   .     S
C493   H544    1.110   .     S
C493   H543    1.109   .     S
C493   H545    1.109   .     S
C494   C495    1.523   .     S
C494   H547    1.111   .     S
C494   O594    1.410   .     S
C494   H546    1.113   .     S
C495   H549    1.110   .     S
C495   H550    1.106   .     S
C495   H551    1.109   .     S
C496   O595    1.423   .     S
C496   H552    1.114   .     S
C496   H553    1.116   .     S
C496   C497    1.518   .     S
C497   H555    1.111   .     S
C497   H556    1.110   .     S
C497   H554    1.110   .     S
C498   H558    1.118   .     S
C498   O596    1.418   .     S
C498   C499    1.518   .     S
C498   H557    1.111   .     S
C499   H561    1.110   .     S
C499   H560    1.110   .     S
C499   H562    1.108   .     S
C500   O597    1.417   .     S
C500   C502    1.523   .     S
C500   H564    1.115   .     S
C500   H563    1.112   .     S
C501   C512    1.411   .     A
C501   N587    1.360   .     A
C501   H537    1.081   .     S
C502   H566    1.110   .     S
C502   H1175   1.107   .     S
C503   O598    1.419   .     S
C503   H568    1.113   .     S
C503   C504    1.523   .     S
C503   H569    1.113   .     S
C504   H572    1.111   .     S
C504   H571    1.109   .     S
C504   H269    1.107   1_565 S
C505   H575    1.114   .     S
C505   O599    1.409   .     S
C506   H578    1.111   .     S
C506   C201    1.521   1_565 S
C506   H272    1.111   1_565 S
C506   H1793   1.110   1_554 S
C507   H579    1.113   .     S
C507   O601    1.408   .     S
C507   H580    1.107   .     S
C507   C508    1.522   .     S
C508   H583    1.110   .     S
C508   H582    1.109   .     S
C508   H280    1.108   1_565 S
C509   H548    1.077   .     S
C509   N588    1.370   .     A
C510   O597    1.397   .     S
C511   O598    1.385   .     S
C512   O599    1.381   .     S
Cu513  N588    2.010   .     S
Cu513  O589    1.963   .     S
Cu513  O606    1.927   .     S
Cu513  O604    1.928   .     S
Cu513  Cu514   2.676   .     S
Cu513  O602    1.965   .     S
Cu514  O605    1.928   .     S
Cu514  O603    1.965   .     S
Cu514  N587    2.010   .     S
Cu514  O607    1.927   .     S
Cu514  O600    1.963   .     S
H521   C1091   1.109   .     S
H533   C336    1.112   1_655 S
H559   C326    1.110   1_655 S
H565   C198    1.108   1_565 S
H567   C1718   1.107   1_554 S
H574   C201    1.115   1_565 S
H577   C1114   1.110   .     S
H585   C1088   1.110   .     S
C609   C626    1.485   .     S
C609   O741    1.303   .     A
C609   O755    1.294   .     A
C610   O753    1.388   .     S
C610   C614    1.413   .     A
C610   C661    1.423   .     A
C611   C615    1.404   .     S
C611   O756    1.287   .     A
C611   O759    1.285   .     A
C612   C616    1.404   .     S
C612   O757    1.286   .     A
C612   O758    1.285   .     A
C613   C664    1.420   .     A
C613   C662    1.416   .     A
C613   C918    1.520   1_545 S
C614   C663    1.413   .     A
C614   C917    1.520   .     S
C616   C1223   1.188   .     S
C617   O760    1.385   .     S
C617   C622    1.401   .     A
C617   C628    1.408   .     A
C618   C623    1.406   .     A
C618   C629    1.414   .     A
C618   O742    1.382   .     S
C619   C629    1.414   .     A
C619   O743    1.382   .     S
C619   C624    1.390   .     A
C620   O754    1.300   .     A
C620   O752    1.291   .     A
C620   C627    1.470   .     S
C621   O744    1.382   .     S
C621   C628    1.407   .     A
C621   C625    1.403   .     A
C622   C626    1.411   .     A
C622   O745    1.381   .     S
C623   C627    1.411   .     A
C623   O746    1.384   .     S
C624   O747    1.385   .     S
C624   C627    1.401   .     A
C625   C626    1.416   .     A
C625   O748    1.382   .     S
C628   C781    1.483   1_455 S
C629   C780    1.483   .     S
C630   O760    1.416   .     S
C630   H722    1.116   .     S
C630   C632    1.533   .     S
C630   H863    1.110   1_455 S
C631   H667    1.077   .     S
C631   N739    1.365   .     A
C631   C662    1.424   .     A
C632   C633    1.528   .     S
C632   H733    1.111   .     S
C633   H668    1.110   .     S
C633   H738    1.110   .     S
C633   H669    1.110   .     S
C634   H671    1.119   .     S
C634   C635    1.530   .     S
C634   O742    1.415   .     S
C634   H822    1.111   .     S
C635   H672    1.110   .     S
C635   C636    1.529   .     S
C636   H676    1.111   .     S
C636   H675    1.110   .     S
C636   H826    1.111   .     S
C637   C638    1.531   .     S
C637   O743    1.417   .     S
C637   H679    1.119   .     S
C637   H829    1.111   .     S
C638   C639    1.527   .     S
C638   H681    1.111   .     S
C638   H680    1.112   .     S
C639   H683    1.110   .     S
C639   H684    1.111   .     S
C639   H834    1.109   .     S
C640   O744    1.413   .     S
C640   C641    1.529   .     S
C640   H686    1.117   .     S
C640   H837    1.112   1_455 S
C641   H687    1.111   .     S
C641   H688    1.109   .     S
C641   C795    1.528   1_455 S
C642   H678    1.070   .     S
C642   N740    1.363   .     A
C642   C663    1.413   .     A
C643   H690    1.110   .     S
C643   H691    1.111   .     S
C643   H692    1.110   .     S
C643   C793    1.528   .     S
C644   C645    1.532   .     S
C644   O745    1.419   .     S
C644   H694    1.105   .     S
C644   H693    1.110   .     S
C645   H696    1.110   .     S
C645   H695    1.109   .     S
C645   H697    1.109   .     S
C646   C647    1.523   .     S
C646   H699    1.111   .     S
C646   O746    1.410   .     S
C646   H698    1.113   .     S
C647   H701    1.110   .     S
C647   H702    1.106   .     S
C647   H703    1.109   .     S
C648   O747    1.423   .     S
C648   H704    1.114   .     S
C648   H705    1.116   .     S
C648   C649    1.518   .     S
C649   H707    1.111   .     S
C649   H708    1.110   .     S
C649   H706    1.110   .     S
C650   H710    1.118   .     S
C650   O748    1.418   .     S
C650   C651    1.518   .     S
C650   H709    1.111   .     S
C651   H713    1.110   .     S
C651   H712    1.110   .     S
C651   H714    1.108   .     S
C652   O749    1.417   .     S
C652   C654    1.523   .     S
C652   H716    1.115   .     S
C652   H715    1.112   .     S
C653   C664    1.411   .     A
C653   N739    1.360   .     A
C653   H689    1.081   .     S
C654   H718    1.110   .     S
C654   H1021   1.108   1_545 S
C654   H1327   1.107   .     S
C655   O750    1.419   .     S
C655   H720    1.113   .     S
C655   C656    1.523   .     S
C655   H721    1.113   .     S
C656   H724    1.111   .     S
C656   H723    1.109   .     S
C656   H1029   1.107   .     S
C657   H727    1.114   .     S
C657   O751    1.409   .     S
C657   C962    1.521   1_545 S
C657   H1030   1.115   1_545 S
C658   H730    1.111   .     S
C658   C961    1.521   .     S
C658   H1032   1.111   .     S
C659   H731    1.113   .     S
C659   O753    1.408   .     S
C659   H732    1.107   .     S
C659   C660    1.522   .     S
C660   H735    1.110   .     S
C660   H734    1.109   .     S
C660   H1040   1.108   .     S
C661   H700    1.077   .     S
C661   N740    1.370   .     A
C662   O749    1.397   .     S
C663   O750    1.385   .     S
C664   O751    1.381   .     S
Cu665  N740    2.010   .     S
Cu665  O741    1.963   .     S
Cu665  O758    1.927   .     S
Cu665  O756    1.928   .     S
Cu665  Cu666   2.676   .     S
Cu665  O754    1.965   .     S
Cu666  O757    1.928   .     S
Cu666  O755    1.965   .     S
Cu666  N739    2.010   .     S
Cu666  O759    1.927   .     S
Cu666  O752    1.963   .     S
H670   C786    1.111   1_455 S
H673   C1243   1.109   .     S
H674   C788    1.111   1_455 S
H677   C789    1.111   1_455 S
H682   C791    1.109   1_455 S
H685   C792    1.112   .     S
H711   C782    1.110   .     S
H717   C958    1.108   .     S
H725   C960    1.107   1_545 S
H726   C961    1.115   .     S
H728   C962    1.111   1_545 S
H729   C1266   1.110   .     S
H736   C964    1.108   1_545 S
H737   C1240   1.110   .     S
C761   C778    1.485   .     S
C761   O893    1.303   .     A
C761   O907    1.294   .     A
C762   O905    1.388   .     S
C762   C766    1.413   .     A
C762   C813    1.423   .     A
C763   C767    1.404   .     S
C763   O908    1.287   .     A
C763   O911    1.285   .     A
C764   C768    1.404   .     S
C764   O909    1.286   .     A
C764   O910    1.285   .     A
C765   C816    1.420   .     A
C765   C814    1.416   .     A
C765   C1070   1.520   1_545 S
C766   C815    1.413   .     A
C766   C1069   1.520   .     S
C768   C1375   1.188   .     S
C769   O912    1.385   .     S
C769   C774    1.401   .     A
C769   C780    1.408   .     A
C770   C775    1.406   .     A
C770   C781    1.414   .     A
C770   O894    1.382   .     S
C771   C781    1.414   .     A
C771   O895    1.382   .     S
C771   C776    1.390   .     A
C772   O906    1.300   .     A
C772   O904    1.291   .     A
C772   C779    1.470   .     S
C773   O896    1.382   .     S
C773   C780    1.407   .     A
C773   C777    1.403   .     A
C774   C778    1.411   .     A
C774   O897    1.381   .     S
C775   C779    1.411   .     A
C775   O898    1.384   .     S
C776   O899    1.385   .     S
C776   C779    1.401   .     A
C777   C778    1.416   .     A
C777   O900    1.382   .     S
C781   C628    1.483   1_655 S
C782   O912    1.416   .     S
C782   H874    1.116   .     S
C782   C784    1.533   .     S
C783   H819    1.077   .     S
C783   N891    1.365   .     A
C783   C814    1.424   .     A
C784   C785    1.528   .     S
C784   H885    1.111   .     S
C785   H820    1.110   .     S
C785   H890    1.110   .     S
C785   H821    1.110   .     S
C786   H823    1.119   .     S
C786   C787    1.530   .     S
C786   O894    1.415   .     S
C786   H670    1.111   1_655 S
C787   H824    1.110   .     S
C787   C788    1.529   .     S
C788   H828    1.111   .     S
C788   H827    1.110   .     S
C788   H674    1.111   1_655 S
C789   C790    1.531   .     S
C789   O895    1.417   .     S
C789   H831    1.119   .     S
C789   H677    1.111   1_655 S
C790   C791    1.527   .     S
C790   H833    1.111   .     S
C790   H832    1.112   .     S
C791   H835    1.110   .     S
C791   H836    1.111   .     S
C791   H682    1.109   1_655 S
C792   O896    1.413   .     S
C792   C793    1.529   .     S
C792   H838    1.117   .     S
C793   H839    1.111   .     S
C793   H840    1.109   .     S
C794   H830    1.070   .     S
C794   N892    1.363   .     A
C794   C815    1.413   .     A
C795   H842    1.110   .     S
C795   H843    1.111   .     S
C795   H844    1.110   .     S
C795   C641    1.528   1_655 S
C796   C797    1.532   .     S
C796   O897    1.419   .     S
C796   H846    1.105   .     S
C796   H845    1.110   .     S
C797   H848    1.110   .     S
C797   H847    1.109   .     S
C797   H849    1.109   .     S
C798   C799    1.523   .     S
C798   H851    1.111   .     S
C798   O898    1.410   .     S
C798   H850    1.113   .     S
C799   H853    1.110   .     S
C799   H854    1.106   .     S
C799   H855    1.109   .     S
C800   O899    1.423   .     S
C800   H856    1.114   .     S
C800   H857    1.116   .     S
C800   C801    1.518   .     S
C801   H859    1.111   .     S
C801   H860    1.110   .     S
C801   H858    1.110   .     S
C802   H862    1.118   .     S
C802   O900    1.418   .     S
C802   C803    1.518   .     S
C802   H861    1.111   .     S
C803   H865    1.110   .     S
C803   H864    1.110   .     S
C803   H866    1.108   .     S
C804   O901    1.417   .     S
C804   C806    1.523   .     S
C804   H868    1.115   .     S
C804   H867    1.112   .     S
C805   C816    1.411   .     A
C805   N891    1.360   .     A
C805   H841    1.081   .     S
C806   H870    1.110   .     S
C806   H1173   1.108   1_545 S
C806   H1479   1.107   .     S
C807   O902    1.419   .     S
C807   H872    1.113   .     S
C807   C808    1.523   .     S
C807   H873    1.113   .     S
C808   H876    1.111   .     S
C808   H875    1.109   .     S
C808   H1181   1.107   .     S
C809   H879    1.114   .     S
C809   O903    1.409   .     S
C809   C1114   1.521   1_545 S
C809   H1182   1.115   1_545 S
C810   H882    1.111   .     S
C810   C1113   1.521   .     S
C810   H1184   1.111   .     S
C811   H883    1.113   .     S
C811   O905    1.408   .     S
C811   H884    1.107   .     S
C811   C812    1.522   .     S
C812   H887    1.110   .     S
C812   H886    1.109   .     S
C812   H1192   1.108   .     S
C813   H852    1.077   .     S
C813   N892    1.370   .     A
C814   O901    1.397   .     S
C815   O902    1.385   .     S
C816   O903    1.381   .     S
Cu817  N892    2.010   .     S
Cu817  O893    1.963   .     S
Cu817  O910    1.927   .     S
Cu817  O908    1.928   .     S
Cu817  Cu818   2.676   .     S
Cu817  O906    1.965   .     S
Cu818  O909    1.928   .     S
Cu818  O907    1.965   .     S
Cu818  N891    2.010   .     S
Cu818  O911    1.927   .     S
Cu818  O904    1.963   .     S
H825   C1395   1.109   .     S
H837   C640    1.112   1_655 S
H863   C630    1.110   1_655 S
H869   C1110   1.108   .     S
H877   C1112   1.107   1_545 S
H878   C1113   1.115   .     S
H880   C1114   1.111   1_545 S
H881   C1418   1.110   .     S
H888   C1116   1.108   1_545 S
H889   C1392   1.110   .     S
C913   C930    1.485   .     S
C913   O1045   1.303   .     A
C913   O1059   1.294   .     A
C914   O1057   1.388   .     S
C914   C918    1.413   .     A
C914   C965    1.423   .     A
C915   C919    1.404   .     S
C915   O1060   1.287   .     A
C915   O1063   1.285   .     A
C916   C920    1.404   .     S
C916   O1061   1.286   .     A
C916   O1062   1.285   .     A
C917   C968    1.420   .     A
C917   C966    1.416   .     A
C918   C967    1.413   .     A
C918   C613    1.520   1_565 S
C920   C1527   1.188   .     S
C921   O1064   1.385   .     S
C921   C926    1.401   .     A
C921   C932    1.408   .     A
C922   C927    1.406   .     A
C922   C933    1.414   .     A
C922   O1046   1.382   .     S
C923   C933    1.414   .     A
C923   O1047   1.382   .     S
C923   C928    1.390   .     A
C924   O1058   1.300   .     A
C924   O1056   1.291   .     A
C924   C931    1.470   .     S
C925   O1048   1.382   .     S
C925   C932    1.407   .     A
C925   C929    1.403   .     A
C926   C930    1.411   .     A
C926   O1049   1.381   .     S
C927   C931    1.411   .     A
C927   O1050   1.384   .     S
C928   O1051   1.385   .     S
C928   C931    1.401   .     A
C929   C930    1.416   .     A
C929   O1052   1.382   .     S
C932   C1085   1.483   1_455 S
C933   C1084   1.483   .     S
C934   O1064   1.416   .     S
C934   H1026   1.116   .     S
C934   C936    1.533   .     S
C934   H1167   1.110   1_455 S
C935   H971    1.077   .     S
C935   N1043   1.365   .     A
C935   C966    1.424   .     A
C936   C937    1.528   .     S
C936   H1037   1.111   .     S
C937   H972    1.110   .     S
C937   H1042   1.110   .     S
C937   H973    1.110   .     S
C938   H975    1.119   .     S
C938   C939    1.530   .     S
C938   O1046   1.415   .     S
C938   H1126   1.111   .     S
C939   H976    1.110   .     S
C939   C940    1.529   .     S
C940   H980    1.111   .     S
C940   H979    1.110   .     S
C940   H1130   1.111   .     S
C941   C942    1.531   .     S
C941   O1047   1.417   .     S
C941   H983    1.119   .     S
C941   H1133   1.111   .     S
C942   C943    1.527   .     S
C942   H985    1.111   .     S
C942   H984    1.112   .     S
C943   H987    1.110   .     S
C943   H988    1.111   .     S
C943   H1138   1.109   .     S
C944   O1048   1.413   .     S
C944   C945    1.529   .     S
C944   H990    1.117   .     S
C944   H1141   1.112   1_455 S
C945   H991    1.111   .     S
C945   H992    1.109   .     S
C945   C1099   1.528   1_455 S
C946   H982    1.070   .     S
C946   N1044   1.363   .     A
C946   C967    1.413   .     A
C947   H994    1.110   .     S
C947   H995    1.111   .     S
C947   H996    1.110   .     S
C947   C1097   1.528   .     S
C948   C949    1.532   .     S
C948   O1049   1.419   .     S
C948   H998    1.105   .     S
C948   H997    1.110   .     S
C949   H1000   1.110   .     S
C949   H999    1.109   .     S
C949   H1001   1.109   .     S
C950   C951    1.523   .     S
C950   H1003   1.111   .     S
C950   O1050   1.410   .     S
C950   H1002   1.113   .     S
C951   H1005   1.110   .     S
C951   H1006   1.106   .     S
C951   H1007   1.109   .     S
C952   O1051   1.423   .     S
C952   H1008   1.114   .     S
C952   H1009   1.116   .     S
C952   C953    1.518   .     S
C953   H1011   1.111   .     S
C953   H1012   1.110   .     S
C953   H1010   1.110   .     S
C954   H1014   1.118   .     S
C954   O1052   1.418   .     S
C954   C955    1.518   .     S
C954   H1013   1.111   .     S
C955   H1017   1.110   .     S
C955   H1016   1.110   .     S
C955   H1018   1.108   .     S
C956   O1053   1.417   .     S
C956   C958    1.523   .     S
C956   H1020   1.115   .     S
C956   H1019   1.112   .     S
C957   C968    1.411   .     A
C957   N1043   1.360   .     A
C957   H993    1.081   .     S
C958   H1022   1.110   .     S
C958   H1631   1.107   .     S
C959   O1054   1.419   .     S
C959   H1024   1.113   .     S
C959   C960    1.523   .     S
C959   H1025   1.113   .     S
C960   H1028   1.111   .     S
C960   H1027   1.109   .     S
C960   H725    1.107   1_565 S
C961   H1031   1.114   .     S
C961   O1055   1.409   .     S
C962   H1034   1.111   .     S
C962   C657    1.521   1_565 S
C962   H728    1.111   1_565 S
C963   H1035   1.113   .     S
C963   O1057   1.408   .     S
C963   H1036   1.107   .     S
C963   C964    1.522   .     S
C964   H1039   1.110   .     S
C964   H1038   1.109   .     S
C964   H736    1.108   1_565 S
C965   H1004   1.077   .     S
C965   N1044   1.370   .     A
C966   O1053   1.397   .     S
C967   O1054   1.385   .     S
C968   O1055   1.381   .     S
Cu969  N1044   2.010   .     S
Cu969  O1045   1.963   .     S
Cu969  O1062   1.927   .     S
Cu969  O1060   1.928   .     S
Cu969  Cu970   2.676   .     S
Cu969  O1058   1.965   .     S
Cu970  O1061   1.928   .     S
Cu970  O1059   1.965   .     S
Cu970  N1043   2.010   .     S
Cu970  O1063   1.927   .     S
Cu970  O1056   1.963   .     S
H974   C1090   1.111   1_455 S
H977   C1547   1.109   .     S
H978   C1092   1.111   1_455 S
H981   C1093   1.111   1_455 S
H986   C1095   1.109   1_455 S
H989   C1096   1.112   .     S
H1015  C1086   1.110   .     S
H1021  C654    1.108   1_565 S
H1030  C657    1.115   1_565 S
H1033  C1570   1.110   .     S
H1041  C1544   1.110   .     S
C1065  C1082   1.485   .     S
C1065  O1197   1.303   .     A
C1065  O1211   1.294   .     A
C1066  O1209   1.388   .     S
C1066  C1070   1.413   .     A
C1066  C1117   1.423   .     A
C1067  C1071   1.404   .     S
C1067  O1212   1.287   .     A
C1067  O1215   1.285   .     A
C1068  C1072   1.404   .     S
C1068  O1213   1.286   .     A
C1068  O1214   1.285   .     A
C1069  C1120   1.420   .     A
C1069  C1118   1.416   .     A
C1070  C1119   1.413   .     A
C1070  C765    1.520   1_565 S
C1072  C1679   1.188   .     S
C1073  O1216   1.385   .     S
C1073  C1078   1.401   .     A
C1073  C1084   1.408   .     A
C1074  C1079   1.406   .     A
C1074  C1085   1.414   .     A
C1074  O1198   1.382   .     S
C1075  C1085   1.414   .     A
C1075  O1199   1.382   .     S
C1075  C1080   1.390   .     A
C1076  O1210   1.300   .     A
C1076  O1208   1.291   .     A
C1076  C1083   1.470   .     S
C1077  O1200   1.382   .     S
C1077  C1084   1.407   .     A
C1077  C1081   1.403   .     A
C1078  C1082   1.411   .     A
C1078  O1201   1.381   .     S
C1079  C1083   1.411   .     A
C1079  O1202   1.384   .     S
C1080  O1203   1.385   .     S
C1080  C1083   1.401   .     A
C1081  C1082   1.416   .     A
C1081  O1204   1.382   .     S
C1085  C932    1.483   1_655 S
C1086  O1216   1.416   .     S
C1086  H1178   1.116   .     S
C1086  C1088   1.533   .     S
C1087  H1123   1.077   .     S
C1087  N1195   1.365   .     A
C1087  C1118   1.424   .     A
C1088  C1089   1.528   .     S
C1088  H1189   1.111   .     S
C1089  H1124   1.110   .     S
C1089  H1194   1.110   .     S
C1089  H1125   1.110   .     S
C1090  H1127   1.119   .     S
C1090  C1091   1.530   .     S
C1090  O1198   1.415   .     S
C1090  H974    1.111   1_655 S
C1091  H1128   1.110   .     S
C1091  C1092   1.529   .     S
C1092  H1132   1.111   .     S
C1092  H1131   1.110   .     S
C1092  H978    1.111   1_655 S
C1093  C1094   1.531   .     S
C1093  O1199   1.417   .     S
C1093  H1135   1.119   .     S
C1093  H981    1.111   1_655 S
C1094  C1095   1.527   .     S
C1094  H1137   1.111   .     S
C1094  H1136   1.112   .     S
C1095  H1139   1.110   .     S
C1095  H1140   1.111   .     S
C1095  H986    1.109   1_655 S
C1096  O1200   1.413   .     S
C1096  C1097   1.529   .     S
C1096  H1142   1.117   .     S
C1097  H1143   1.111   .     S
C1097  H1144   1.109   .     S
C1098  H1134   1.070   .     S
C1098  N1196   1.363   .     A
C1098  C1119   1.413   .     A
C1099  H1146   1.110   .     S
C1099  H1147   1.111   .     S
C1099  H1148   1.110   .     S
C1099  C945    1.528   1_655 S
C1100  C1101   1.532   .     S
C1100  O1201   1.419   .     S
C1100  H1150   1.105   .     S
C1100  H1149   1.110   .     S
C1101  H1152   1.110   .     S
C1101  H1151   1.109   .     S
C1101  H1153   1.109   .     S
C1102  C1103   1.523   .     S
C1102  H1155   1.111   .     S
C1102  O1202   1.410   .     S
C1102  H1154   1.113   .     S
C1103  H1157   1.110   .     S
C1103  H1158   1.106   .     S
C1103  H1159   1.109   .     S
C1104  O1203   1.423   .     S
C1104  H1160   1.114   .     S
C1104  H1161   1.116   .     S
C1104  C1105   1.518   .     S
C1105  H1163   1.111   .     S
C1105  H1164   1.110   .     S
C1105  H1162   1.110   .     S
C1106  H1166   1.118   .     S
C1106  O1204   1.418   .     S
C1106  C1107   1.518   .     S
C1106  H1165   1.111   .     S
C1107  H1169   1.110   .     S
C1107  H1168   1.110   .     S
C1107  H1170   1.108   .     S
C1108  O1205   1.417   .     S
C1108  C1110   1.523   .     S
C1108  H1172   1.115   .     S
C1108  H1171   1.112   .     S
C1109  C1120   1.411   .     A
C1109  N1195   1.360   .     A
C1109  H1145   1.081   .     S
C1110  H1174   1.110   .     S
C1110  H1783   1.107   .     S
C1111  O1206   1.419   .     S
C1111  H1176   1.113   .     S
C1111  C1112   1.523   .     S
C1111  H1177   1.113   .     S
C1112  H1180   1.111   .     S
C1112  H1179   1.109   .     S
C1112  H877    1.107   1_565 S
C1113  H1183   1.114   .     S
C1113  O1207   1.409   .     S
C1114  H1186   1.111   .     S
C1114  C809    1.521   1_565 S
C1114  H880    1.111   1_565 S
C1115  H1187   1.113   .     S
C1115  O1209   1.408   .     S
C1115  H1188   1.107   .     S
C1115  C1116   1.522   .     S
C1116  H1191   1.110   .     S
C1116  H1190   1.109   .     S
C1116  H888    1.108   1_565 S
C1117  H1156   1.077   .     S
C1117  N1196   1.370   .     A
C1118  O1205   1.397   .     S
C1119  O1206   1.385   .     S
C1120  O1207   1.381   .     S
Cu1121 N1196   2.010   .     S
Cu1121 O1197   1.963   .     S
Cu1121 O1214   1.927   .     S
Cu1121 O1212   1.928   .     S
Cu1121 Cu1122  2.676   .     S
Cu1121 O1210   1.965   .     S
Cu1122 O1213   1.928   .     S
Cu1122 O1211   1.965   .     S
Cu1122 N1195   2.010   .     S
Cu1122 O1215   1.927   .     S
Cu1122 O1208   1.963   .     S
H1129  C1699   1.109   .     S
H1141  C944    1.112   1_655 S
H1167  C934    1.110   1_655 S
H1173  C806    1.108   1_565 S
H1182  C809    1.115   1_565 S
H1185  C1722   1.110   .     S
H1193  C1696   1.110   .     S
C1217  C1234   1.485   .     S
C1217  O1349   1.303   .     A
C1217  O1363   1.294   .     A
C1218  O1361   1.388   .     S
C1218  C1222   1.413   .     A
C1218  C1269   1.423   .     A
C1219  C1223   1.404   .     S
C1219  O1364   1.287   .     A
C1219  O1367   1.285   .     A
C1220  C1224   1.404   .     S
C1220  O1365   1.286   .     A
C1220  O1366   1.285   .     A
C1221  C1272   1.420   .     A
C1221  C1270   1.416   .     A
C1221  C1526   1.520   1_545 S
C1222  C1271   1.413   .     A
C1222  C1525   1.520   .     S
C1224  C7      1.188   1_556 S
C1225  O1368   1.385   .     S
C1225  C1230   1.401   .     A
C1225  C1236   1.408   .     A
C1226  C1231   1.406   .     A
C1226  C1237   1.414   .     A
C1226  O1350   1.382   .     S
C1227  C1237   1.414   .     A
C1227  O1351   1.382   .     S
C1227  C1232   1.390   .     A
C1228  O1362   1.300   .     A
C1228  O1360   1.291   .     A
C1228  C1235   1.470   .     S
C1229  O1352   1.382   .     S
C1229  C1236   1.407   .     A
C1229  C1233   1.403   .     A
C1230  C1234   1.411   .     A
C1230  O1353   1.381   .     S
C1231  C1235   1.411   .     A
C1231  O1354   1.384   .     S
C1232  O1355   1.385   .     S
C1232  C1235   1.401   .     A
C1233  C1234   1.416   .     A
C1233  O1356   1.382   .     S
C1236  C1389   1.483   1_455 S
C1237  C1388   1.483   .     S
C1238  O1368   1.416   .     S
C1238  H1330   1.116   .     S
C1238  C1240   1.533   .     S
C1238  H1471   1.110   1_455 S
C1239  H1275   1.077   .     S
C1239  N1347   1.365   .     A
C1239  C1270   1.424   .     A
C1240  C1241   1.528   .     S
C1240  H1341   1.111   .     S
C1241  H1276   1.110   .     S
C1241  H1346   1.110   .     S
C1241  H1277   1.110   .     S
C1242  H1279   1.119   .     S
C1242  C1243   1.530   .     S
C1242  O1350   1.415   .     S
C1242  H1430   1.111   .     S
C1243  H1280   1.110   .     S
C1243  C1244   1.529   .     S
C1244  H1284   1.111   .     S
C1244  H1283   1.110   .     S
C1244  H1434   1.111   .     S
C1245  C1246   1.531   .     S
C1245  O1351   1.417   .     S
C1245  H1287   1.119   .     S
C1245  H1437   1.111   .     S
C1246  C1247   1.527   .     S
C1246  H1289   1.111   .     S
C1246  H1288   1.112   .     S
C1247  H1291   1.110   .     S
C1247  H1292   1.111   .     S
C1247  H1442   1.109   .     S
C1248  O1352   1.413   .     S
C1248  C1249   1.529   .     S
C1248  H1294   1.117   .     S
C1248  H1445   1.112   1_455 S
C1249  H1295   1.111   .     S
C1249  H1296   1.109   .     S
C1249  C1403   1.528   1_455 S
C1250  H1286   1.070   .     S
C1250  N1348   1.363   .     A
C1250  C1271   1.413   .     A
C1251  H1298   1.110   .     S
C1251  H1299   1.111   .     S
C1251  H1300   1.110   .     S
C1251  C1401   1.528   .     S
C1252  C1253   1.532   .     S
C1252  O1353   1.419   .     S
C1252  H1302   1.105   .     S
C1252  H1301   1.110   .     S
C1253  H1304   1.110   .     S
C1253  H1303   1.109   .     S
C1253  H1305   1.109   .     S
C1254  C1255   1.523   .     S
C1254  H1307   1.111   .     S
C1254  O1354   1.410   .     S
C1254  H1306   1.113   .     S
C1255  H1309   1.110   .     S
C1255  H1310   1.106   .     S
C1255  H1311   1.109   .     S
C1256  O1355   1.423   .     S
C1256  H1312   1.114   .     S
C1256  H1313   1.116   .     S
C1256  C1257   1.518   .     S
C1257  H1315   1.111   .     S
C1257  H1316   1.110   .     S
C1257  H1314   1.110   .     S
C1258  H1318   1.118   .     S
C1258  O1356   1.418   .     S
C1258  C1259   1.518   .     S
C1258  H1317   1.111   .     S
C1259  H1321   1.110   .     S
C1259  H1320   1.110   .     S
C1259  H1322   1.108   .     S
C1260  O1357   1.417   .     S
C1260  C1262   1.523   .     S
C1260  H1324   1.115   .     S
C1260  H1323   1.112   .     S
C1261  C1272   1.411   .     A
C1261  N1347   1.360   .     A
C1261  H1297   1.081   .     S
C1262  H1326   1.110   .     S
C1262  H1629   1.108   1_545 S
C1262  H111    1.107   1_556 S
C1263  O1358   1.419   .     S
C1263  H1328   1.113   .     S
C1263  C1264   1.523   .     S
C1263  H1329   1.113   .     S
C1264  H1332   1.111   .     S
C1264  H1331   1.109   .     S
C1264  H1637   1.107   .     S
C1265  H1335   1.114   .     S
C1265  O1359   1.409   .     S
C1265  C1570   1.521   1_545 S
C1265  H1638   1.115   1_545 S
C1266  H1338   1.111   .     S
C1266  C1569   1.521   .     S
C1266  H1640   1.111   .     S
C1267  H1339   1.113   .     S
C1267  O1361   1.408   .     S
C1267  H1340   1.107   .     S
C1267  C1268   1.522   .     S
C1268  H1343   1.110   .     S
C1268  H1342   1.109   .     S
C1268  H1648   1.108   .     S
C1269  H1308   1.077   .     S
C1269  N1348   1.370   .     A
C1270  O1357   1.397   .     S
C1271  O1358   1.385   .     S
C1272  O1359   1.381   .     S
Cu1273 N1348   2.010   .     S
Cu1273 O1349   1.963   .     S
Cu1273 O1366   1.927   .     S
Cu1273 O1364   1.928   .     S
Cu1273 Cu1274  2.676   .     S
Cu1273 O1362   1.965   .     S
Cu1274 O1365   1.928   .     S
Cu1274 O1363   1.965   .     S
Cu1274 N1347   2.010   .     S
Cu1274 O1367   1.927   .     S
Cu1274 O1360   1.963   .     S
H1278  C1394   1.111   1_455 S
H1281  C27     1.109   1_556 S
H1282  C1396   1.111   1_455 S
H1285  C1397   1.111   1_455 S
H1290  C1399   1.109   1_455 S
H1293  C1400   1.112   .     S
H1319  C1390   1.110   .     S
H1325  C1566   1.108   .     S
H1333  C1568   1.107   1_545 S
H1334  C1569   1.115   .     S
H1336  C1570   1.111   1_545 S
H1337  C50     1.110   1_556 S
H1344  C1572   1.108   1_545 S
H1345  C24     1.110   1_556 S
C1369  C1386   1.485   .     S
C1369  O1501   1.303   .     A
C1369  O1515   1.294   .     A
C1370  O1513   1.388   .     S
C1370  C1374   1.413   .     A
C1370  C1421   1.423   .     A
C1371  C1375   1.404   .     S
C1371  O1516   1.287   .     A
C1371  O1519   1.285   .     A
C1372  C1376   1.404   .     S
C1372  O1517   1.286   .     A
C1372  O1518   1.285   .     A
C1373  C1424   1.420   .     A
C1373  C1422   1.416   .     A
C1373  C1678   1.520   1_545 S
C1374  C1423   1.413   .     A
C1374  C1677   1.520   .     S
C1376  C159    1.188   1_556 S
C1377  O1520   1.385   .     S
C1377  C1382   1.401   .     A
C1377  C1388   1.408   .     A
C1378  C1383   1.406   .     A
C1378  C1389   1.414   .     A
C1378  O1502   1.382   .     S
C1379  C1389   1.414   .     A
C1379  O1503   1.382   .     S
C1379  C1384   1.390   .     A
C1380  O1514   1.300   .     A
C1380  O1512   1.291   .     A
C1380  C1387   1.470   .     S
C1381  O1504   1.382   .     S
C1381  C1388   1.407   .     A
C1381  C1385   1.403   .     A
C1382  C1386   1.411   .     A
C1382  O1505   1.381   .     S
C1383  C1387   1.411   .     A
C1383  O1506   1.384   .     S
C1384  O1507   1.385   .     S
C1384  C1387   1.401   .     A
C1385  C1386   1.416   .     A
C1385  O1508   1.382   .     S
C1389  C1236   1.483   1_655 S
C1390  O1520   1.416   .     S
C1390  H1482   1.116   .     S
C1390  C1392   1.533   .     S
C1391  H1427   1.077   .     S
C1391  N1499   1.365   .     A
C1391  C1422   1.424   .     A
C1392  C1393   1.528   .     S
C1392  H1493   1.111   .     S
C1393  H1428   1.110   .     S
C1393  H1498   1.110   .     S
C1393  H1429   1.110   .     S
C1394  H1431   1.119   .     S
C1394  C1395   1.530   .     S
C1394  O1502   1.415   .     S
C1394  H1278   1.111   1_655 S
C1395  H1432   1.110   .     S
C1395  C1396   1.529   .     S
C1396  H1436   1.111   .     S
C1396  H1435   1.110   .     S
C1396  H1282   1.111   1_655 S
C1397  C1398   1.531   .     S
C1397  O1503   1.417   .     S
C1397  H1439   1.119   .     S
C1397  H1285   1.111   1_655 S
C1398  C1399   1.527   .     S
C1398  H1441   1.111   .     S
C1398  H1440   1.112   .     S
C1399  H1443   1.110   .     S
C1399  H1444   1.111   .     S
C1399  H1290   1.109   1_655 S
C1400  O1504   1.413   .     S
C1400  C1401   1.529   .     S
C1400  H1446   1.117   .     S
C1401  H1447   1.111   .     S
C1401  H1448   1.109   .     S
C1402  H1438   1.070   .     S
C1402  N1500   1.363   .     A
C1402  C1423   1.413   .     A
C1403  H1450   1.110   .     S
C1403  H1451   1.111   .     S
C1403  H1452   1.110   .     S
C1403  C1249   1.528   1_655 S
C1404  C1405   1.532   .     S
C1404  O1505   1.419   .     S
C1404  H1454   1.105   .     S
C1404  H1453   1.110   .     S
C1405  H1456   1.110   .     S
C1405  H1455   1.109   .     S
C1405  H1457   1.109   .     S
C1406  C1407   1.523   .     S
C1406  H1459   1.111   .     S
C1406  O1506   1.410   .     S
C1406  H1458   1.113   .     S
C1407  H1461   1.110   .     S
C1407  H1462   1.106   .     S
C1407  H1463   1.109   .     S
C1408  O1507   1.423   .     S
C1408  H1464   1.114   .     S
C1408  H1465   1.116   .     S
C1408  C1409   1.518   .     S
C1409  H1467   1.111   .     S
C1409  H1468   1.110   .     S
C1409  H1466   1.110   .     S
C1410  H1470   1.118   .     S
C1410  O1508   1.418   .     S
C1410  C1411   1.518   .     S
C1410  H1469   1.111   .     S
C1411  H1473   1.110   .     S
C1411  H1472   1.110   .     S
C1411  H1474   1.108   .     S
C1412  O1509   1.417   .     S
C1412  C1414   1.523   .     S
C1412  H1476   1.115   .     S
C1412  H1475   1.112   .     S
C1413  C1424   1.411   .     A
C1413  N1499   1.360   .     A
C1413  H1449   1.081   .     S
C1414  H1478   1.110   .     S
C1414  H1781   1.108   1_545 S
C1414  H263    1.107   1_556 S
C1415  O1510   1.419   .     S
C1415  H1480   1.113   .     S
C1415  C1416   1.523   .     S
C1415  H1481   1.113   .     S
C1416  H1484   1.111   .     S
C1416  H1483   1.109   .     S
C1416  H1789   1.107   .     S
C1417  H1487   1.114   .     S
C1417  O1511   1.409   .     S
C1417  C1722   1.521   1_545 S
C1417  H1790   1.115   1_545 S
C1418  H1490   1.111   .     S
C1418  C1721   1.521   .     S
C1418  H1792   1.111   .     S
C1419  H1491   1.113   .     S
C1419  O1513   1.408   .     S
C1419  H1492   1.107   .     S
C1419  C1420   1.522   .     S
C1420  H1495   1.110   .     S
C1420  H1494   1.109   .     S
C1420  H1800   1.108   .     S
C1421  H1460   1.077   .     S
C1421  N1500   1.370   .     A
C1422  O1509   1.397   .     S
C1423  O1510   1.385   .     S
C1424  O1511   1.381   .     S
Cu1425 N1500   2.010   .     S
Cu1425 O1501   1.963   .     S
Cu1425 O1518   1.927   .     S
Cu1425 O1516   1.928   .     S
Cu1425 Cu1426  2.676   .     S
Cu1425 O1514   1.965   .     S
Cu1426 O1517   1.928   .     S
Cu1426 O1515   1.965   .     S
Cu1426 N1499   2.010   .     S
Cu1426 O1519   1.927   .     S
Cu1426 O1512   1.963   .     S
H1433  C179    1.109   1_556 S
H1445  C1248   1.112   1_655 S
H1471  C1238   1.110   1_655 S
H1477  C1718   1.108   .     S
H1485  C1720   1.107   1_545 S
H1486  C1721   1.115   .     S
H1488  C1722   1.111   1_545 S
H1489  C202    1.110   1_556 S
H1496  C1724   1.108   1_545 S
H1497  C176    1.110   1_556 S
C1521  C1538   1.485   .     S
C1521  O1653   1.303   .     A
C1521  O1667   1.294   .     A
C1522  O1665   1.388   .     S
C1522  C1526   1.413   .     A
C1522  C1573   1.423   .     A
C1523  C1527   1.404   .     S
C1523  O1668   1.287   .     A
C1523  O1671   1.285   .     A
C1524  C1528   1.404   .     S
C1524  O1669   1.286   .     A
C1524  O1670   1.285   .     A
C1525  C1576   1.420   .     A
C1525  C1574   1.416   .     A
C1526  C1575   1.413   .     A
C1526  C1221   1.520   1_565 S
C1528  C311    1.188   1_556 S
C1529  O1672   1.385   .     S
C1529  C1534   1.401   .     A
C1529  C1540   1.408   .     A
C1530  C1535   1.406   .     A
C1530  C1541   1.414   .     A
C1530  O1654   1.382   .     S
C1531  C1541   1.414   .     A
C1531  O1655   1.382   .     S
C1531  C1536   1.390   .     A
C1532  O1666   1.300   .     A
C1532  O1664   1.291   .     A
C1532  C1539   1.470   .     S
C1533  O1656   1.382   .     S
C1533  C1540   1.407   .     A
C1533  C1537   1.403   .     A
C1534  C1538   1.411   .     A
C1534  O1657   1.381   .     S
C1535  C1539   1.411   .     A
C1535  O1658   1.384   .     S
C1536  O1659   1.385   .     S
C1536  C1539   1.401   .     A
C1537  C1538   1.416   .     A
C1537  O1660   1.382   .     S
C1540  C1693   1.483   1_455 S
C1541  C1692   1.483   .     S
C1542  O1672   1.416   .     S
C1542  H1634   1.116   .     S
C1542  C1544   1.533   .     S
C1542  H1775   1.110   1_455 S
C1543  H1579   1.077   .     S
C1543  N1651   1.365   .     A
C1543  C1574   1.424   .     A
C1544  C1545   1.528   .     S
C1544  H1645   1.111   .     S
C1545  H1580   1.110   .     S
C1545  H1650   1.110   .     S
C1545  H1581   1.110   .     S
C1546  H1583   1.119   .     S
C1546  C1547   1.530   .     S
C1546  O1654   1.415   .     S
C1546  H1734   1.111   .     S
C1547  H1584   1.110   .     S
C1547  C1548   1.529   .     S
C1548  H1588   1.111   .     S
C1548  H1587   1.110   .     S
C1548  H1738   1.111   .     S
C1549  C1550   1.531   .     S
C1549  O1655   1.417   .     S
C1549  H1591   1.119   .     S
C1549  H1741   1.111   .     S
C1550  C1551   1.527   .     S
C1550  H1593   1.111   .     S
C1550  H1592   1.112   .     S
C1551  H1595   1.110   .     S
C1551  H1596   1.111   .     S
C1551  H1746   1.109   .     S
C1552  O1656   1.413   .     S
C1552  C1553   1.529   .     S
C1552  H1598   1.117   .     S
C1552  H1749   1.112   1_455 S
C1553  H1599   1.111   .     S
C1553  H1600   1.109   .     S
C1553  C1707   1.528   1_455 S
C1554  H1590   1.070   .     S
C1554  N1652   1.363   .     A
C1554  C1575   1.413   .     A
C1555  H1602   1.110   .     S
C1555  H1603   1.111   .     S
C1555  H1604   1.110   .     S
C1555  C1705   1.528   .     S
C1556  C1557   1.532   .     S
C1556  O1657   1.419   .     S
C1556  H1606   1.105   .     S
C1556  H1605   1.110   .     S
C1557  H1608   1.110   .     S
C1557  H1607   1.109   .     S
C1557  H1609   1.109   .     S
C1558  C1559   1.523   .     S
C1558  H1611   1.111   .     S
C1558  O1658   1.410   .     S
C1558  H1610   1.113   .     S
C1559  H1613   1.110   .     S
C1559  H1614   1.106   .     S
C1559  H1615   1.109   .     S
C1560  O1659   1.423   .     S
C1560  H1616   1.114   .     S
C1560  H1617   1.116   .     S
C1560  C1561   1.518   .     S
C1561  H1619   1.111   .     S
C1561  H1620   1.110   .     S
C1561  H1618   1.110   .     S
C1562  H1622   1.118   .     S
C1562  O1660   1.418   .     S
C1562  C1563   1.518   .     S
C1562  H1621   1.111   .     S
C1563  H1625   1.110   .     S
C1563  H1624   1.110   .     S
C1563  H1626   1.108   .     S
C1564  O1661   1.417   .     S
C1564  C1566   1.523   .     S
C1564  H1628   1.115   .     S
C1564  H1627   1.112   .     S
C1565  C1576   1.411   .     A
C1565  N1651   1.360   .     A
C1565  H1601   1.081   .     S
C1566  H1630   1.110   .     S
C1566  H415    1.107   1_556 S
C1567  O1662   1.419   .     S
C1567  H1632   1.113   .     S
C1567  C1568   1.523   .     S
C1567  H1633   1.113   .     S
C1568  H1636   1.111   .     S
C1568  H1635   1.109   .     S
C1568  H1333   1.107   1_565 S
C1569  H1639   1.114   .     S
C1569  O1663   1.409   .     S
C1570  H1642   1.111   .     S
C1570  C1265   1.521   1_565 S
C1570  H1336   1.111   1_565 S
C1571  H1643   1.113   .     S
C1571  O1665   1.408   .     S
C1571  H1644   1.107   .     S
C1571  C1572   1.522   .     S
C1572  H1647   1.110   .     S
C1572  H1646   1.109   .     S
C1572  H1344   1.108   1_565 S
C1573  H1612   1.077   .     S
C1573  N1652   1.370   .     A
C1574  O1661   1.397   .     S
C1575  O1662   1.385   .     S
C1576  O1663   1.381   .     S
Cu1577 N1652   2.010   .     S
Cu1577 O1653   1.963   .     S
Cu1577 O1670   1.927   .     S
Cu1577 O1668   1.928   .     S
Cu1577 Cu1578  2.676   .     S
Cu1577 O1666   1.965   .     S
Cu1578 O1669   1.928   .     S
Cu1578 O1667   1.965   .     S
Cu1578 N1651   2.010   .     S
Cu1578 O1671   1.927   .     S
Cu1578 O1664   1.963   .     S
H1582  C1698   1.111   1_455 S
H1585  C331    1.109   1_556 S
H1586  C1700   1.111   1_455 S
H1589  C1701   1.111   1_455 S
H1594  C1703   1.109   1_455 S
H1597  C1704   1.112   .     S
H1623  C1694   1.110   .     S
H1629  C1262   1.108   1_565 S
H1638  C1265   1.115   1_565 S
H1641  C354    1.110   1_556 S
H1649  C328    1.110   1_556 S
C1673  C1690   1.485   .     S
C1673  O1805   1.303   .     A
C1673  O1819   1.294   .     A
C1674  O1817   1.388   .     S
C1674  C1678   1.413   .     A
C1674  C1725   1.423   .     A
C1675  C1679   1.404   .     S
C1675  O1820   1.287   .     A
C1675  O1823   1.285   .     A
C1676  C1680   1.404   .     S
C1676  O1821   1.286   .     A
C1676  O1822   1.285   .     A
C1677  C1728   1.420   .     A
C1677  C1726   1.416   .     A
C1678  C1727   1.413   .     A
C1678  C1373   1.520   1_565 S
C1680  C463    1.188   1_556 S
C1681  O1824   1.385   .     S
C1681  C1686   1.401   .     A
C1681  C1692   1.408   .     A
C1682  C1687   1.406   .     A
C1682  C1693   1.414   .     A
C1682  O1806   1.382   .     S
C1683  C1693   1.414   .     A
C1683  O1807   1.382   .     S
C1683  C1688   1.390   .     A
C1684  O1818   1.300   .     A
C1684  O1816   1.291   .     A
C1684  C1691   1.470   .     S
C1685  O1808   1.382   .     S
C1685  C1692   1.407   .     A
C1685  C1689   1.403   .     A
C1686  C1690   1.411   .     A
C1686  O1809   1.381   .     S
C1687  C1691   1.411   .     A
C1687  O1810   1.384   .     S
C1688  O1811   1.385   .     S
C1688  C1691   1.401   .     A
C1689  C1690   1.416   .     A
C1689  O1812   1.382   .     S
C1693  C1540   1.483   1_655 S
C1694  O1824   1.416   .     S
C1694  H1786   1.116   .     S
C1694  C1696   1.533   .     S
C1695  H1731   1.077   .     S
C1695  N1803   1.365   .     A
C1695  C1726   1.424   .     A
C1696  C1697   1.528   .     S
C1696  H1797   1.111   .     S
C1697  H1732   1.110   .     S
C1697  H1802   1.110   .     S
C1697  H1733   1.110   .     S
C1698  H1735   1.119   .     S
C1698  C1699   1.530   .     S
C1698  O1806   1.415   .     S
C1698  H1582   1.111   1_655 S
C1699  H1736   1.110   .     S
C1699  C1700   1.529   .     S
C1700  H1740   1.111   .     S
C1700  H1739   1.110   .     S
C1700  H1586   1.111   1_655 S
C1701  C1702   1.531   .     S
C1701  O1807   1.417   .     S
C1701  H1743   1.119   .     S
C1701  H1589   1.111   1_655 S
C1702  C1703   1.527   .     S
C1702  H1745   1.111   .     S
C1702  H1744   1.112   .     S
C1703  H1747   1.110   .     S
C1703  H1748   1.111   .     S
C1703  H1594   1.109   1_655 S
C1704  O1808   1.413   .     S
C1704  C1705   1.529   .     S
C1704  H1750   1.117   .     S
C1705  H1751   1.111   .     S
C1705  H1752   1.109   .     S
C1706  H1742   1.070   .     S
C1706  N1804   1.363   .     A
C1706  C1727   1.413   .     A
C1707  H1754   1.110   .     S
C1707  H1755   1.111   .     S
C1707  H1756   1.110   .     S
C1707  C1553   1.528   1_655 S
C1708  C1709   1.532   .     S
C1708  O1809   1.419   .     S
C1708  H1758   1.105   .     S
C1708  H1757   1.110   .     S
C1709  H1760   1.110   .     S
C1709  H1759   1.109   .     S
C1709  H1761   1.109   .     S
C1710  C1711   1.523   .     S
C1710  H1763   1.111   .     S
C1710  O1810   1.410   .     S
C1710  H1762   1.113   .     S
C1711  H1765   1.110   .     S
C1711  H1766   1.106   .     S
C1711  H1767   1.109   .     S
C1712  O1811   1.423   .     S
C1712  H1768   1.114   .     S
C1712  H1769   1.116   .     S
C1712  C1713   1.518   .     S
C1713  H1771   1.111   .     S
C1713  H1772   1.110   .     S
C1713  H1770   1.110   .     S
C1714  H1774   1.118   .     S
C1714  O1812   1.418   .     S
C1714  C1715   1.518   .     S
C1714  H1773   1.111   .     S
C1715  H1777   1.110   .     S
C1715  H1776   1.110   .     S
C1715  H1778   1.108   .     S
C1716  O1813   1.417   .     S
C1716  C1718   1.523   .     S
C1716  H1780   1.115   .     S
C1716  H1779   1.112   .     S
C1717  C1728   1.411   .     A
C1717  N1803   1.360   .     A
C1717  H1753   1.081   .     S
C1718  H1782   1.110   .     S
C1718  H567    1.107   1_556 S
C1719  O1814   1.419   .     S
C1719  H1784   1.113   .     S
C1719  C1720   1.523   .     S
C1719  H1785   1.113   .     S
C1720  H1788   1.111   .     S
C1720  H1787   1.109   .     S
C1720  H1485   1.107   1_565 S
C1721  H1791   1.114   .     S
C1721  O1815   1.409   .     S
C1722  H1794   1.111   .     S
C1722  C1417   1.521   1_565 S
C1722  H1488   1.111   1_565 S
C1723  H1795   1.113   .     S
C1723  O1817   1.408   .     S
C1723  H1796   1.107   .     S
C1723  C1724   1.522   .     S
C1724  H1799   1.110   .     S
C1724  H1798   1.109   .     S
C1724  H1496   1.108   1_565 S
C1725  H1764   1.077   .     S
C1725  N1804   1.370   .     A
C1726  O1813   1.397   .     S
C1727  O1814   1.385   .     S
C1728  O1815   1.381   .     S
Cu1729 N1804   2.010   .     S
Cu1729 O1805   1.963   .     S
Cu1729 O1822   1.927   .     S
Cu1729 O1820   1.928   .     S
Cu1729 Cu1730  2.676   .     S
Cu1729 O1818   1.965   .     S
Cu1730 O1821   1.928   .     S
Cu1730 O1819   1.965   .     S
Cu1730 N1803   2.010   .     S
Cu1730 O1823   1.927   .     S
Cu1730 O1816   1.963   .     S
H1737  C483    1.109   1_556 S
H1749  C1552   1.112   1_655 S
H1775  C1542   1.110   1_655 S
H1781  C1414   1.108   1_565 S
H1790  C1417   1.115   1_565 S
H1793  C506    1.110   1_556 S
H1801  C480    1.110   1_556 S
