data_str_m2_o2_o10_pcu_sym.140
_audit_creation_date              2020-01-03
_audit_creation_method            'Materials Studio'
_symmetry_space_group_name_H-M    'P1'
_symmetry_Int_Tables_number       1
_symmetry_cell_setting            triclinic
loop_
_symmetry_equiv_pos_as_xyz
  x,y,z
_cell_length_a                    26.1985
_cell_length_b                    30.2079
_cell_length_c                    27.7393
_cell_angle_alpha                 90.4768
_cell_angle_beta                  97.9346
_cell_angle_gamma                 90.1104
loop_
_atom_site_label
_atom_site_type_symbol
_atom_site_fract_x
_atom_site_fract_y
_atom_site_fract_z
_atom_site_U_iso_or_equiv
_atom_site_adp_type
_atom_site_occupancy
C1     C     0.16741   0.16494   0.24986   0.00000  Uiso   1.00
C2     C     0.16743   0.33505   0.25033   0.00000  Uiso   1.00
C3     C     0.20701   0.26966   0.05938   0.00000  Uiso   1.00
C4     C     0.14112   0.21668   0.44237   0.00000  Uiso   1.00
C5     C     0.20605   0.26964   0.10997   0.00000  Uiso   1.00
C6     C     0.14127   0.21750   0.39168   0.00000  Uiso   1.00
C7     C     0.12731   0.23033   0.09939   0.00000  Uiso   1.00
C8     C     0.19206   0.28244   0.39891   0.00000  Uiso   1.00
C9     C     0.12634   0.23025   0.04854   0.00000  Uiso   1.00
C10    C     0.19218   0.28327   0.44965   0.00000  Uiso   1.00
C11    C     0.16666   0.24996   0.02733   0.00000  Uiso   1.00
C12    C     0.16665   0.24997   0.47264   0.00000  Uiso   1.00
C13    C     0.06790   0.24997   0.23755   0.00000  Uiso   1.00
C14    C     0.26544   0.25001   0.26244   0.00000  Uiso   1.00
C15    C     0.01263   0.24996   0.23068   0.00000  Uiso   1.00
C16    C     0.32070   0.24999   0.26931   0.00000  Uiso   1.00
C17    C     0.14138   0.04745   0.28077   0.00000  Uiso   1.00
C18    C     0.13983   0.45235   0.21337   0.00000  Uiso   1.00
C19    C     0.14144   0.09338   0.28101   0.00000  Uiso   1.00
C20    C     0.13987   0.40641   0.21321   0.00000  Uiso   1.00
C21    C     0.16883   0.11661   0.24936   0.00000  Uiso   1.00
C22    C     0.16883   0.38338   0.25111   0.00000  Uiso   1.00
C23    C     0.19730   0.09346   0.21766   0.00000  Uiso   1.00
C24    C     0.19895   0.40668   0.28918   0.00000  Uiso   1.00
C25    C     0.19772   0.04700   0.21782   0.00000  Uiso   1.00
C26    C     0.19939   0.45314   0.28907   0.00000  Uiso   1.00
C27    C     0.16938   0.02416   0.24949   0.00000  Uiso   1.00
C28    C     0.16943   0.47582   0.25096   0.00000  Uiso   1.00
Cu29   Cu    0.16667   0.25000   0.29822   0.00000  Uiso   1.00
Cu30   Cu    0.16667   0.25001   0.20179   0.00000  Uiso   1.00
H31    H     0.32598   0.24993   0.19362   0.00000  Uiso   1.00
H32    H     0.00735   0.25001   0.30637   0.00000  Uiso   1.00
H33    H     0.11962   0.02991   0.30515   0.00000  Uiso   1.00
H34    H     0.11683   0.46975   0.18404   0.00000  Uiso   1.00
H35    H     0.11943   0.11085   0.30546   0.00000  Uiso   1.00
H36    H     0.11662   0.38878   0.18381   0.00000  Uiso   1.00
H37    H     0.23971   0.28461   0.04583   0.00000  Uiso   1.00
H38    H     0.12160   0.18962   0.45752   0.00000  Uiso   1.00
H39    H     0.23718   0.28532   0.13373   0.00000  Uiso   1.00
H40    H     0.12111   0.19183   0.36918   0.00000  Uiso   1.00
H41    H     0.09619   0.21467   0.11479   0.00000  Uiso   1.00
H42    H     0.21230   0.30803   0.38215   0.00000  Uiso   1.00
H43    H     0.09365   0.21527   0.02621   0.00000  Uiso   1.00
H44    H     0.21171   0.31031   0.47038   0.00000  Uiso   1.00
N45    N     0.16667   0.25001   0.12935   0.00000  Uiso   1.00
N46    N     0.16667   0.24999   0.37066   0.00000  Uiso   1.00
O47    O     0.16667   0.18573   0.29072   0.00000  Uiso   1.00
O48    O     0.16666   0.31428   0.20929   0.00000  Uiso   1.00
O49    O     0.16667   0.18573   0.20928   0.00000  Uiso   1.00
O50    O     0.16666   0.31427   0.29072   0.00000  Uiso   1.00
O51    O     0.09161   0.25000   0.28132   0.00000  Uiso   1.00
O52    O     0.24172   0.25001   0.21868   0.00000  Uiso   1.00
O53    O     0.09161   0.25000   0.19989   0.00000  Uiso   1.00
O54    O     0.24172   0.25000   0.30012   0.00000  Uiso   1.00
N55    N     0.22696   0.11724   0.18654   0.00000  Uiso   1.00
H56    H     0.21435   0.10774   0.15053   0.00000  Uiso   1.00
H57    H     0.26560   0.10808   0.19508   0.00000  Uiso   1.00
N58    N     0.23027   0.38307   0.32696   0.00000  Uiso   1.00
H59    H     0.26870   0.39233   0.32672   0.00000  Uiso   1.00
H60    H     0.21946   0.39267   0.36040   0.00000  Uiso   1.00
N61    N     0.22794   0.02370   0.18650   0.00000  Uiso   1.00
H62    H     0.25409   0.00340   0.20789   0.00000  Uiso   1.00
H63    H     0.20341   0.00367   0.16264   0.00000  Uiso   1.00
N64    N     0.23125   0.47662   0.32718   0.00000  Uiso   1.00
H65    H     0.25652   0.49704   0.31141   0.00000  Uiso   1.00
H66    H     0.20772   0.49654   0.34575   0.00000  Uiso   1.00
C67    C     0.50074   0.16494   0.24986   0.00000  Uiso   1.00
C68    C     0.50076   0.33505   0.25033   0.00000  Uiso   1.00
C69    C     0.54035   0.26966   0.05938   0.00000  Uiso   1.00
C70    C     0.47445   0.21668   0.44237   0.00000  Uiso   1.00
C71    C     0.53938   0.26964   0.10997   0.00000  Uiso   1.00
C72    C     0.47461   0.21750   0.39168   0.00000  Uiso   1.00
C73    C     0.46064   0.23033   0.09939   0.00000  Uiso   1.00
C74    C     0.52539   0.28244   0.39891   0.00000  Uiso   1.00
C75    C     0.45967   0.23025   0.04854   0.00000  Uiso   1.00
C76    C     0.52551   0.28327   0.44965   0.00000  Uiso   1.00
C77    C     0.50000   0.24996   0.02733   0.00000  Uiso   1.00
C78    C     0.49998   0.24997   0.47264   0.00000  Uiso   1.00
C79    C     0.40123   0.24997   0.23755   0.00000  Uiso   1.00
C80    C     0.59877   0.25001   0.26244   0.00000  Uiso   1.00
C81    C     0.34596   0.24996   0.23068   0.00000  Uiso   1.00
C82    C     0.65403   0.24999   0.26931   0.00000  Uiso   1.00
C83    C     0.47472   0.04745   0.28077   0.00000  Uiso   1.00
C84    C     0.47317   0.45235   0.21337   0.00000  Uiso   1.00
C85    C     0.47478   0.09338   0.28101   0.00000  Uiso   1.00
C86    C     0.47320   0.40641   0.21321   0.00000  Uiso   1.00
C87    C     0.50216   0.11661   0.24936   0.00000  Uiso   1.00
C88    C     0.50217   0.38338   0.25111   0.00000  Uiso   1.00
C89    C     0.53063   0.09346   0.21766   0.00000  Uiso   1.00
C90    C     0.53228   0.40668   0.28918   0.00000  Uiso   1.00
C91    C     0.53105   0.04700   0.21782   0.00000  Uiso   1.00
C92    C     0.53272   0.45314   0.28907   0.00000  Uiso   1.00
C93    C     0.50272   0.02416   0.24949   0.00000  Uiso   1.00
C94    C     0.50277   0.47582   0.25096   0.00000  Uiso   1.00
Cu95   Cu    0.50000   0.25000   0.29822   0.00000  Uiso   1.00
Cu96   Cu    0.50000   0.25001   0.20179   0.00000  Uiso   1.00
H97    H     0.65932   0.24993   0.19362   0.00000  Uiso   1.00
H98    H     0.34068   0.25001   0.30637   0.00000  Uiso   1.00
H99    H     0.45296   0.02991   0.30515   0.00000  Uiso   1.00
H100   H     0.45017   0.46975   0.18404   0.00000  Uiso   1.00
H101   H     0.45276   0.11085   0.30546   0.00000  Uiso   1.00
H102   H     0.44996   0.38878   0.18381   0.00000  Uiso   1.00
H103   H     0.57304   0.28461   0.04583   0.00000  Uiso   1.00
H104   H     0.45494   0.18962   0.45752   0.00000  Uiso   1.00
H105   H     0.57052   0.28532   0.13373   0.00000  Uiso   1.00
H106   H     0.45445   0.19183   0.36918   0.00000  Uiso   1.00
H107   H     0.42952   0.21467   0.11479   0.00000  Uiso   1.00
H108   H     0.54563   0.30803   0.38215   0.00000  Uiso   1.00
H109   H     0.42698   0.21527   0.02621   0.00000  Uiso   1.00
H110   H     0.54504   0.31031   0.47038   0.00000  Uiso   1.00
N111   N     0.50000   0.25001   0.12935   0.00000  Uiso   1.00
N112   N     0.50000   0.24999   0.37066   0.00000  Uiso   1.00
O113   O     0.50000   0.18573   0.29072   0.00000  Uiso   1.00
O114   O     0.50000   0.31428   0.20929   0.00000  Uiso   1.00
O115   O     0.50000   0.18573   0.20928   0.00000  Uiso   1.00
O116   O     0.50000   0.31427   0.29072   0.00000  Uiso   1.00
O117   O     0.42495   0.25000   0.28132   0.00000  Uiso   1.00
O118   O     0.57505   0.25001   0.21868   0.00000  Uiso   1.00
O119   O     0.42495   0.25000   0.19989   0.00000  Uiso   1.00
O120   O     0.57505   0.25000   0.30012   0.00000  Uiso   1.00
N121   N     0.56030   0.11724   0.18654   0.00000  Uiso   1.00
H122   H     0.54768   0.10774   0.15053   0.00000  Uiso   1.00
H123   H     0.59893   0.10808   0.19508   0.00000  Uiso   1.00
N124   N     0.56360   0.38307   0.32696   0.00000  Uiso   1.00
H125   H     0.60204   0.39233   0.32672   0.00000  Uiso   1.00
H126   H     0.55279   0.39267   0.36040   0.00000  Uiso   1.00
N127   N     0.56127   0.02370   0.18650   0.00000  Uiso   1.00
H128   H     0.58742   0.00340   0.20789   0.00000  Uiso   1.00
H129   H     0.53674   0.00367   0.16264   0.00000  Uiso   1.00
N130   N     0.56458   0.47662   0.32718   0.00000  Uiso   1.00
H131   H     0.58985   0.49704   0.31141   0.00000  Uiso   1.00
H132   H     0.54106   0.49654   0.34575   0.00000  Uiso   1.00
C133   C     0.83408   0.16494   0.24986   0.00000  Uiso   1.00
C134   C     0.83410   0.33505   0.25033   0.00000  Uiso   1.00
C135   C     0.87368   0.26966   0.05938   0.00000  Uiso   1.00
C136   C     0.80779   0.21668   0.44237   0.00000  Uiso   1.00
C137   C     0.87271   0.26964   0.10997   0.00000  Uiso   1.00
C138   C     0.80794   0.21750   0.39168   0.00000  Uiso   1.00
C139   C     0.79397   0.23033   0.09939   0.00000  Uiso   1.00
C140   C     0.85872   0.28244   0.39891   0.00000  Uiso   1.00
C141   C     0.79300   0.23025   0.04854   0.00000  Uiso   1.00
C142   C     0.85884   0.28327   0.44965   0.00000  Uiso   1.00
C143   C     0.83333   0.24996   0.02733   0.00000  Uiso   1.00
C144   C     0.83331   0.24997   0.47264   0.00000  Uiso   1.00
C145   C     0.73456   0.24997   0.23755   0.00000  Uiso   1.00
C146   C     0.93210   0.25001   0.26244   0.00000  Uiso   1.00
C147   C     0.67929   0.24996   0.23068   0.00000  Uiso   1.00
C148   C     0.98737   0.24999   0.26931   0.00000  Uiso   1.00
C149   C     0.80805   0.04745   0.28077   0.00000  Uiso   1.00
C150   C     0.80650   0.45235   0.21337   0.00000  Uiso   1.00
C151   C     0.80811   0.09338   0.28101   0.00000  Uiso   1.00
C152   C     0.80653   0.40641   0.21321   0.00000  Uiso   1.00
C153   C     0.83549   0.11661   0.24936   0.00000  Uiso   1.00
C154   C     0.83550   0.38338   0.25111   0.00000  Uiso   1.00
C155   C     0.86396   0.09346   0.21766   0.00000  Uiso   1.00
C156   C     0.86561   0.40668   0.28918   0.00000  Uiso   1.00
C157   C     0.86439   0.04700   0.21782   0.00000  Uiso   1.00
C158   C     0.86606   0.45314   0.28907   0.00000  Uiso   1.00
C159   C     0.83605   0.02416   0.24949   0.00000  Uiso   1.00
C160   C     0.83610   0.47582   0.25096   0.00000  Uiso   1.00
Cu161  Cu    0.83333   0.25000   0.29822   0.00000  Uiso   1.00
Cu162  Cu    0.83333   0.25001   0.20179   0.00000  Uiso   1.00
H163   H     0.99265   0.24993   0.19362   0.00000  Uiso   1.00
H164   H     0.67401   0.25001   0.30637   0.00000  Uiso   1.00
H165   H     0.78629   0.02991   0.30515   0.00000  Uiso   1.00
H166   H     0.78350   0.46975   0.18404   0.00000  Uiso   1.00
H167   H     0.78610   0.11085   0.30546   0.00000  Uiso   1.00
H168   H     0.78329   0.38878   0.18381   0.00000  Uiso   1.00
H169   H     0.90638   0.28461   0.04583   0.00000  Uiso   1.00
H170   H     0.78827   0.18962   0.45752   0.00000  Uiso   1.00
H171   H     0.90385   0.28532   0.13373   0.00000  Uiso   1.00
H172   H     0.78778   0.19183   0.36918   0.00000  Uiso   1.00
H173   H     0.76285   0.21467   0.11479   0.00000  Uiso   1.00
H174   H     0.87896   0.30803   0.38215   0.00000  Uiso   1.00
H175   H     0.76031   0.21527   0.02621   0.00000  Uiso   1.00
H176   H     0.87838   0.31031   0.47038   0.00000  Uiso   1.00
N177   N     0.83333   0.25001   0.12935   0.00000  Uiso   1.00
N178   N     0.83333   0.24999   0.37066   0.00000  Uiso   1.00
O179   O     0.83334   0.18573   0.29072   0.00000  Uiso   1.00
O180   O     0.83333   0.31428   0.20929   0.00000  Uiso   1.00
O181   O     0.83334   0.18573   0.20928   0.00000  Uiso   1.00
O182   O     0.83333   0.31427   0.29072   0.00000  Uiso   1.00
O183   O     0.75828   0.25000   0.28132   0.00000  Uiso   1.00
O184   O     0.90839   0.25001   0.21868   0.00000  Uiso   1.00
O185   O     0.75828   0.25000   0.19989   0.00000  Uiso   1.00
O186   O     0.90839   0.25000   0.30012   0.00000  Uiso   1.00
N187   N     0.89363   0.11724   0.18654   0.00000  Uiso   1.00
H188   H     0.88102   0.10774   0.15053   0.00000  Uiso   1.00
H189   H     0.93226   0.10808   0.19508   0.00000  Uiso   1.00
N190   N     0.89693   0.38307   0.32696   0.00000  Uiso   1.00
H191   H     0.93537   0.39233   0.32672   0.00000  Uiso   1.00
H192   H     0.88613   0.39267   0.36040   0.00000  Uiso   1.00
N193   N     0.89461   0.02370   0.18650   0.00000  Uiso   1.00
H194   H     0.92075   0.00340   0.20789   0.00000  Uiso   1.00
H195   H     0.87008   0.00367   0.16264   0.00000  Uiso   1.00
N196   N     0.89792   0.47662   0.32718   0.00000  Uiso   1.00
H197   H     0.92319   0.49704   0.31141   0.00000  Uiso   1.00
H198   H     0.87439   0.49654   0.34575   0.00000  Uiso   1.00
C199   C     0.16741   0.66494   0.24986   0.00000  Uiso   1.00
C200   C     0.16743   0.83505   0.25033   0.00000  Uiso   1.00
C201   C     0.20701   0.76966   0.05938   0.00000  Uiso   1.00
C202   C     0.14112   0.71668   0.44237   0.00000  Uiso   1.00
C203   C     0.20605   0.76964   0.10997   0.00000  Uiso   1.00
C204   C     0.14127   0.71750   0.39168   0.00000  Uiso   1.00
C205   C     0.12731   0.73033   0.09939   0.00000  Uiso   1.00
C206   C     0.19206   0.78244   0.39891   0.00000  Uiso   1.00
C207   C     0.12634   0.73025   0.04854   0.00000  Uiso   1.00
C208   C     0.19218   0.78327   0.44965   0.00000  Uiso   1.00
C209   C     0.16666   0.74996   0.02733   0.00000  Uiso   1.00
C210   C     0.16665   0.74997   0.47264   0.00000  Uiso   1.00
C211   C     0.06790   0.74997   0.23755   0.00000  Uiso   1.00
C212   C     0.26544   0.75001   0.26244   0.00000  Uiso   1.00
C213   C     0.01263   0.74996   0.23068   0.00000  Uiso   1.00
C214   C     0.32070   0.74999   0.26931   0.00000  Uiso   1.00
C215   C     0.14138   0.54745   0.28077   0.00000  Uiso   1.00
C216   C     0.13983   0.95235   0.21337   0.00000  Uiso   1.00
C217   C     0.14144   0.59338   0.28101   0.00000  Uiso   1.00
C218   C     0.13987   0.90641   0.21321   0.00000  Uiso   1.00
C219   C     0.16883   0.61661   0.24936   0.00000  Uiso   1.00
C220   C     0.16883   0.88338   0.25111   0.00000  Uiso   1.00
C221   C     0.19730   0.59346   0.21766   0.00000  Uiso   1.00
C222   C     0.19895   0.90668   0.28918   0.00000  Uiso   1.00
C223   C     0.19772   0.54700   0.21782   0.00000  Uiso   1.00
C224   C     0.19939   0.95314   0.28907   0.00000  Uiso   1.00
C225   C     0.16938   0.52416   0.24949   0.00000  Uiso   1.00
C226   C     0.16943   0.97582   0.25096   0.00000  Uiso   1.00
Cu227  Cu    0.16667   0.75000   0.29822   0.00000  Uiso   1.00
Cu228  Cu    0.16667   0.75001   0.20179   0.00000  Uiso   1.00
H229   H     0.32598   0.74993   0.19362   0.00000  Uiso   1.00
H230   H     0.00735   0.75001   0.30637   0.00000  Uiso   1.00
H231   H     0.11962   0.52991   0.30515   0.00000  Uiso   1.00
H232   H     0.11683   0.96975   0.18404   0.00000  Uiso   1.00
H233   H     0.11943   0.61085   0.30546   0.00000  Uiso   1.00
H234   H     0.11662   0.88878   0.18381   0.00000  Uiso   1.00
H235   H     0.23971   0.78461   0.04583   0.00000  Uiso   1.00
H236   H     0.12160   0.68962   0.45752   0.00000  Uiso   1.00
H237   H     0.23718   0.78532   0.13373   0.00000  Uiso   1.00
H238   H     0.12111   0.69183   0.36918   0.00000  Uiso   1.00
H239   H     0.09619   0.71467   0.11479   0.00000  Uiso   1.00
H240   H     0.21230   0.80803   0.38215   0.00000  Uiso   1.00
H241   H     0.09365   0.71527   0.02621   0.00000  Uiso   1.00
H242   H     0.21171   0.81031   0.47038   0.00000  Uiso   1.00
N243   N     0.16667   0.75001   0.12935   0.00000  Uiso   1.00
N244   N     0.16667   0.74999   0.37066   0.00000  Uiso   1.00
O245   O     0.16667   0.68573   0.29072   0.00000  Uiso   1.00
O246   O     0.16666   0.81428   0.20929   0.00000  Uiso   1.00
O247   O     0.16667   0.68573   0.20928   0.00000  Uiso   1.00
O248   O     0.16666   0.81427   0.29072   0.00000  Uiso   1.00
O249   O     0.09161   0.75000   0.28132   0.00000  Uiso   1.00
O250   O     0.24172   0.75001   0.21868   0.00000  Uiso   1.00
O251   O     0.09161   0.75000   0.19989   0.00000  Uiso   1.00
O252   O     0.24172   0.75000   0.30012   0.00000  Uiso   1.00
N253   N     0.22696   0.61724   0.18654   0.00000  Uiso   1.00
H254   H     0.21435   0.60774   0.15053   0.00000  Uiso   1.00
H255   H     0.26560   0.60808   0.19508   0.00000  Uiso   1.00
N256   N     0.23027   0.88307   0.32696   0.00000  Uiso   1.00
H257   H     0.26870   0.89233   0.32672   0.00000  Uiso   1.00
H258   H     0.21946   0.89267   0.36040   0.00000  Uiso   1.00
N259   N     0.22794   0.52370   0.18650   0.00000  Uiso   1.00
H260   H     0.25409   0.50340   0.20789   0.00000  Uiso   1.00
H261   H     0.20341   0.50367   0.16264   0.00000  Uiso   1.00
N262   N     0.23125   0.97662   0.32718   0.00000  Uiso   1.00
H263   H     0.25652   0.99704   0.31141   0.00000  Uiso   1.00
H264   H     0.20772   0.99654   0.34575   0.00000  Uiso   1.00
C265   C     0.50074   0.66494   0.24986   0.00000  Uiso   1.00
C266   C     0.50076   0.83505   0.25033   0.00000  Uiso   1.00
C267   C     0.54035   0.76966   0.05938   0.00000  Uiso   1.00
C268   C     0.47445   0.71668   0.44237   0.00000  Uiso   1.00
C269   C     0.53938   0.76964   0.10997   0.00000  Uiso   1.00
C270   C     0.47461   0.71750   0.39168   0.00000  Uiso   1.00
C271   C     0.46064   0.73033   0.09939   0.00000  Uiso   1.00
C272   C     0.52539   0.78244   0.39891   0.00000  Uiso   1.00
C273   C     0.45967   0.73025   0.04854   0.00000  Uiso   1.00
C274   C     0.52551   0.78327   0.44965   0.00000  Uiso   1.00
C275   C     0.50000   0.74996   0.02733   0.00000  Uiso   1.00
C276   C     0.49998   0.74997   0.47264   0.00000  Uiso   1.00
C277   C     0.40123   0.74997   0.23755   0.00000  Uiso   1.00
C278   C     0.59877   0.75001   0.26244   0.00000  Uiso   1.00
C279   C     0.34596   0.74996   0.23068   0.00000  Uiso   1.00
C280   C     0.65403   0.74999   0.26931   0.00000  Uiso   1.00
C281   C     0.47472   0.54745   0.28077   0.00000  Uiso   1.00
C282   C     0.47317   0.95235   0.21337   0.00000  Uiso   1.00
C283   C     0.47478   0.59338   0.28101   0.00000  Uiso   1.00
C284   C     0.47320   0.90641   0.21321   0.00000  Uiso   1.00
C285   C     0.50216   0.61661   0.24936   0.00000  Uiso   1.00
C286   C     0.50217   0.88338   0.25111   0.00000  Uiso   1.00
C287   C     0.53063   0.59346   0.21766   0.00000  Uiso   1.00
C288   C     0.53228   0.90668   0.28918   0.00000  Uiso   1.00
C289   C     0.53105   0.54700   0.21782   0.00000  Uiso   1.00
C290   C     0.53272   0.95314   0.28907   0.00000  Uiso   1.00
C291   C     0.50272   0.52416   0.24949   0.00000  Uiso   1.00
C292   C     0.50277   0.97582   0.25096   0.00000  Uiso   1.00
Cu293  Cu    0.50000   0.75000   0.29822   0.00000  Uiso   1.00
Cu294  Cu    0.50000   0.75001   0.20179   0.00000  Uiso   1.00
H295   H     0.65932   0.74993   0.19362   0.00000  Uiso   1.00
H296   H     0.34068   0.75001   0.30637   0.00000  Uiso   1.00
H297   H     0.45296   0.52991   0.30515   0.00000  Uiso   1.00
H298   H     0.45017   0.96975   0.18404   0.00000  Uiso   1.00
H299   H     0.45276   0.61085   0.30546   0.00000  Uiso   1.00
H300   H     0.44996   0.88878   0.18381   0.00000  Uiso   1.00
H301   H     0.57304   0.78461   0.04583   0.00000  Uiso   1.00
H302   H     0.45494   0.68962   0.45752   0.00000  Uiso   1.00
H303   H     0.57052   0.78532   0.13373   0.00000  Uiso   1.00
H304   H     0.45445   0.69183   0.36918   0.00000  Uiso   1.00
H305   H     0.42952   0.71467   0.11479   0.00000  Uiso   1.00
H306   H     0.54563   0.80803   0.38215   0.00000  Uiso   1.00
H307   H     0.42698   0.71527   0.02621   0.00000  Uiso   1.00
H308   H     0.54504   0.81031   0.47038   0.00000  Uiso   1.00
N309   N     0.50000   0.75001   0.12935   0.00000  Uiso   1.00
N310   N     0.50000   0.74999   0.37066   0.00000  Uiso   1.00
O311   O     0.50000   0.68573   0.29072   0.00000  Uiso   1.00
O312   O     0.50000   0.81428   0.20929   0.00000  Uiso   1.00
O313   O     0.50000   0.68573   0.20928   0.00000  Uiso   1.00
O314   O     0.50000   0.81427   0.29072   0.00000  Uiso   1.00
O315   O     0.42495   0.75000   0.28132   0.00000  Uiso   1.00
O316   O     0.57505   0.75001   0.21868   0.00000  Uiso   1.00
O317   O     0.42495   0.75000   0.19989   0.00000  Uiso   1.00
O318   O     0.57505   0.75000   0.30012   0.00000  Uiso   1.00
N319   N     0.56030   0.61724   0.18654   0.00000  Uiso   1.00
H320   H     0.54768   0.60774   0.15053   0.00000  Uiso   1.00
H321   H     0.59893   0.60808   0.19508   0.00000  Uiso   1.00
N322   N     0.56360   0.88307   0.32696   0.00000  Uiso   1.00
H323   H     0.60204   0.89233   0.32672   0.00000  Uiso   1.00
H324   H     0.55279   0.89267   0.36040   0.00000  Uiso   1.00
N325   N     0.56127   0.52370   0.18650   0.00000  Uiso   1.00
H326   H     0.58742   0.50340   0.20789   0.00000  Uiso   1.00
H327   H     0.53674   0.50367   0.16264   0.00000  Uiso   1.00
N328   N     0.56458   0.97662   0.32718   0.00000  Uiso   1.00
H329   H     0.58985   0.99704   0.31141   0.00000  Uiso   1.00
H330   H     0.54106   0.99654   0.34575   0.00000  Uiso   1.00
C331   C     0.83408   0.66494   0.24986   0.00000  Uiso   1.00
C332   C     0.83410   0.83505   0.25033   0.00000  Uiso   1.00
C333   C     0.87368   0.76966   0.05938   0.00000  Uiso   1.00
C334   C     0.80779   0.71668   0.44237   0.00000  Uiso   1.00
C335   C     0.87271   0.76964   0.10997   0.00000  Uiso   1.00
C336   C     0.80794   0.71750   0.39168   0.00000  Uiso   1.00
C337   C     0.79397   0.73033   0.09939   0.00000  Uiso   1.00
C338   C     0.85872   0.78244   0.39891   0.00000  Uiso   1.00
C339   C     0.79300   0.73025   0.04854   0.00000  Uiso   1.00
C340   C     0.85884   0.78327   0.44965   0.00000  Uiso   1.00
C341   C     0.83333   0.74996   0.02733   0.00000  Uiso   1.00
C342   C     0.83331   0.74997   0.47264   0.00000  Uiso   1.00
C343   C     0.73456   0.74997   0.23755   0.00000  Uiso   1.00
C344   C     0.93210   0.75001   0.26244   0.00000  Uiso   1.00
C345   C     0.67929   0.74996   0.23068   0.00000  Uiso   1.00
C346   C     0.98737   0.74999   0.26931   0.00000  Uiso   1.00
C347   C     0.80805   0.54745   0.28077   0.00000  Uiso   1.00
C348   C     0.80650   0.95235   0.21337   0.00000  Uiso   1.00
C349   C     0.80811   0.59338   0.28101   0.00000  Uiso   1.00
C350   C     0.80653   0.90641   0.21321   0.00000  Uiso   1.00
C351   C     0.83549   0.61661   0.24936   0.00000  Uiso   1.00
C352   C     0.83550   0.88338   0.25111   0.00000  Uiso   1.00
C353   C     0.86396   0.59346   0.21766   0.00000  Uiso   1.00
C354   C     0.86561   0.90668   0.28918   0.00000  Uiso   1.00
C355   C     0.86439   0.54700   0.21782   0.00000  Uiso   1.00
C356   C     0.86606   0.95314   0.28907   0.00000  Uiso   1.00
C357   C     0.83605   0.52416   0.24949   0.00000  Uiso   1.00
C358   C     0.83610   0.97582   0.25096   0.00000  Uiso   1.00
Cu359  Cu    0.83333   0.75000   0.29822   0.00000  Uiso   1.00
Cu360  Cu    0.83333   0.75001   0.20179   0.00000  Uiso   1.00
H361   H     0.99265   0.74993   0.19362   0.00000  Uiso   1.00
H362   H     0.67401   0.75001   0.30637   0.00000  Uiso   1.00
H363   H     0.78629   0.52991   0.30515   0.00000  Uiso   1.00
H364   H     0.78350   0.96975   0.18404   0.00000  Uiso   1.00
H365   H     0.78610   0.61085   0.30546   0.00000  Uiso   1.00
H366   H     0.78329   0.88878   0.18381   0.00000  Uiso   1.00
H367   H     0.90638   0.78461   0.04583   0.00000  Uiso   1.00
H368   H     0.78827   0.68962   0.45752   0.00000  Uiso   1.00
H369   H     0.90385   0.78532   0.13373   0.00000  Uiso   1.00
H370   H     0.78778   0.69183   0.36918   0.00000  Uiso   1.00
H371   H     0.76285   0.71467   0.11479   0.00000  Uiso   1.00
H372   H     0.87896   0.80803   0.38215   0.00000  Uiso   1.00
H373   H     0.76031   0.71527   0.02621   0.00000  Uiso   1.00
H374   H     0.87838   0.81031   0.47038   0.00000  Uiso   1.00
N375   N     0.83333   0.75001   0.12935   0.00000  Uiso   1.00
N376   N     0.83333   0.74999   0.37066   0.00000  Uiso   1.00
O377   O     0.83334   0.68573   0.29072   0.00000  Uiso   1.00
O378   O     0.83333   0.81428   0.20929   0.00000  Uiso   1.00
O379   O     0.83334   0.68573   0.20928   0.00000  Uiso   1.00
O380   O     0.83333   0.81427   0.29072   0.00000  Uiso   1.00
O381   O     0.75828   0.75000   0.28132   0.00000  Uiso   1.00
O382   O     0.90839   0.75001   0.21868   0.00000  Uiso   1.00
O383   O     0.75828   0.75000   0.19989   0.00000  Uiso   1.00
O384   O     0.90839   0.75000   0.30012   0.00000  Uiso   1.00
N385   N     0.89363   0.61724   0.18654   0.00000  Uiso   1.00
H386   H     0.88102   0.60774   0.15053   0.00000  Uiso   1.00
H387   H     0.93226   0.60808   0.19508   0.00000  Uiso   1.00
N388   N     0.89693   0.88307   0.32696   0.00000  Uiso   1.00
H389   H     0.93537   0.89233   0.32672   0.00000  Uiso   1.00
H390   H     0.88613   0.89267   0.36040   0.00000  Uiso   1.00
N391   N     0.89461   0.52370   0.18650   0.00000  Uiso   1.00
H392   H     0.92075   0.50340   0.20789   0.00000  Uiso   1.00
H393   H     0.87008   0.50367   0.16264   0.00000  Uiso   1.00
N394   N     0.89792   0.97662   0.32718   0.00000  Uiso   1.00
H395   H     0.92319   0.99704   0.31141   0.00000  Uiso   1.00
H396   H     0.87439   0.99654   0.34575   0.00000  Uiso   1.00
C397   C     0.16741   0.16494   0.74986   0.00000  Uiso   1.00
C398   C     0.16743   0.33505   0.75033   0.00000  Uiso   1.00
C399   C     0.20701   0.26966   0.55938   0.00000  Uiso   1.00
C400   C     0.14112   0.21668   0.94237   0.00000  Uiso   1.00
C401   C     0.20605   0.26964   0.60997   0.00000  Uiso   1.00
C402   C     0.14127   0.21750   0.89168   0.00000  Uiso   1.00
C403   C     0.12731   0.23033   0.59939   0.00000  Uiso   1.00
C404   C     0.19206   0.28244   0.89891   0.00000  Uiso   1.00
C405   C     0.12634   0.23025   0.54854   0.00000  Uiso   1.00
C406   C     0.19218   0.28327   0.94965   0.00000  Uiso   1.00
C407   C     0.16666   0.24996   0.52733   0.00000  Uiso   1.00
C408   C     0.16665   0.24997   0.97264   0.00000  Uiso   1.00
C409   C     0.06790   0.24997   0.73755   0.00000  Uiso   1.00
C410   C     0.26544   0.25001   0.76244   0.00000  Uiso   1.00
C411   C     0.01263   0.24996   0.73068   0.00000  Uiso   1.00
C412   C     0.32070   0.24999   0.76931   0.00000  Uiso   1.00
C413   C     0.14138   0.04745   0.78077   0.00000  Uiso   1.00
C414   C     0.13983   0.45235   0.71337   0.00000  Uiso   1.00
C415   C     0.14144   0.09338   0.78101   0.00000  Uiso   1.00
C416   C     0.13987   0.40641   0.71321   0.00000  Uiso   1.00
C417   C     0.16883   0.11661   0.74936   0.00000  Uiso   1.00
C418   C     0.16883   0.38338   0.75111   0.00000  Uiso   1.00
C419   C     0.19730   0.09346   0.71766   0.00000  Uiso   1.00
C420   C     0.19895   0.40668   0.78918   0.00000  Uiso   1.00
C421   C     0.19772   0.04700   0.71782   0.00000  Uiso   1.00
C422   C     0.19939   0.45314   0.78907   0.00000  Uiso   1.00
C423   C     0.16938   0.02416   0.74949   0.00000  Uiso   1.00
C424   C     0.16943   0.47582   0.75096   0.00000  Uiso   1.00
Cu425  Cu    0.16667   0.25000   0.79822   0.00000  Uiso   1.00
Cu426  Cu    0.16667   0.25001   0.70179   0.00000  Uiso   1.00
H427   H     0.32598   0.24993   0.69362   0.00000  Uiso   1.00
H428   H     0.00735   0.25001   0.80637   0.00000  Uiso   1.00
H429   H     0.11962   0.02991   0.80515   0.00000  Uiso   1.00
H430   H     0.11683   0.46975   0.68404   0.00000  Uiso   1.00
H431   H     0.11943   0.11085   0.80546   0.00000  Uiso   1.00
H432   H     0.11662   0.38878   0.68381   0.00000  Uiso   1.00
H433   H     0.23971   0.28461   0.54583   0.00000  Uiso   1.00
H434   H     0.12160   0.18962   0.95752   0.00000  Uiso   1.00
H435   H     0.23718   0.28532   0.63373   0.00000  Uiso   1.00
H436   H     0.12111   0.19183   0.86918   0.00000  Uiso   1.00
H437   H     0.09619   0.21467   0.61479   0.00000  Uiso   1.00
H438   H     0.21230   0.30803   0.88215   0.00000  Uiso   1.00
H439   H     0.09365   0.21527   0.52621   0.00000  Uiso   1.00
H440   H     0.21171   0.31031   0.97038   0.00000  Uiso   1.00
N441   N     0.16667   0.25001   0.62935   0.00000  Uiso   1.00
N442   N     0.16667   0.24999   0.87066   0.00000  Uiso   1.00
O443   O     0.16667   0.18573   0.79072   0.00000  Uiso   1.00
O444   O     0.16666   0.31428   0.70929   0.00000  Uiso   1.00
O445   O     0.16667   0.18573   0.70928   0.00000  Uiso   1.00
O446   O     0.16666   0.31427   0.79072   0.00000  Uiso   1.00
O447   O     0.09161   0.25000   0.78132   0.00000  Uiso   1.00
O448   O     0.24172   0.25001   0.71868   0.00000  Uiso   1.00
O449   O     0.09161   0.25000   0.69989   0.00000  Uiso   1.00
O450   O     0.24172   0.25000   0.80012   0.00000  Uiso   1.00
N451   N     0.22696   0.11724   0.68654   0.00000  Uiso   1.00
H452   H     0.21435   0.10774   0.65053   0.00000  Uiso   1.00
H453   H     0.26560   0.10808   0.69508   0.00000  Uiso   1.00
N454   N     0.23027   0.38307   0.82696   0.00000  Uiso   1.00
H455   H     0.26870   0.39233   0.82672   0.00000  Uiso   1.00
H456   H     0.21946   0.39267   0.86040   0.00000  Uiso   1.00
N457   N     0.22794   0.02370   0.68650   0.00000  Uiso   1.00
H458   H     0.25409   0.00340   0.70789   0.00000  Uiso   1.00
H459   H     0.20341   0.00367   0.66264   0.00000  Uiso   1.00
N460   N     0.23125   0.47662   0.82718   0.00000  Uiso   1.00
H461   H     0.25652   0.49704   0.81141   0.00000  Uiso   1.00
H462   H     0.20772   0.49654   0.84575   0.00000  Uiso   1.00
C463   C     0.50074   0.16494   0.74986   0.00000  Uiso   1.00
C464   C     0.50076   0.33505   0.75033   0.00000  Uiso   1.00
C465   C     0.54035   0.26966   0.55938   0.00000  Uiso   1.00
C466   C     0.47445   0.21668   0.94237   0.00000  Uiso   1.00
C467   C     0.53938   0.26964   0.60997   0.00000  Uiso   1.00
C468   C     0.47461   0.21750   0.89168   0.00000  Uiso   1.00
C469   C     0.46064   0.23033   0.59939   0.00000  Uiso   1.00
C470   C     0.52539   0.28244   0.89891   0.00000  Uiso   1.00
C471   C     0.45967   0.23025   0.54854   0.00000  Uiso   1.00
C472   C     0.52551   0.28327   0.94965   0.00000  Uiso   1.00
C473   C     0.50000   0.24996   0.52733   0.00000  Uiso   1.00
C474   C     0.49998   0.24997   0.97264   0.00000  Uiso   1.00
C475   C     0.40123   0.24997   0.73755   0.00000  Uiso   1.00
C476   C     0.59877   0.25001   0.76244   0.00000  Uiso   1.00
C477   C     0.34596   0.24996   0.73068   0.00000  Uiso   1.00
C478   C     0.65403   0.24999   0.76931   0.00000  Uiso   1.00
C479   C     0.47472   0.04745   0.78077   0.00000  Uiso   1.00
C480   C     0.47317   0.45235   0.71337   0.00000  Uiso   1.00
C481   C     0.47478   0.09338   0.78101   0.00000  Uiso   1.00
C482   C     0.47320   0.40641   0.71321   0.00000  Uiso   1.00
C483   C     0.50216   0.11661   0.74936   0.00000  Uiso   1.00
C484   C     0.50217   0.38338   0.75111   0.00000  Uiso   1.00
C485   C     0.53063   0.09346   0.71766   0.00000  Uiso   1.00
C486   C     0.53228   0.40668   0.78918   0.00000  Uiso   1.00
C487   C     0.53105   0.04700   0.71782   0.00000  Uiso   1.00
C488   C     0.53272   0.45314   0.78907   0.00000  Uiso   1.00
C489   C     0.50272   0.02416   0.74949   0.00000  Uiso   1.00
C490   C     0.50277   0.47582   0.75096   0.00000  Uiso   1.00
Cu491  Cu    0.50000   0.25000   0.79822   0.00000  Uiso   1.00
Cu492  Cu    0.50000   0.25001   0.70179   0.00000  Uiso   1.00
H493   H     0.65932   0.24993   0.69362   0.00000  Uiso   1.00
H494   H     0.34068   0.25001   0.80637   0.00000  Uiso   1.00
H495   H     0.45296   0.02991   0.80515   0.00000  Uiso   1.00
H496   H     0.45017   0.46975   0.68404   0.00000  Uiso   1.00
H497   H     0.45276   0.11085   0.80546   0.00000  Uiso   1.00
H498   H     0.44996   0.38878   0.68381   0.00000  Uiso   1.00
H499   H     0.57304   0.28461   0.54583   0.00000  Uiso   1.00
H500   H     0.45494   0.18962   0.95752   0.00000  Uiso   1.00
H501   H     0.57052   0.28532   0.63373   0.00000  Uiso   1.00
H502   H     0.45445   0.19183   0.86918   0.00000  Uiso   1.00
H503   H     0.42952   0.21467   0.61479   0.00000  Uiso   1.00
H504   H     0.54563   0.30803   0.88215   0.00000  Uiso   1.00
H505   H     0.42698   0.21527   0.52621   0.00000  Uiso   1.00
H506   H     0.54504   0.31031   0.97038   0.00000  Uiso   1.00
N507   N     0.50000   0.25001   0.62935   0.00000  Uiso   1.00
N508   N     0.50000   0.24999   0.87066   0.00000  Uiso   1.00
O509   O     0.50000   0.18573   0.79072   0.00000  Uiso   1.00
O510   O     0.50000   0.31428   0.70929   0.00000  Uiso   1.00
O511   O     0.50000   0.18573   0.70928   0.00000  Uiso   1.00
O512   O     0.50000   0.31427   0.79072   0.00000  Uiso   1.00
O513   O     0.42495   0.25000   0.78132   0.00000  Uiso   1.00
O514   O     0.57505   0.25001   0.71868   0.00000  Uiso   1.00
O515   O     0.42495   0.25000   0.69989   0.00000  Uiso   1.00
O516   O     0.57505   0.25000   0.80012   0.00000  Uiso   1.00
N517   N     0.56030   0.11724   0.68654   0.00000  Uiso   1.00
H518   H     0.54768   0.10774   0.65053   0.00000  Uiso   1.00
H519   H     0.59893   0.10808   0.69508   0.00000  Uiso   1.00
N520   N     0.56360   0.38307   0.82696   0.00000  Uiso   1.00
H521   H     0.60204   0.39233   0.82672   0.00000  Uiso   1.00
H522   H     0.55279   0.39267   0.86040   0.00000  Uiso   1.00
N523   N     0.56127   0.02370   0.68650   0.00000  Uiso   1.00
H524   H     0.58742   0.00340   0.70789   0.00000  Uiso   1.00
H525   H     0.53674   0.00367   0.66264   0.00000  Uiso   1.00
N526   N     0.56458   0.47662   0.82718   0.00000  Uiso   1.00
H527   H     0.58985   0.49704   0.81141   0.00000  Uiso   1.00
H528   H     0.54106   0.49654   0.84575   0.00000  Uiso   1.00
C529   C     0.83408   0.16494   0.74986   0.00000  Uiso   1.00
C530   C     0.83410   0.33505   0.75033   0.00000  Uiso   1.00
C531   C     0.87368   0.26966   0.55938   0.00000  Uiso   1.00
C532   C     0.80779   0.21668   0.94237   0.00000  Uiso   1.00
C533   C     0.87271   0.26964   0.60997   0.00000  Uiso   1.00
C534   C     0.80794   0.21750   0.89168   0.00000  Uiso   1.00
C535   C     0.79397   0.23033   0.59939   0.00000  Uiso   1.00
C536   C     0.85872   0.28244   0.89891   0.00000  Uiso   1.00
C537   C     0.79300   0.23025   0.54854   0.00000  Uiso   1.00
C538   C     0.85884   0.28327   0.94965   0.00000  Uiso   1.00
C539   C     0.83333   0.24996   0.52733   0.00000  Uiso   1.00
C540   C     0.83331   0.24997   0.97264   0.00000  Uiso   1.00
C541   C     0.73456   0.24997   0.73755   0.00000  Uiso   1.00
C542   C     0.93210   0.25001   0.76244   0.00000  Uiso   1.00
C543   C     0.67929   0.24996   0.73068   0.00000  Uiso   1.00
C544   C     0.98737   0.24999   0.76931   0.00000  Uiso   1.00
C545   C     0.80805   0.04745   0.78077   0.00000  Uiso   1.00
C546   C     0.80650   0.45235   0.71337   0.00000  Uiso   1.00
C547   C     0.80811   0.09338   0.78101   0.00000  Uiso   1.00
C548   C     0.80653   0.40641   0.71321   0.00000  Uiso   1.00
C549   C     0.83549   0.11661   0.74936   0.00000  Uiso   1.00
C550   C     0.83550   0.38338   0.75111   0.00000  Uiso   1.00
C551   C     0.86396   0.09346   0.71766   0.00000  Uiso   1.00
C552   C     0.86561   0.40668   0.78918   0.00000  Uiso   1.00
C553   C     0.86439   0.04700   0.71782   0.00000  Uiso   1.00
C554   C     0.86606   0.45314   0.78907   0.00000  Uiso   1.00
C555   C     0.83605   0.02416   0.74949   0.00000  Uiso   1.00
C556   C     0.83610   0.47582   0.75096   0.00000  Uiso   1.00
Cu557  Cu    0.83333   0.25000   0.79822   0.00000  Uiso   1.00
Cu558  Cu    0.83333   0.25001   0.70179   0.00000  Uiso   1.00
H559   H     0.99265   0.24993   0.69362   0.00000  Uiso   1.00
H560   H     0.67401   0.25001   0.80637   0.00000  Uiso   1.00
H561   H     0.78629   0.02991   0.80515   0.00000  Uiso   1.00
H562   H     0.78350   0.46975   0.68404   0.00000  Uiso   1.00
H563   H     0.78610   0.11085   0.80546   0.00000  Uiso   1.00
H564   H     0.78329   0.38878   0.68381   0.00000  Uiso   1.00
H565   H     0.90638   0.28461   0.54583   0.00000  Uiso   1.00
H566   H     0.78827   0.18962   0.95752   0.00000  Uiso   1.00
H567   H     0.90385   0.28532   0.63373   0.00000  Uiso   1.00
H568   H     0.78778   0.19183   0.86918   0.00000  Uiso   1.00
H569   H     0.76285   0.21467   0.61479   0.00000  Uiso   1.00
H570   H     0.87896   0.30803   0.88215   0.00000  Uiso   1.00
H571   H     0.76031   0.21527   0.52621   0.00000  Uiso   1.00
H572   H     0.87838   0.31031   0.97038   0.00000  Uiso   1.00
N573   N     0.83333   0.25001   0.62935   0.00000  Uiso   1.00
N574   N     0.83333   0.24999   0.87066   0.00000  Uiso   1.00
O575   O     0.83334   0.18573   0.79072   0.00000  Uiso   1.00
O576   O     0.83333   0.31428   0.70929   0.00000  Uiso   1.00
O577   O     0.83334   0.18573   0.70928   0.00000  Uiso   1.00
O578   O     0.83333   0.31427   0.79072   0.00000  Uiso   1.00
O579   O     0.75828   0.25000   0.78132   0.00000  Uiso   1.00
O580   O     0.90839   0.25001   0.71868   0.00000  Uiso   1.00
O581   O     0.75828   0.25000   0.69989   0.00000  Uiso   1.00
O582   O     0.90839   0.25000   0.80012   0.00000  Uiso   1.00
N583   N     0.89363   0.11724   0.68654   0.00000  Uiso   1.00
H584   H     0.88102   0.10774   0.65053   0.00000  Uiso   1.00
H585   H     0.93226   0.10808   0.69508   0.00000  Uiso   1.00
N586   N     0.89693   0.38307   0.82696   0.00000  Uiso   1.00
H587   H     0.93537   0.39233   0.82672   0.00000  Uiso   1.00
H588   H     0.88613   0.39267   0.86040   0.00000  Uiso   1.00
N589   N     0.89461   0.02370   0.68650   0.00000  Uiso   1.00
H590   H     0.92075   0.00340   0.70789   0.00000  Uiso   1.00
H591   H     0.87008   0.00367   0.66264   0.00000  Uiso   1.00
N592   N     0.89792   0.47662   0.82718   0.00000  Uiso   1.00
H593   H     0.92319   0.49704   0.81141   0.00000  Uiso   1.00
H594   H     0.87439   0.49654   0.84575   0.00000  Uiso   1.00
C595   C     0.16741   0.66494   0.74986   0.00000  Uiso   1.00
C596   C     0.16743   0.83505   0.75033   0.00000  Uiso   1.00
C597   C     0.20701   0.76966   0.55938   0.00000  Uiso   1.00
C598   C     0.14112   0.71668   0.94237   0.00000  Uiso   1.00
C599   C     0.20605   0.76964   0.60997   0.00000  Uiso   1.00
C600   C     0.14127   0.71750   0.89168   0.00000  Uiso   1.00
C601   C     0.12731   0.73033   0.59939   0.00000  Uiso   1.00
C602   C     0.19206   0.78244   0.89891   0.00000  Uiso   1.00
C603   C     0.12634   0.73025   0.54854   0.00000  Uiso   1.00
C604   C     0.19218   0.78327   0.94965   0.00000  Uiso   1.00
C605   C     0.16666   0.74996   0.52733   0.00000  Uiso   1.00
C606   C     0.16665   0.74997   0.97264   0.00000  Uiso   1.00
C607   C     0.06790   0.74997   0.73755   0.00000  Uiso   1.00
C608   C     0.26544   0.75001   0.76244   0.00000  Uiso   1.00
C609   C     0.01263   0.74996   0.73068   0.00000  Uiso   1.00
C610   C     0.32070   0.74999   0.76931   0.00000  Uiso   1.00
C611   C     0.14138   0.54745   0.78077   0.00000  Uiso   1.00
C612   C     0.13983   0.95235   0.71337   0.00000  Uiso   1.00
C613   C     0.14144   0.59338   0.78101   0.00000  Uiso   1.00
C614   C     0.13987   0.90641   0.71321   0.00000  Uiso   1.00
C615   C     0.16883   0.61661   0.74936   0.00000  Uiso   1.00
C616   C     0.16883   0.88338   0.75111   0.00000  Uiso   1.00
C617   C     0.19730   0.59346   0.71766   0.00000  Uiso   1.00
C618   C     0.19895   0.90668   0.78918   0.00000  Uiso   1.00
C619   C     0.19772   0.54700   0.71782   0.00000  Uiso   1.00
C620   C     0.19939   0.95314   0.78907   0.00000  Uiso   1.00
C621   C     0.16938   0.52416   0.74949   0.00000  Uiso   1.00
C622   C     0.16943   0.97582   0.75096   0.00000  Uiso   1.00
Cu623  Cu    0.16667   0.75000   0.79822   0.00000  Uiso   1.00
Cu624  Cu    0.16667   0.75001   0.70179   0.00000  Uiso   1.00
H625   H     0.32598   0.74993   0.69362   0.00000  Uiso   1.00
H626   H     0.00735   0.75001   0.80637   0.00000  Uiso   1.00
H627   H     0.11962   0.52991   0.80515   0.00000  Uiso   1.00
H628   H     0.11683   0.96975   0.68404   0.00000  Uiso   1.00
H629   H     0.11943   0.61085   0.80546   0.00000  Uiso   1.00
H630   H     0.11662   0.88878   0.68381   0.00000  Uiso   1.00
H631   H     0.23971   0.78461   0.54583   0.00000  Uiso   1.00
H632   H     0.12160   0.68962   0.95752   0.00000  Uiso   1.00
H633   H     0.23718   0.78532   0.63373   0.00000  Uiso   1.00
H634   H     0.12111   0.69183   0.86918   0.00000  Uiso   1.00
H635   H     0.09619   0.71467   0.61479   0.00000  Uiso   1.00
H636   H     0.21230   0.80803   0.88215   0.00000  Uiso   1.00
H637   H     0.09365   0.71527   0.52621   0.00000  Uiso   1.00
H638   H     0.21171   0.81031   0.97038   0.00000  Uiso   1.00
N639   N     0.16667   0.75001   0.62935   0.00000  Uiso   1.00
N640   N     0.16667   0.74999   0.87066   0.00000  Uiso   1.00
O641   O     0.16667   0.68573   0.79072   0.00000  Uiso   1.00
O642   O     0.16666   0.81428   0.70929   0.00000  Uiso   1.00
O643   O     0.16667   0.68573   0.70928   0.00000  Uiso   1.00
O644   O     0.16666   0.81427   0.79072   0.00000  Uiso   1.00
O645   O     0.09161   0.75000   0.78132   0.00000  Uiso   1.00
O646   O     0.24172   0.75001   0.71868   0.00000  Uiso   1.00
O647   O     0.09161   0.75000   0.69989   0.00000  Uiso   1.00
O648   O     0.24172   0.75000   0.80012   0.00000  Uiso   1.00
N649   N     0.22696   0.61724   0.68654   0.00000  Uiso   1.00
H650   H     0.21435   0.60774   0.65053   0.00000  Uiso   1.00
H651   H     0.26560   0.60808   0.69508   0.00000  Uiso   1.00
N652   N     0.23027   0.88307   0.82696   0.00000  Uiso   1.00
H653   H     0.26870   0.89233   0.82672   0.00000  Uiso   1.00
H654   H     0.21946   0.89267   0.86040   0.00000  Uiso   1.00
N655   N     0.22794   0.52370   0.68650   0.00000  Uiso   1.00
H656   H     0.25409   0.50340   0.70789   0.00000  Uiso   1.00
H657   H     0.20341   0.50367   0.66264   0.00000  Uiso   1.00
N658   N     0.23125   0.97662   0.82718   0.00000  Uiso   1.00
H659   H     0.25652   0.99704   0.81141   0.00000  Uiso   1.00
H660   H     0.20772   0.99654   0.84575   0.00000  Uiso   1.00
C661   C     0.50074   0.66494   0.74986   0.00000  Uiso   1.00
C662   C     0.50076   0.83505   0.75033   0.00000  Uiso   1.00
C663   C     0.54035   0.76966   0.55938   0.00000  Uiso   1.00
C664   C     0.47445   0.71668   0.94237   0.00000  Uiso   1.00
C665   C     0.53938   0.76964   0.60997   0.00000  Uiso   1.00
C666   C     0.47461   0.71750   0.89168   0.00000  Uiso   1.00
C667   C     0.46064   0.73033   0.59939   0.00000  Uiso   1.00
C668   C     0.52539   0.78244   0.89891   0.00000  Uiso   1.00
C669   C     0.45967   0.73025   0.54854   0.00000  Uiso   1.00
C670   C     0.52551   0.78327   0.94965   0.00000  Uiso   1.00
C671   C     0.50000   0.74996   0.52733   0.00000  Uiso   1.00
C672   C     0.49998   0.74997   0.97264   0.00000  Uiso   1.00
C673   C     0.40123   0.74997   0.73755   0.00000  Uiso   1.00
C674   C     0.59877   0.75001   0.76244   0.00000  Uiso   1.00
C675   C     0.34596   0.74996   0.73068   0.00000  Uiso   1.00
C676   C     0.65403   0.74999   0.76931   0.00000  Uiso   1.00
C677   C     0.47472   0.54745   0.78077   0.00000  Uiso   1.00
C678   C     0.47317   0.95235   0.71337   0.00000  Uiso   1.00
C679   C     0.47478   0.59338   0.78101   0.00000  Uiso   1.00
C680   C     0.47320   0.90641   0.71321   0.00000  Uiso   1.00
C681   C     0.50216   0.61661   0.74936   0.00000  Uiso   1.00
C682   C     0.50217   0.88338   0.75111   0.00000  Uiso   1.00
C683   C     0.53063   0.59346   0.71766   0.00000  Uiso   1.00
C684   C     0.53228   0.90668   0.78918   0.00000  Uiso   1.00
C685   C     0.53105   0.54700   0.71782   0.00000  Uiso   1.00
C686   C     0.53272   0.95314   0.78907   0.00000  Uiso   1.00
C687   C     0.50272   0.52416   0.74949   0.00000  Uiso   1.00
C688   C     0.50277   0.97582   0.75096   0.00000  Uiso   1.00
Cu689  Cu    0.50000   0.75000   0.79822   0.00000  Uiso   1.00
Cu690  Cu    0.50000   0.75001   0.70179   0.00000  Uiso   1.00
H691   H     0.65932   0.74993   0.69362   0.00000  Uiso   1.00
H692   H     0.34068   0.75001   0.80637   0.00000  Uiso   1.00
H693   H     0.45296   0.52991   0.80515   0.00000  Uiso   1.00
H694   H     0.45017   0.96975   0.68404   0.00000  Uiso   1.00
H695   H     0.45276   0.61085   0.80546   0.00000  Uiso   1.00
H696   H     0.44996   0.88878   0.68381   0.00000  Uiso   1.00
H697   H     0.57304   0.78461   0.54583   0.00000  Uiso   1.00
H698   H     0.45494   0.68962   0.95752   0.00000  Uiso   1.00
H699   H     0.57052   0.78532   0.63373   0.00000  Uiso   1.00
H700   H     0.45445   0.69183   0.86918   0.00000  Uiso   1.00
H701   H     0.42952   0.71467   0.61479   0.00000  Uiso   1.00
H702   H     0.54563   0.80803   0.88215   0.00000  Uiso   1.00
H703   H     0.42698   0.71527   0.52621   0.00000  Uiso   1.00
H704   H     0.54504   0.81031   0.97038   0.00000  Uiso   1.00
N705   N     0.50000   0.75001   0.62935   0.00000  Uiso   1.00
N706   N     0.50000   0.74999   0.87066   0.00000  Uiso   1.00
O707   O     0.50000   0.68573   0.79072   0.00000  Uiso   1.00
O708   O     0.50000   0.81428   0.70929   0.00000  Uiso   1.00
O709   O     0.50000   0.68573   0.70928   0.00000  Uiso   1.00
O710   O     0.50000   0.81427   0.79072   0.00000  Uiso   1.00
O711   O     0.42495   0.75000   0.78132   0.00000  Uiso   1.00
O712   O     0.57505   0.75001   0.71868   0.00000  Uiso   1.00
O713   O     0.42495   0.75000   0.69989   0.00000  Uiso   1.00
O714   O     0.57505   0.75000   0.80012   0.00000  Uiso   1.00
N715   N     0.56030   0.61724   0.68654   0.00000  Uiso   1.00
H716   H     0.54768   0.60774   0.65053   0.00000  Uiso   1.00
H717   H     0.59893   0.60808   0.69508   0.00000  Uiso   1.00
N718   N     0.56360   0.88307   0.82696   0.00000  Uiso   1.00
H719   H     0.60204   0.89233   0.82672   0.00000  Uiso   1.00
H720   H     0.55279   0.89267   0.86040   0.00000  Uiso   1.00
N721   N     0.56127   0.52370   0.68650   0.00000  Uiso   1.00
H722   H     0.58742   0.50340   0.70789   0.00000  Uiso   1.00
H723   H     0.53674   0.50367   0.66264   0.00000  Uiso   1.00
N724   N     0.56458   0.97662   0.82718   0.00000  Uiso   1.00
H725   H     0.58985   0.99704   0.81141   0.00000  Uiso   1.00
H726   H     0.54106   0.99654   0.84575   0.00000  Uiso   1.00
C727   C     0.83408   0.66494   0.74986   0.00000  Uiso   1.00
C728   C     0.83410   0.83505   0.75033   0.00000  Uiso   1.00
C729   C     0.87368   0.76966   0.55938   0.00000  Uiso   1.00
C730   C     0.80779   0.71668   0.94237   0.00000  Uiso   1.00
C731   C     0.87271   0.76964   0.60997   0.00000  Uiso   1.00
C732   C     0.80794   0.71750   0.89168   0.00000  Uiso   1.00
C733   C     0.79397   0.73033   0.59939   0.00000  Uiso   1.00
C734   C     0.85872   0.78244   0.89891   0.00000  Uiso   1.00
C735   C     0.79300   0.73025   0.54854   0.00000  Uiso   1.00
C736   C     0.85884   0.78327   0.94965   0.00000  Uiso   1.00
C737   C     0.83333   0.74996   0.52733   0.00000  Uiso   1.00
C738   C     0.83331   0.74997   0.97264   0.00000  Uiso   1.00
C739   C     0.73456   0.74997   0.73755   0.00000  Uiso   1.00
C740   C     0.93210   0.75001   0.76244   0.00000  Uiso   1.00
C741   C     0.67929   0.74996   0.73068   0.00000  Uiso   1.00
C742   C     0.98737   0.74999   0.76931   0.00000  Uiso   1.00
C743   C     0.80805   0.54745   0.78077   0.00000  Uiso   1.00
C744   C     0.80650   0.95235   0.71337   0.00000  Uiso   1.00
C745   C     0.80811   0.59338   0.78101   0.00000  Uiso   1.00
C746   C     0.80653   0.90641   0.71321   0.00000  Uiso   1.00
C747   C     0.83549   0.61661   0.74936   0.00000  Uiso   1.00
C748   C     0.83550   0.88338   0.75111   0.00000  Uiso   1.00
C749   C     0.86396   0.59346   0.71766   0.00000  Uiso   1.00
C750   C     0.86561   0.90668   0.78918   0.00000  Uiso   1.00
C751   C     0.86439   0.54700   0.71782   0.00000  Uiso   1.00
C752   C     0.86606   0.95314   0.78907   0.00000  Uiso   1.00
C753   C     0.83605   0.52416   0.74949   0.00000  Uiso   1.00
C754   C     0.83610   0.97582   0.75096   0.00000  Uiso   1.00
Cu755  Cu    0.83333   0.75000   0.79822   0.00000  Uiso   1.00
Cu756  Cu    0.83333   0.75001   0.70179   0.00000  Uiso   1.00
H757   H     0.99265   0.74993   0.69362   0.00000  Uiso   1.00
H758   H     0.67401   0.75001   0.80637   0.00000  Uiso   1.00
H759   H     0.78629   0.52991   0.80515   0.00000  Uiso   1.00
H760   H     0.78350   0.96975   0.68404   0.00000  Uiso   1.00
H761   H     0.78610   0.61085   0.80546   0.00000  Uiso   1.00
H762   H     0.78329   0.88878   0.68381   0.00000  Uiso   1.00
H763   H     0.90638   0.78461   0.54583   0.00000  Uiso   1.00
H764   H     0.78827   0.68962   0.95752   0.00000  Uiso   1.00
H765   H     0.90385   0.78532   0.63373   0.00000  Uiso   1.00
H766   H     0.78778   0.69183   0.86918   0.00000  Uiso   1.00
H767   H     0.76285   0.71467   0.61479   0.00000  Uiso   1.00
H768   H     0.87896   0.80803   0.88215   0.00000  Uiso   1.00
H769   H     0.76031   0.71527   0.52621   0.00000  Uiso   1.00
H770   H     0.87838   0.81031   0.97038   0.00000  Uiso   1.00
N771   N     0.83333   0.75001   0.62935   0.00000  Uiso   1.00
N772   N     0.83333   0.74999   0.87066   0.00000  Uiso   1.00
O773   O     0.83334   0.68573   0.79072   0.00000  Uiso   1.00
O774   O     0.83333   0.81428   0.70929   0.00000  Uiso   1.00
O775   O     0.83334   0.68573   0.70928   0.00000  Uiso   1.00
O776   O     0.83333   0.81427   0.79072   0.00000  Uiso   1.00
O777   O     0.75828   0.75000   0.78132   0.00000  Uiso   1.00
O778   O     0.90839   0.75001   0.71868   0.00000  Uiso   1.00
O779   O     0.75828   0.75000   0.69989   0.00000  Uiso   1.00
O780   O     0.90839   0.75000   0.80012   0.00000  Uiso   1.00
N781   N     0.89363   0.61724   0.68654   0.00000  Uiso   1.00
H782   H     0.88102   0.60774   0.65053   0.00000  Uiso   1.00
H783   H     0.93226   0.60808   0.69508   0.00000  Uiso   1.00
N784   N     0.89693   0.88307   0.82696   0.00000  Uiso   1.00
H785   H     0.93537   0.89233   0.82672   0.00000  Uiso   1.00
H786   H     0.88613   0.89267   0.86040   0.00000  Uiso   1.00
N787   N     0.89461   0.52370   0.68650   0.00000  Uiso   1.00
H788   H     0.92075   0.50340   0.70789   0.00000  Uiso   1.00
H789   H     0.87008   0.50367   0.66264   0.00000  Uiso   1.00
N790   N     0.89792   0.97662   0.82718   0.00000  Uiso   1.00
H791   H     0.92319   0.99704   0.81141   0.00000  Uiso   1.00
H792   H     0.87439   0.99654   0.84575   0.00000  Uiso   1.00
loop_
_geom_bond_atom_site_label_1
_geom_bond_atom_site_label_2
_geom_bond_distance
_geom_bond_site_symmetry_2
_ccdc_geom_bond_type
C1     C21     1.461   .     S
C1     O47     1.294   .     A
C1     O49     1.291   .     A
C2     C22     1.460   .     S
C2     O50     1.291   .     A
C2     O48     1.293   .     A
C3     C11     1.411   .     A
C3     H37     1.081   .     S
C3     C5      1.407   .     A
C4     C6      1.407   .     A
C4     C12     1.411   .     A
C4     H38     1.081   .     S
C5     H39     1.081   .     S
C5     N45     1.364   .     A
C6     N46     1.364   .     A
C6     H40     1.081   .     S
C7     N45     1.364   .     A
C7     C9      1.407   .     A
C7     H41     1.081   .     S
C8     H42     1.080   .     S
C8     N46     1.363   .     A
C8     C10     1.407   .     A
C9     C11     1.411   .     A
C9     H43     1.081   .     S
C10    C12     1.411   .     A
C10    H44     1.081   .     S
C11    C408    1.517   1_554 S
C12    C407    1.517   .     S
C13    C15     1.434   .     S
C13    O53     1.287   .     A
C13    O51     1.285   .     A
C14    O52     1.285   .     A
C14    O54     1.287   .     A
C14    C16     1.434   .     S
C15    C148    1.335   1_455 S
C15    H163    1.087   1_455 S
C16    C81     1.335   .     S
C16    H98     1.087   .     S
C17    H33     1.084   .     S
C17    C27     1.398   .     A
C17    C19     1.388   .     A
C18    C28     1.398   .     A
C18    H34     1.084   .     S
C18    C20     1.388   .     A
C19    C21     1.400   .     A
C19    H35     1.084   .     S
C20    H36     1.084   .     S
C20    C22     1.400   .     A
C21    C23     1.411   .     A
C22    C24     1.410   .     A
C23    N55     1.435   .     S
C23    C25     1.404   .     A
C24    C26     1.403   .     A
C24    N58     1.434   .     S
C25    N61     1.435   .     S
C25    C27     1.410   .     A
C26    C28     1.410   .     A
C26    N64     1.435   .     S
C27    C226    1.461   1_545 S
C28    C225    1.461   .     S
Cu29   Cu30    2.675   .     S
Cu29   N46     2.009   .     S
Cu29   O47     1.951   .     S
Cu29   O50     1.954   .     S
Cu29   O54     1.960   .     S
Cu29   O51     1.957   .     S
Cu30   N45     2.009   .     S
Cu30   O49     1.954   .     S
Cu30   O53     1.960   .     S
Cu30   O48     1.951   .     S
Cu30   O52     1.957   .     S
H31    C81     1.087   .     S
H32    C148    1.087   1_455 S
N55    H56     1.046   .     S
N55    H57     1.046   .     S
N58    H60     1.046   .     S
N58    H59     1.046   .     S
N61    H62     1.046   .     S
N61    H63     1.045   .     S
N64    H65     1.046   .     S
N64    H66     1.045   .     S
C67    C87     1.461   .     S
C67    O113    1.294   .     A
C67    O115    1.291   .     A
C68    C88     1.460   .     S
C68    O116    1.291   .     A
C68    O114    1.293   .     A
C69    C77     1.411   .     A
C69    H103    1.081   .     S
C69    C71     1.407   .     A
C70    C72     1.407   .     A
C70    C78     1.411   .     A
C70    H104    1.081   .     S
C71    H105    1.081   .     S
C71    N111    1.364   .     A
C72    N112    1.364   .     A
C72    H106    1.081   .     S
C73    N111    1.364   .     A
C73    C75     1.407   .     A
C73    H107    1.081   .     S
C74    H108    1.080   .     S
C74    N112    1.363   .     A
C74    C76     1.407   .     A
C75    C77     1.411   .     A
C75    H109    1.081   .     S
C76    C78     1.411   .     A
C76    H110    1.081   .     S
C77    C474    1.517   1_554 S
C78    C473    1.517   .     S
C79    C81     1.434   .     S
C79    O119    1.287   .     A
C79    O117    1.285   .     A
C80    O118    1.285   .     A
C80    O120    1.287   .     A
C80    C82     1.434   .     S
C82    C147    1.335   .     S
C82    H164    1.087   .     S
C83    H99     1.084   .     S
C83    C93     1.398   .     A
C83    C85     1.388   .     A
C84    C94     1.398   .     A
C84    H100    1.084   .     S
C84    C86     1.388   .     A
C85    C87     1.400   .     A
C85    H101    1.084   .     S
C86    H102    1.084   .     S
C86    C88     1.400   .     A
C87    C89     1.411   .     A
C88    C90     1.410   .     A
C89    N121    1.435   .     S
C89    C91     1.404   .     A
C90    C92     1.403   .     A
C90    N124    1.434   .     S
C91    N127    1.435   .     S
C91    C93     1.410   .     A
C92    C94     1.410   .     A
C92    N130    1.435   .     S
C93    C292    1.461   1_545 S
C94    C291    1.461   .     S
Cu95   Cu96    2.675   .     S
Cu95   N112    2.009   .     S
Cu95   O113    1.951   .     S
Cu95   O116    1.954   .     S
Cu95   O120    1.960   .     S
Cu95   O117    1.957   .     S
Cu96   N111    2.009   .     S
Cu96   O115    1.954   .     S
Cu96   O119    1.960   .     S
Cu96   O114    1.951   .     S
Cu96   O118    1.957   .     S
H97    C147    1.087   .     S
N121   H122    1.046   .     S
N121   H123    1.046   .     S
N124   H126    1.046   .     S
N124   H125    1.046   .     S
N127   H128    1.046   .     S
N127   H129    1.045   .     S
N130   H131    1.046   .     S
N130   H132    1.045   .     S
C133   C153    1.461   .     S
C133   O179    1.294   .     A
C133   O181    1.291   .     A
C134   C154    1.460   .     S
C134   O182    1.291   .     A
C134   O180    1.293   .     A
C135   C143    1.411   .     A
C135   H169    1.081   .     S
C135   C137    1.407   .     A
C136   C138    1.407   .     A
C136   C144    1.411   .     A
C136   H170    1.081   .     S
C137   H171    1.081   .     S
C137   N177    1.364   .     A
C138   N178    1.364   .     A
C138   H172    1.081   .     S
C139   N177    1.364   .     A
C139   C141    1.407   .     A
C139   H173    1.081   .     S
C140   H174    1.080   .     S
C140   N178    1.363   .     A
C140   C142    1.407   .     A
C141   C143    1.411   .     A
C141   H175    1.081   .     S
C142   C144    1.411   .     A
C142   H176    1.081   .     S
C143   C540    1.517   1_554 S
C144   C539    1.517   .     S
C145   C147    1.434   .     S
C145   O185    1.287   .     A
C145   O183    1.285   .     A
C146   O184    1.285   .     A
C146   O186    1.287   .     A
C146   C148    1.434   .     S
C148   C15     1.335   1_655 S
C148   H32     1.087   1_655 S
C149   H165    1.084   .     S
C149   C159    1.398   .     A
C149   C151    1.388   .     A
C150   C160    1.398   .     A
C150   H166    1.084   .     S
C150   C152    1.388   .     A
C151   C153    1.400   .     A
C151   H167    1.084   .     S
C152   H168    1.084   .     S
C152   C154    1.400   .     A
C153   C155    1.411   .     A
C154   C156    1.410   .     A
C155   N187    1.435   .     S
C155   C157    1.404   .     A
C156   C158    1.403   .     A
C156   N190    1.434   .     S
C157   N193    1.435   .     S
C157   C159    1.410   .     A
C158   C160    1.410   .     A
C158   N196    1.435   .     S
C159   C358    1.461   1_545 S
C160   C357    1.461   .     S
Cu161  Cu162   2.675   .     S
Cu161  N178    2.009   .     S
Cu161  O179    1.951   .     S
Cu161  O182    1.954   .     S
Cu161  O186    1.960   .     S
Cu161  O183    1.957   .     S
Cu162  N177    2.009   .     S
Cu162  O181    1.954   .     S
Cu162  O185    1.960   .     S
Cu162  O180    1.951   .     S
Cu162  O184    1.957   .     S
H163   C15     1.087   1_655 S
N187   H188    1.046   .     S
N187   H189    1.046   .     S
N190   H192    1.046   .     S
N190   H191    1.046   .     S
N193   H194    1.046   .     S
N193   H195    1.045   .     S
N196   H197    1.046   .     S
N196   H198    1.045   .     S
C199   C219    1.461   .     S
C199   O245    1.294   .     A
C199   O247    1.291   .     A
C200   C220    1.460   .     S
C200   O248    1.291   .     A
C200   O246    1.293   .     A
C201   C209    1.411   .     A
C201   H235    1.081   .     S
C201   C203    1.407   .     A
C202   C204    1.407   .     A
C202   C210    1.411   .     A
C202   H236    1.081   .     S
C203   H237    1.081   .     S
C203   N243    1.364   .     A
C204   N244    1.364   .     A
C204   H238    1.081   .     S
C205   N243    1.364   .     A
C205   C207    1.407   .     A
C205   H239    1.081   .     S
C206   H240    1.080   .     S
C206   N244    1.363   .     A
C206   C208    1.407   .     A
C207   C209    1.411   .     A
C207   H241    1.081   .     S
C208   C210    1.411   .     A
C208   H242    1.081   .     S
C209   C606    1.517   1_554 S
C210   C605    1.517   .     S
C211   C213    1.434   .     S
C211   O251    1.287   .     A
C211   O249    1.285   .     A
C212   O250    1.285   .     A
C212   O252    1.287   .     A
C212   C214    1.434   .     S
C213   C346    1.335   1_455 S
C213   H361    1.087   1_455 S
C214   C279    1.335   .     S
C214   H296    1.087   .     S
C215   H231    1.084   .     S
C215   C225    1.398   .     A
C215   C217    1.388   .     A
C216   C226    1.398   .     A
C216   H232    1.084   .     S
C216   C218    1.388   .     A
C217   C219    1.400   .     A
C217   H233    1.084   .     S
C218   H234    1.084   .     S
C218   C220    1.400   .     A
C219   C221    1.411   .     A
C220   C222    1.410   .     A
C221   N253    1.435   .     S
C221   C223    1.404   .     A
C222   C224    1.403   .     A
C222   N256    1.434   .     S
C223   N259    1.435   .     S
C223   C225    1.410   .     A
C224   C226    1.410   .     A
C224   N262    1.435   .     S
C226   C27     1.461   1_565 S
Cu227  Cu228   2.675   .     S
Cu227  N244    2.009   .     S
Cu227  O245    1.951   .     S
Cu227  O248    1.954   .     S
Cu227  O252    1.960   .     S
Cu227  O249    1.957   .     S
Cu228  N243    2.009   .     S
Cu228  O247    1.954   .     S
Cu228  O251    1.960   .     S
Cu228  O246    1.951   .     S
Cu228  O250    1.957   .     S
H229   C279    1.087   .     S
H230   C346    1.087   1_455 S
N253   H254    1.046   .     S
N253   H255    1.046   .     S
N256   H258    1.046   .     S
N256   H257    1.046   .     S
N259   H260    1.046   .     S
N259   H261    1.045   .     S
N262   H263    1.046   .     S
N262   H264    1.045   .     S
C265   C285    1.461   .     S
C265   O311    1.294   .     A
C265   O313    1.291   .     A
C266   C286    1.460   .     S
C266   O314    1.291   .     A
C266   O312    1.293   .     A
C267   C275    1.411   .     A
C267   H301    1.081   .     S
C267   C269    1.407   .     A
C268   C270    1.407   .     A
C268   C276    1.411   .     A
C268   H302    1.081   .     S
C269   H303    1.081   .     S
C269   N309    1.364   .     A
C270   N310    1.364   .     A
C270   H304    1.081   .     S
C271   N309    1.364   .     A
C271   C273    1.407   .     A
C271   H305    1.081   .     S
C272   H306    1.080   .     S
C272   N310    1.363   .     A
C272   C274    1.407   .     A
C273   C275    1.411   .     A
C273   H307    1.081   .     S
C274   C276    1.411   .     A
C274   H308    1.081   .     S
C275   C672    1.517   1_554 S
C276   C671    1.517   .     S
C277   C279    1.434   .     S
C277   O317    1.287   .     A
C277   O315    1.285   .     A
C278   O316    1.285   .     A
C278   O318    1.287   .     A
C278   C280    1.434   .     S
C280   C345    1.335   .     S
C280   H362    1.087   .     S
C281   H297    1.084   .     S
C281   C291    1.398   .     A
C281   C283    1.388   .     A
C282   C292    1.398   .     A
C282   H298    1.084   .     S
C282   C284    1.388   .     A
C283   C285    1.400   .     A
C283   H299    1.084   .     S
C284   H300    1.084   .     S
C284   C286    1.400   .     A
C285   C287    1.411   .     A
C286   C288    1.410   .     A
C287   N319    1.435   .     S
C287   C289    1.404   .     A
C288   C290    1.403   .     A
C288   N322    1.434   .     S
C289   N325    1.435   .     S
C289   C291    1.410   .     A
C290   C292    1.410   .     A
C290   N328    1.435   .     S
C292   C93     1.461   1_565 S
Cu293  Cu294   2.675   .     S
Cu293  N310    2.009   .     S
Cu293  O311    1.951   .     S
Cu293  O314    1.954   .     S
Cu293  O318    1.960   .     S
Cu293  O315    1.957   .     S
Cu294  N309    2.009   .     S
Cu294  O313    1.954   .     S
Cu294  O317    1.960   .     S
Cu294  O312    1.951   .     S
Cu294  O316    1.957   .     S
H295   C345    1.087   .     S
N319   H320    1.046   .     S
N319   H321    1.046   .     S
N322   H324    1.046   .     S
N322   H323    1.046   .     S
N325   H326    1.046   .     S
N325   H327    1.045   .     S
N328   H329    1.046   .     S
N328   H330    1.045   .     S
C331   C351    1.461   .     S
C331   O377    1.294   .     A
C331   O379    1.291   .     A
C332   C352    1.460   .     S
C332   O380    1.291   .     A
C332   O378    1.293   .     A
C333   C341    1.411   .     A
C333   H367    1.081   .     S
C333   C335    1.407   .     A
C334   C336    1.407   .     A
C334   C342    1.411   .     A
C334   H368    1.081   .     S
C335   H369    1.081   .     S
C335   N375    1.364   .     A
C336   N376    1.364   .     A
C336   H370    1.081   .     S
C337   N375    1.364   .     A
C337   C339    1.407   .     A
C337   H371    1.081   .     S
C338   H372    1.080   .     S
C338   N376    1.363   .     A
C338   C340    1.407   .     A
C339   C341    1.411   .     A
C339   H373    1.081   .     S
C340   C342    1.411   .     A
C340   H374    1.081   .     S
C341   C738    1.517   1_554 S
C342   C737    1.517   .     S
C343   C345    1.434   .     S
C343   O383    1.287   .     A
C343   O381    1.285   .     A
C344   O382    1.285   .     A
C344   O384    1.287   .     A
C344   C346    1.434   .     S
C346   C213    1.335   1_655 S
C346   H230    1.087   1_655 S
C347   H363    1.084   .     S
C347   C357    1.398   .     A
C347   C349    1.388   .     A
C348   C358    1.398   .     A
C348   H364    1.084   .     S
C348   C350    1.388   .     A
C349   C351    1.400   .     A
C349   H365    1.084   .     S
C350   H366    1.084   .     S
C350   C352    1.400   .     A
C351   C353    1.411   .     A
C352   C354    1.410   .     A
C353   N385    1.435   .     S
C353   C355    1.404   .     A
C354   C356    1.403   .     A
C354   N388    1.434   .     S
C355   N391    1.435   .     S
C355   C357    1.410   .     A
C356   C358    1.410   .     A
C356   N394    1.435   .     S
C358   C159    1.461   1_565 S
Cu359  Cu360   2.675   .     S
Cu359  N376    2.009   .     S
Cu359  O377    1.951   .     S
Cu359  O380    1.954   .     S
Cu359  O384    1.960   .     S
Cu359  O381    1.957   .     S
Cu360  N375    2.009   .     S
Cu360  O379    1.954   .     S
Cu360  O383    1.960   .     S
Cu360  O378    1.951   .     S
Cu360  O382    1.957   .     S
H361   C213    1.087   1_655 S
N385   H386    1.046   .     S
N385   H387    1.046   .     S
N388   H390    1.046   .     S
N388   H389    1.046   .     S
N391   H392    1.046   .     S
N391   H393    1.045   .     S
N394   H395    1.046   .     S
N394   H396    1.045   .     S
C397   C417    1.461   .     S
C397   O443    1.294   .     A
C397   O445    1.291   .     A
C398   C418    1.460   .     S
C398   O446    1.291   .     A
C398   O444    1.293   .     A
C399   C407    1.411   .     A
C399   H433    1.081   .     S
C399   C401    1.407   .     A
C400   C402    1.407   .     A
C400   C408    1.411   .     A
C400   H434    1.081   .     S
C401   H435    1.081   .     S
C401   N441    1.364   .     A
C402   N442    1.364   .     A
C402   H436    1.081   .     S
C403   N441    1.364   .     A
C403   C405    1.407   .     A
C403   H437    1.081   .     S
C404   H438    1.080   .     S
C404   N442    1.363   .     A
C404   C406    1.407   .     A
C405   C407    1.411   .     A
C405   H439    1.081   .     S
C406   C408    1.411   .     A
C406   H440    1.081   .     S
C408   C11     1.517   1_556 S
C409   C411    1.434   .     S
C409   O449    1.287   .     A
C409   O447    1.285   .     A
C410   O448    1.285   .     A
C410   O450    1.287   .     A
C410   C412    1.434   .     S
C411   C544    1.335   1_455 S
C411   H559    1.087   1_455 S
C412   C477    1.335   .     S
C412   H494    1.087   .     S
C413   H429    1.084   .     S
C413   C423    1.398   .     A
C413   C415    1.388   .     A
C414   C424    1.398   .     A
C414   H430    1.084   .     S
C414   C416    1.388   .     A
C415   C417    1.400   .     A
C415   H431    1.084   .     S
C416   H432    1.084   .     S
C416   C418    1.400   .     A
C417   C419    1.411   .     A
C418   C420    1.410   .     A
C419   N451    1.435   .     S
C419   C421    1.404   .     A
C420   C422    1.403   .     A
C420   N454    1.434   .     S
C421   N457    1.435   .     S
C421   C423    1.410   .     A
C422   C424    1.410   .     A
C422   N460    1.435   .     S
C423   C622    1.461   1_545 S
C424   C621    1.461   .     S
Cu425  Cu426   2.675   .     S
Cu425  N442    2.009   .     S
Cu425  O443    1.951   .     S
Cu425  O446    1.954   .     S
Cu425  O450    1.960   .     S
Cu425  O447    1.957   .     S
Cu426  N441    2.009   .     S
Cu426  O445    1.954   .     S
Cu426  O449    1.960   .     S
Cu426  O444    1.951   .     S
Cu426  O448    1.957   .     S
H427   C477    1.087   .     S
H428   C544    1.087   1_455 S
N451   H452    1.046   .     S
N451   H453    1.046   .     S
N454   H456    1.046   .     S
N454   H455    1.046   .     S
N457   H458    1.046   .     S
N457   H459    1.045   .     S
N460   H461    1.046   .     S
N460   H462    1.045   .     S
C463   C483    1.461   .     S
C463   O509    1.294   .     A
C463   O511    1.291   .     A
C464   C484    1.460   .     S
C464   O512    1.291   .     A
C464   O510    1.293   .     A
C465   C473    1.411   .     A
C465   H499    1.081   .     S
C465   C467    1.407   .     A
C466   C468    1.407   .     A
C466   C474    1.411   .     A
C466   H500    1.081   .     S
C467   H501    1.081   .     S
C467   N507    1.364   .     A
C468   N508    1.364   .     A
C468   H502    1.081   .     S
C469   N507    1.364   .     A
C469   C471    1.407   .     A
C469   H503    1.081   .     S
C470   H504    1.080   .     S
C470   N508    1.363   .     A
C470   C472    1.407   .     A
C471   C473    1.411   .     A
C471   H505    1.081   .     S
C472   C474    1.411   .     A
C472   H506    1.081   .     S
C474   C77     1.517   1_556 S
C475   C477    1.434   .     S
C475   O515    1.287   .     A
C475   O513    1.285   .     A
C476   O514    1.285   .     A
C476   O516    1.287   .     A
C476   C478    1.434   .     S
C478   C543    1.335   .     S
C478   H560    1.087   .     S
C479   H495    1.084   .     S
C479   C489    1.398   .     A
C479   C481    1.388   .     A
C480   C490    1.398   .     A
C480   H496    1.084   .     S
C480   C482    1.388   .     A
C481   C483    1.400   .     A
C481   H497    1.084   .     S
C482   H498    1.084   .     S
C482   C484    1.400   .     A
C483   C485    1.411   .     A
C484   C486    1.410   .     A
C485   N517    1.435   .     S
C485   C487    1.404   .     A
C486   C488    1.403   .     A
C486   N520    1.434   .     S
C487   N523    1.435   .     S
C487   C489    1.410   .     A
C488   C490    1.410   .     A
C488   N526    1.435   .     S
C489   C688    1.461   1_545 S
C490   C687    1.461   .     S
Cu491  Cu492   2.675   .     S
Cu491  N508    2.009   .     S
Cu491  O509    1.951   .     S
Cu491  O512    1.954   .     S
Cu491  O516    1.960   .     S
Cu491  O513    1.957   .     S
Cu492  N507    2.009   .     S
Cu492  O511    1.954   .     S
Cu492  O515    1.960   .     S
Cu492  O510    1.951   .     S
Cu492  O514    1.957   .     S
H493   C543    1.087   .     S
N517   H518    1.046   .     S
N517   H519    1.046   .     S
N520   H522    1.046   .     S
N520   H521    1.046   .     S
N523   H524    1.046   .     S
N523   H525    1.045   .     S
N526   H527    1.046   .     S
N526   H528    1.045   .     S
C529   C549    1.461   .     S
C529   O575    1.294   .     A
C529   O577    1.291   .     A
C530   C550    1.460   .     S
C530   O578    1.291   .     A
C530   O576    1.293   .     A
C531   C539    1.411   .     A
C531   H565    1.081   .     S
C531   C533    1.407   .     A
C532   C534    1.407   .     A
C532   C540    1.411   .     A
C532   H566    1.081   .     S
C533   H567    1.081   .     S
C533   N573    1.364   .     A
C534   N574    1.364   .     A
C534   H568    1.081   .     S
C535   N573    1.364   .     A
C535   C537    1.407   .     A
C535   H569    1.081   .     S
C536   H570    1.080   .     S
C536   N574    1.363   .     A
C536   C538    1.407   .     A
C537   C539    1.411   .     A
C537   H571    1.081   .     S
C538   C540    1.411   .     A
C538   H572    1.081   .     S
C540   C143    1.517   1_556 S
C541   C543    1.434   .     S
C541   O581    1.287   .     A
C541   O579    1.285   .     A
C542   O580    1.285   .     A
C542   O582    1.287   .     A
C542   C544    1.434   .     S
C544   C411    1.335   1_655 S
C544   H428    1.087   1_655 S
C545   H561    1.084   .     S
C545   C555    1.398   .     A
C545   C547    1.388   .     A
C546   C556    1.398   .     A
C546   H562    1.084   .     S
C546   C548    1.388   .     A
C547   C549    1.400   .     A
C547   H563    1.084   .     S
C548   H564    1.084   .     S
C548   C550    1.400   .     A
C549   C551    1.411   .     A
C550   C552    1.410   .     A
C551   N583    1.435   .     S
C551   C553    1.404   .     A
C552   C554    1.403   .     A
C552   N586    1.434   .     S
C553   N589    1.435   .     S
C553   C555    1.410   .     A
C554   C556    1.410   .     A
C554   N592    1.435   .     S
C555   C754    1.461   1_545 S
C556   C753    1.461   .     S
Cu557  Cu558   2.675   .     S
Cu557  N574    2.009   .     S
Cu557  O575    1.951   .     S
Cu557  O578    1.954   .     S
Cu557  O582    1.960   .     S
Cu557  O579    1.957   .     S
Cu558  N573    2.009   .     S
Cu558  O577    1.954   .     S
Cu558  O581    1.960   .     S
Cu558  O576    1.951   .     S
Cu558  O580    1.957   .     S
H559   C411    1.087   1_655 S
N583   H584    1.046   .     S
N583   H585    1.046   .     S
N586   H588    1.046   .     S
N586   H587    1.046   .     S
N589   H590    1.046   .     S
N589   H591    1.045   .     S
N592   H593    1.046   .     S
N592   H594    1.045   .     S
C595   C615    1.461   .     S
C595   O641    1.294   .     A
C595   O643    1.291   .     A
C596   C616    1.460   .     S
C596   O644    1.291   .     A
C596   O642    1.293   .     A
C597   C605    1.411   .     A
C597   H631    1.081   .     S
C597   C599    1.407   .     A
C598   C600    1.407   .     A
C598   C606    1.411   .     A
C598   H632    1.081   .     S
C599   H633    1.081   .     S
C599   N639    1.364   .     A
C600   N640    1.364   .     A
C600   H634    1.081   .     S
C601   N639    1.364   .     A
C601   C603    1.407   .     A
C601   H635    1.081   .     S
C602   H636    1.080   .     S
C602   N640    1.363   .     A
C602   C604    1.407   .     A
C603   C605    1.411   .     A
C603   H637    1.081   .     S
C604   C606    1.411   .     A
C604   H638    1.081   .     S
C606   C209    1.517   1_556 S
C607   C609    1.434   .     S
C607   O647    1.287   .     A
C607   O645    1.285   .     A
C608   O646    1.285   .     A
C608   O648    1.287   .     A
C608   C610    1.434   .     S
C609   C742    1.335   1_455 S
C609   H757    1.087   1_455 S
C610   C675    1.335   .     S
C610   H692    1.087   .     S
C611   H627    1.084   .     S
C611   C621    1.398   .     A
C611   C613    1.388   .     A
C612   C622    1.398   .     A
C612   H628    1.084   .     S
C612   C614    1.388   .     A
C613   C615    1.400   .     A
C613   H629    1.084   .     S
C614   H630    1.084   .     S
C614   C616    1.400   .     A
C615   C617    1.411   .     A
C616   C618    1.410   .     A
C617   N649    1.435   .     S
C617   C619    1.404   .     A
C618   C620    1.403   .     A
C618   N652    1.434   .     S
C619   N655    1.435   .     S
C619   C621    1.410   .     A
C620   C622    1.410   .     A
C620   N658    1.435   .     S
C622   C423    1.461   1_565 S
Cu623  Cu624   2.675   .     S
Cu623  N640    2.009   .     S
Cu623  O641    1.951   .     S
Cu623  O644    1.954   .     S
Cu623  O648    1.960   .     S
Cu623  O645    1.957   .     S
Cu624  N639    2.009   .     S
Cu624  O643    1.954   .     S
Cu624  O647    1.960   .     S
Cu624  O642    1.951   .     S
Cu624  O646    1.957   .     S
H625   C675    1.087   .     S
H626   C742    1.087   1_455 S
N649   H650    1.046   .     S
N649   H651    1.046   .     S
N652   H654    1.046   .     S
N652   H653    1.046   .     S
N655   H656    1.046   .     S
N655   H657    1.045   .     S
N658   H659    1.046   .     S
N658   H660    1.045   .     S
C661   C681    1.461   .     S
C661   O707    1.294   .     A
C661   O709    1.291   .     A
C662   C682    1.460   .     S
C662   O710    1.291   .     A
C662   O708    1.293   .     A
C663   C671    1.411   .     A
C663   H697    1.081   .     S
C663   C665    1.407   .     A
C664   C666    1.407   .     A
C664   C672    1.411   .     A
C664   H698    1.081   .     S
C665   H699    1.081   .     S
C665   N705    1.364   .     A
C666   N706    1.364   .     A
C666   H700    1.081   .     S
C667   N705    1.364   .     A
C667   C669    1.407   .     A
C667   H701    1.081   .     S
C668   H702    1.080   .     S
C668   N706    1.363   .     A
C668   C670    1.407   .     A
C669   C671    1.411   .     A
C669   H703    1.081   .     S
C670   C672    1.411   .     A
C670   H704    1.081   .     S
C672   C275    1.517   1_556 S
C673   C675    1.434   .     S
C673   O713    1.287   .     A
C673   O711    1.285   .     A
C674   O712    1.285   .     A
C674   O714    1.287   .     A
C674   C676    1.434   .     S
C676   C741    1.335   .     S
C676   H758    1.087   .     S
C677   H693    1.084   .     S
C677   C687    1.398   .     A
C677   C679    1.388   .     A
C678   C688    1.398   .     A
C678   H694    1.084   .     S
C678   C680    1.388   .     A
C679   C681    1.400   .     A
C679   H695    1.084   .     S
C680   H696    1.084   .     S
C680   C682    1.400   .     A
C681   C683    1.411   .     A
C682   C684    1.410   .     A
C683   N715    1.435   .     S
C683   C685    1.404   .     A
C684   C686    1.403   .     A
C684   N718    1.434   .     S
C685   N721    1.435   .     S
C685   C687    1.410   .     A
C686   C688    1.410   .     A
C686   N724    1.435   .     S
C688   C489    1.461   1_565 S
Cu689  Cu690   2.675   .     S
Cu689  N706    2.009   .     S
Cu689  O707    1.951   .     S
Cu689  O710    1.954   .     S
Cu689  O714    1.960   .     S
Cu689  O711    1.957   .     S
Cu690  N705    2.009   .     S
Cu690  O709    1.954   .     S
Cu690  O713    1.960   .     S
Cu690  O708    1.951   .     S
Cu690  O712    1.957   .     S
H691   C741    1.087   .     S
N715   H716    1.046   .     S
N715   H717    1.046   .     S
N718   H720    1.046   .     S
N718   H719    1.046   .     S
N721   H722    1.046   .     S
N721   H723    1.045   .     S
N724   H725    1.046   .     S
N724   H726    1.045   .     S
C727   C747    1.461   .     S
C727   O773    1.294   .     A
C727   O775    1.291   .     A
C728   C748    1.460   .     S
C728   O776    1.291   .     A
C728   O774    1.293   .     A
C729   C737    1.411   .     A
C729   H763    1.081   .     S
C729   C731    1.407   .     A
C730   C732    1.407   .     A
C730   C738    1.411   .     A
C730   H764    1.081   .     S
C731   H765    1.081   .     S
C731   N771    1.364   .     A
C732   N772    1.364   .     A
C732   H766    1.081   .     S
C733   N771    1.364   .     A
C733   C735    1.407   .     A
C733   H767    1.081   .     S
C734   H768    1.080   .     S
C734   N772    1.363   .     A
C734   C736    1.407   .     A
C735   C737    1.411   .     A
C735   H769    1.081   .     S
C736   C738    1.411   .     A
C736   H770    1.081   .     S
C738   C341    1.517   1_556 S
C739   C741    1.434   .     S
C739   O779    1.287   .     A
C739   O777    1.285   .     A
C740   O778    1.285   .     A
C740   O780    1.287   .     A
C740   C742    1.434   .     S
C742   C609    1.335   1_655 S
C742   H626    1.087   1_655 S
C743   H759    1.084   .     S
C743   C753    1.398   .     A
C743   C745    1.388   .     A
C744   C754    1.398   .     A
C744   H760    1.084   .     S
C744   C746    1.388   .     A
C745   C747    1.400   .     A
C745   H761    1.084   .     S
C746   H762    1.084   .     S
C746   C748    1.400   .     A
C747   C749    1.411   .     A
C748   C750    1.410   .     A
C749   N781    1.435   .     S
C749   C751    1.404   .     A
C750   C752    1.403   .     A
C750   N784    1.434   .     S
C751   N787    1.435   .     S
C751   C753    1.410   .     A
C752   C754    1.410   .     A
C752   N790    1.435   .     S
C754   C555    1.461   1_565 S
Cu755  Cu756   2.675   .     S
Cu755  N772    2.009   .     S
Cu755  O773    1.951   .     S
Cu755  O776    1.954   .     S
Cu755  O780    1.960   .     S
Cu755  O777    1.957   .     S
Cu756  N771    2.009   .     S
Cu756  O775    1.954   .     S
Cu756  O779    1.960   .     S
Cu756  O774    1.951   .     S
Cu756  O778    1.957   .     S
H757   C609    1.087   1_655 S
N781   H782    1.046   .     S
N781   H783    1.046   .     S
N784   H786    1.046   .     S
N784   H785    1.046   .     S
N787   H788    1.046   .     S
N787   H789    1.045   .     S
N790   H791    1.046   .     S
N790   H792    1.045   .     S
