data_str_m2_o1_o16_pcu_sym.219
_audit_creation_date              2020-01-03
_audit_creation_method            'Materials Studio'
_symmetry_space_group_name_H-M    'P1'
_symmetry_Int_Tables_number       1
_symmetry_cell_setting            triclinic
loop_
_symmetry_equiv_pos_as_xyz
  x,y,z
_cell_length_a                    28.5294
_cell_length_b                    32.5031
_cell_length_c                    26.9447
_cell_angle_alpha                 90.0936
_cell_angle_beta                  72.5571
_cell_angle_gamma                 90.2269
loop_
_atom_site_label
_atom_site_type_symbol
_atom_site_fract_x
_atom_site_fract_y
_atom_site_fract_z
_atom_site_U_iso_or_equiv
_atom_site_adp_type
_atom_site_occupancy
C1     C     0.16671   0.24592   0.25015   0.00000  Uiso   1.00
C2     C     0.15645   0.15026   0.48094   0.00000  Uiso   1.00
C3     C     0.15502   0.17268   0.43632   0.00000  Uiso   1.00
C4     C     0.18518   0.16519   0.01200   0.00000  Uiso   1.00
C5     C     0.22195   0.19518   0.49054   0.00000  Uiso   1.00
C6     C     0.22144   0.21709   0.44574   0.00000  Uiso   1.00
C7     C     0.18467   0.20862   0.42184   0.00000  Uiso   1.00
C8     C     0.17594   0.15431   0.06529   0.00000  Uiso   1.00
C9     C     0.24967   0.19143   0.06714   0.00000  Uiso   1.00
C10    C     0.12523   0.15761   0.40621   0.00000  Uiso   1.00
C11    C     0.20388   0.31227   0.26245   0.00000  Uiso   1.00
C12    C     0.14031   0.16562   0.34997   0.00000  Uiso   1.00
C13    C     0.20352   0.02149   0.26209   0.00000  Uiso   1.00
C14    C     0.16620   0.04259   0.24880   0.00000  Uiso   1.00
C15    C     0.12896   0.02048   0.23545   0.00000  Uiso   1.00
C16    C     0.12945   0.31115   0.23646   0.00000  Uiso   1.00
C17    C     0.16674   0.29039   0.24980   0.00000  Uiso   1.00
C18    C     0.29964   0.19254   0.28187   0.00000  Uiso   1.00
C19    C     0.01590   0.19246   0.28200   0.00000  Uiso   1.00
C20    C     0.03369   0.14078   0.21810   0.00000  Uiso   1.00
C21    C     0.31740   0.14079   0.21810   0.00000  Uiso   1.00
C22    C     0.16663   0.08732   0.24939   0.00000  Uiso   1.00
C23    C     0.19283   0.16619   0.14991   0.00000  Uiso   1.00
C24    C     0.25621   0.20531   0.01683   0.00000  Uiso   1.00
C25    C     0.20765   0.16891   0.09286   0.00000  Uiso   1.00
C26    C     0.09207   0.12466   0.42530   0.00000  Uiso   1.00
C27    C     0.09697   0.10140   0.46667   0.00000  Uiso   1.00
C28    C     0.13124   0.11235   0.49141   0.00000  Uiso   1.00
Cu29   Cu    0.11978   0.16666   0.25000   0.00000  Uiso   1.00
Cu30   Cu    0.21355   0.16667   0.25000   0.00000  Uiso   1.00
H31    H     0.27466   0.20216   0.08778   0.00000  Uiso   1.00
H32    H     0.23230   0.03786   0.27263   0.00000  Uiso   1.00
H33    H     0.10088   0.29434   0.22601   0.00000  Uiso   1.00
H34    H     0.27386   0.21333   0.30720   0.00000  Uiso   1.00
H35    H     0.02747   0.21312   0.30763   0.00000  Uiso   1.00
H36    H     0.05947   0.11999   0.19263   0.00000  Uiso   1.00
H37    H     0.30580   0.12008   0.19255   0.00000  Uiso   1.00
H38    H     0.28651   0.22615  -0.00000   0.00000  Uiso   1.00
H39    H     0.13788   0.09045   0.01839   0.00000  Uiso   1.00
H40    H     0.07517   0.07378   0.47865   0.00000  Uiso   1.00
H41    H     0.23286   0.29654   0.27312   0.00000  Uiso   1.00
N42    N     0.04931   0.16666   0.24998   0.00000  Uiso   1.00
N43    N     0.28402   0.16669   0.25000   0.00000  Uiso   1.00
O44    O     0.12708   0.22678   0.25000   0.00000  Uiso   1.00
O45    O     0.20627   0.22679   0.25000   0.00000  Uiso   1.00
O46    O     0.10775   0.16665   0.32549   0.00000  Uiso   1.00
O47    O     0.18694   0.16666   0.32549   0.00000  Uiso   1.00
O48    O     0.12706   0.10654   0.24999   0.00000  Uiso   1.00
O49    O     0.20625   0.10655   0.24999   0.00000  Uiso   1.00
O50    O     0.14640   0.16667   0.17451   0.00000  Uiso   1.00
O51    O     0.22559   0.16668   0.17451   0.00000  Uiso   1.00
N52    N     0.09121   0.04093   0.21988   0.00000  Uiso   1.00
H53    H     0.09297   0.03092   0.18246   0.00000  Uiso   1.00
H54    H     0.05717   0.03198   0.24515   0.00000  Uiso   1.00
N55    N     0.25547   0.25046   0.42789   0.00000  Uiso   1.00
H56    H     0.27604   0.24484   0.38934   0.00000  Uiso   1.00
H57    H     0.23584   0.27781   0.42977   0.00000  Uiso   1.00
N58    N     0.13065   0.13500   0.09471   0.00000  Uiso   1.00
H59    H     0.13482   0.10319   0.09664   0.00000  Uiso   1.00
H60    H     0.10070   0.14402   0.08260   0.00000  Uiso   1.00
N61    N     0.05554   0.11286   0.40172   0.00000  Uiso   1.00
H62    H     0.03814   0.13573   0.38757   0.00000  Uiso   1.00
C63    C     0.06149   0.07368   0.37487   0.00000  Uiso   1.00
H64    H     0.06187   0.07839   0.33399   0.00000  Uiso   1.00
H65    H     0.03001   0.05336   0.39426   0.00000  Uiso   1.00
H66    H     0.09620   0.05814   0.37473   0.00000  Uiso   1.00
N67    N     0.17629   0.23683   0.38476   0.00000  Uiso   1.00
H68    H     0.20650   0.25293   0.36273   0.00000  Uiso   1.00
C69    C     0.13352   0.26261   0.40450   0.00000  Uiso   1.00
H70    H     0.12833   0.28166   0.37239   0.00000  Uiso   1.00
H71    H     0.13850   0.28332   0.43540   0.00000  Uiso   1.00
H72    H     0.09999   0.24353   0.42047   0.00000  Uiso   1.00
C73    C     0.50004   0.24592   0.25015   0.00000  Uiso   1.00
C74    C     0.48978   0.15026   0.48094   0.00000  Uiso   1.00
C75    C     0.48835   0.17268   0.43632   0.00000  Uiso   1.00
C76    C     0.51851   0.16519   0.01200   0.00000  Uiso   1.00
C77    C     0.55529   0.19518   0.49054   0.00000  Uiso   1.00
C78    C     0.55477   0.21709   0.44574   0.00000  Uiso   1.00
C79    C     0.51800   0.20862   0.42184   0.00000  Uiso   1.00
C80    C     0.50927   0.15431   0.06529   0.00000  Uiso   1.00
C81    C     0.58300   0.19143   0.06714   0.00000  Uiso   1.00
C82    C     0.45856   0.15761   0.40621   0.00000  Uiso   1.00
C83    C     0.53721   0.31227   0.26245   0.00000  Uiso   1.00
C84    C     0.47364   0.16562   0.34997   0.00000  Uiso   1.00
C85    C     0.53686   0.02149   0.26209   0.00000  Uiso   1.00
C86    C     0.49953   0.04259   0.24880   0.00000  Uiso   1.00
C87    C     0.46230   0.02048   0.23545   0.00000  Uiso   1.00
C88    C     0.46278   0.31115   0.23646   0.00000  Uiso   1.00
C89    C     0.50008   0.29039   0.24980   0.00000  Uiso   1.00
C90    C     0.63298   0.19254   0.28187   0.00000  Uiso   1.00
C91    C     0.34923   0.19246   0.28200   0.00000  Uiso   1.00
C92    C     0.36702   0.14078   0.21810   0.00000  Uiso   1.00
C93    C     0.65074   0.14079   0.21810   0.00000  Uiso   1.00
C94    C     0.49996   0.08732   0.24939   0.00000  Uiso   1.00
C95    C     0.52616   0.16619   0.14991   0.00000  Uiso   1.00
C96    C     0.58954   0.20531   0.01683   0.00000  Uiso   1.00
C97    C     0.54098   0.16891   0.09286   0.00000  Uiso   1.00
C98    C     0.42541   0.12466   0.42530   0.00000  Uiso   1.00
C99    C     0.43031   0.10140   0.46667   0.00000  Uiso   1.00
C100   C     0.46457   0.11235   0.49141   0.00000  Uiso   1.00
Cu101  Cu    0.45311   0.16666   0.25000   0.00000  Uiso   1.00
Cu102  Cu    0.54689   0.16667   0.25000   0.00000  Uiso   1.00
H103   H     0.60799   0.20216   0.08778   0.00000  Uiso   1.00
H104   H     0.56563   0.03786   0.27263   0.00000  Uiso   1.00
H105   H     0.43422   0.29434   0.22601   0.00000  Uiso   1.00
H106   H     0.60719   0.21333   0.30720   0.00000  Uiso   1.00
H107   H     0.36080   0.21312   0.30763   0.00000  Uiso   1.00
H108   H     0.39281   0.11999   0.19263   0.00000  Uiso   1.00
H109   H     0.63913   0.12008   0.19255   0.00000  Uiso   1.00
H110   H     0.61984   0.22615  -0.00000   0.00000  Uiso   1.00
H111   H     0.47121   0.09045   0.01839   0.00000  Uiso   1.00
H112   H     0.40850   0.07378   0.47865   0.00000  Uiso   1.00
H113   H     0.56619   0.29654   0.27312   0.00000  Uiso   1.00
N114   N     0.38265   0.16666   0.24998   0.00000  Uiso   1.00
N115   N     0.61735   0.16669   0.25000   0.00000  Uiso   1.00
O116   O     0.46042   0.22678   0.25000   0.00000  Uiso   1.00
O117   O     0.53961   0.22679   0.25000   0.00000  Uiso   1.00
O118   O     0.44108   0.16665   0.32549   0.00000  Uiso   1.00
O119   O     0.52027   0.16666   0.32549   0.00000  Uiso   1.00
O120   O     0.46039   0.10654   0.24999   0.00000  Uiso   1.00
O121   O     0.53958   0.10655   0.24999   0.00000  Uiso   1.00
O122   O     0.47973   0.16667   0.17451   0.00000  Uiso   1.00
O123   O     0.55892   0.16668   0.17451   0.00000  Uiso   1.00
N124   N     0.42455   0.04093   0.21988   0.00000  Uiso   1.00
H125   H     0.42630   0.03092   0.18246   0.00000  Uiso   1.00
H126   H     0.39050   0.03198   0.24515   0.00000  Uiso   1.00
N127   N     0.58881   0.25046   0.42789   0.00000  Uiso   1.00
H128   H     0.60938   0.24484   0.38934   0.00000  Uiso   1.00
H129   H     0.56918   0.27781   0.42977   0.00000  Uiso   1.00
N130   N     0.46398   0.13500   0.09471   0.00000  Uiso   1.00
H131   H     0.46816   0.10319   0.09664   0.00000  Uiso   1.00
H132   H     0.43403   0.14402   0.08260   0.00000  Uiso   1.00
N133   N     0.38888   0.11286   0.40172   0.00000  Uiso   1.00
H134   H     0.37147   0.13573   0.38757   0.00000  Uiso   1.00
C135   C     0.39482   0.07368   0.37487   0.00000  Uiso   1.00
H136   H     0.39520   0.07839   0.33399   0.00000  Uiso   1.00
H137   H     0.36335   0.05336   0.39426   0.00000  Uiso   1.00
H138   H     0.42953   0.05814   0.37473   0.00000  Uiso   1.00
N139   N     0.50963   0.23683   0.38476   0.00000  Uiso   1.00
H140   H     0.53983   0.25293   0.36273   0.00000  Uiso   1.00
C141   C     0.46685   0.26261   0.40450   0.00000  Uiso   1.00
H142   H     0.46166   0.28166   0.37239   0.00000  Uiso   1.00
H143   H     0.47184   0.28332   0.43540   0.00000  Uiso   1.00
H144   H     0.43333   0.24353   0.42047   0.00000  Uiso   1.00
C145   C     0.83338   0.24592   0.25015   0.00000  Uiso   1.00
C146   C     0.82312   0.15026   0.48094   0.00000  Uiso   1.00
C147   C     0.82168   0.17268   0.43632   0.00000  Uiso   1.00
C148   C     0.85184   0.16519   0.01200   0.00000  Uiso   1.00
C149   C     0.88862   0.19518   0.49054   0.00000  Uiso   1.00
C150   C     0.88811   0.21709   0.44574   0.00000  Uiso   1.00
C151   C     0.85134   0.20862   0.42184   0.00000  Uiso   1.00
C152   C     0.84261   0.15431   0.06529   0.00000  Uiso   1.00
C153   C     0.91634   0.19143   0.06714   0.00000  Uiso   1.00
C154   C     0.79189   0.15761   0.40621   0.00000  Uiso   1.00
C155   C     0.87054   0.31227   0.26245   0.00000  Uiso   1.00
C156   C     0.80697   0.16562   0.34997   0.00000  Uiso   1.00
C157   C     0.87019   0.02149   0.26209   0.00000  Uiso   1.00
C158   C     0.83286   0.04259   0.24880   0.00000  Uiso   1.00
C159   C     0.79563   0.02048   0.23545   0.00000  Uiso   1.00
C160   C     0.79612   0.31115   0.23646   0.00000  Uiso   1.00
C161   C     0.83341   0.29039   0.24980   0.00000  Uiso   1.00
C162   C     0.96631   0.19254   0.28187   0.00000  Uiso   1.00
C163   C     0.68256   0.19246   0.28200   0.00000  Uiso   1.00
C164   C     0.70036   0.14078   0.21810   0.00000  Uiso   1.00
C165   C     0.98407   0.14079   0.21810   0.00000  Uiso   1.00
C166   C     0.83329   0.08732   0.24939   0.00000  Uiso   1.00
C167   C     0.85949   0.16619   0.14991   0.00000  Uiso   1.00
C168   C     0.92287   0.20531   0.01683   0.00000  Uiso   1.00
C169   C     0.87432   0.16891   0.09286   0.00000  Uiso   1.00
C170   C     0.75874   0.12466   0.42530   0.00000  Uiso   1.00
C171   C     0.76364   0.10140   0.46667   0.00000  Uiso   1.00
C172   C     0.79791   0.11235   0.49141   0.00000  Uiso   1.00
Cu173  Cu    0.78645   0.16666   0.25000   0.00000  Uiso   1.00
Cu174  Cu    0.88022   0.16667   0.25000   0.00000  Uiso   1.00
H175   H     0.94132   0.20216   0.08778   0.00000  Uiso   1.00
H176   H     0.89897   0.03786   0.27263   0.00000  Uiso   1.00
H177   H     0.76755   0.29434   0.22601   0.00000  Uiso   1.00
H178   H     0.94053   0.21333   0.30720   0.00000  Uiso   1.00
H179   H     0.69413   0.21312   0.30763   0.00000  Uiso   1.00
H180   H     0.72614   0.11999   0.19263   0.00000  Uiso   1.00
H181   H     0.97247   0.12008   0.19255   0.00000  Uiso   1.00
H182   H     0.95318   0.22615  -0.00000   0.00000  Uiso   1.00
H183   H     0.80455   0.09045   0.01839   0.00000  Uiso   1.00
H184   H     0.74183   0.07378   0.47865   0.00000  Uiso   1.00
H185   H     0.89952   0.29654   0.27312   0.00000  Uiso   1.00
N186   N     0.71598   0.16666   0.24998   0.00000  Uiso   1.00
N187   N     0.95069   0.16669   0.25000   0.00000  Uiso   1.00
O188   O     0.79375   0.22678   0.25000   0.00000  Uiso   1.00
O189   O     0.87294   0.22679   0.25000   0.00000  Uiso   1.00
O190   O     0.77441   0.16665   0.32549   0.00000  Uiso   1.00
O191   O     0.85360   0.16666   0.32549   0.00000  Uiso   1.00
O192   O     0.79373   0.10654   0.24999   0.00000  Uiso   1.00
O193   O     0.87292   0.10655   0.24999   0.00000  Uiso   1.00
O194   O     0.81306   0.16667   0.17451   0.00000  Uiso   1.00
O195   O     0.89225   0.16668   0.17451   0.00000  Uiso   1.00
N196   N     0.75788   0.04093   0.21988   0.00000  Uiso   1.00
H197   H     0.75963   0.03092   0.18246   0.00000  Uiso   1.00
H198   H     0.72383   0.03198   0.24515   0.00000  Uiso   1.00
N199   N     0.92214   0.25046   0.42789   0.00000  Uiso   1.00
H200   H     0.94271   0.24484   0.38934   0.00000  Uiso   1.00
H201   H     0.90251   0.27781   0.42977   0.00000  Uiso   1.00
N202   N     0.79732   0.13500   0.09471   0.00000  Uiso   1.00
H203   H     0.80149   0.10319   0.09664   0.00000  Uiso   1.00
H204   H     0.76737   0.14402   0.08260   0.00000  Uiso   1.00
N205   N     0.72221   0.11286   0.40172   0.00000  Uiso   1.00
H206   H     0.70481   0.13573   0.38757   0.00000  Uiso   1.00
C207   C     0.72815   0.07368   0.37487   0.00000  Uiso   1.00
H208   H     0.72854   0.07839   0.33399   0.00000  Uiso   1.00
H209   H     0.69668   0.05336   0.39426   0.00000  Uiso   1.00
H210   H     0.76287   0.05814   0.37473   0.00000  Uiso   1.00
N211   N     0.84296   0.23683   0.38476   0.00000  Uiso   1.00
H212   H     0.87317   0.25293   0.36273   0.00000  Uiso   1.00
C213   C     0.80019   0.26261   0.40450   0.00000  Uiso   1.00
H214   H     0.79499   0.28166   0.37239   0.00000  Uiso   1.00
H215   H     0.80517   0.28332   0.43540   0.00000  Uiso   1.00
H216   H     0.76666   0.24353   0.42047   0.00000  Uiso   1.00
C217   C     0.16671   0.57925   0.25015   0.00000  Uiso   1.00
C218   C     0.15645   0.48360   0.48094   0.00000  Uiso   1.00
C219   C     0.15502   0.50601   0.43632   0.00000  Uiso   1.00
C220   C     0.18518   0.49852   0.01200   0.00000  Uiso   1.00
C221   C     0.22195   0.52851   0.49054   0.00000  Uiso   1.00
C222   C     0.22144   0.55042   0.44574   0.00000  Uiso   1.00
C223   C     0.18467   0.54196   0.42184   0.00000  Uiso   1.00
C224   C     0.17594   0.48765   0.06529   0.00000  Uiso   1.00
C225   C     0.24967   0.52477   0.06714   0.00000  Uiso   1.00
C226   C     0.12523   0.49094   0.40621   0.00000  Uiso   1.00
C227   C     0.20388   0.64560   0.26245   0.00000  Uiso   1.00
C228   C     0.14031   0.49895   0.34997   0.00000  Uiso   1.00
C229   C     0.20352   0.35482   0.26209   0.00000  Uiso   1.00
C230   C     0.16620   0.37592   0.24880   0.00000  Uiso   1.00
C231   C     0.12896   0.35381   0.23545   0.00000  Uiso   1.00
C232   C     0.12945   0.64448   0.23646   0.00000  Uiso   1.00
C233   C     0.16674   0.62373   0.24980   0.00000  Uiso   1.00
C234   C     0.29964   0.52588   0.28187   0.00000  Uiso   1.00
C235   C     0.01590   0.52579   0.28200   0.00000  Uiso   1.00
C236   C     0.03369   0.47411   0.21810   0.00000  Uiso   1.00
C237   C     0.31740   0.47413   0.21810   0.00000  Uiso   1.00
C238   C     0.16663   0.42065   0.24939   0.00000  Uiso   1.00
C239   C     0.19283   0.49953   0.14991   0.00000  Uiso   1.00
C240   C     0.25621   0.53865   0.01683   0.00000  Uiso   1.00
C241   C     0.20765   0.50224   0.09286   0.00000  Uiso   1.00
C242   C     0.09207   0.45799   0.42530   0.00000  Uiso   1.00
C243   C     0.09697   0.43473   0.46667   0.00000  Uiso   1.00
C244   C     0.13124   0.44568   0.49141   0.00000  Uiso   1.00
Cu245  Cu    0.11978   0.49999   0.25000   0.00000  Uiso   1.00
Cu246  Cu    0.21355   0.50001   0.25000   0.00000  Uiso   1.00
H247   H     0.27466   0.53549   0.08778   0.00000  Uiso   1.00
H248   H     0.23230   0.37119   0.27263   0.00000  Uiso   1.00
H249   H     0.10088   0.62768   0.22601   0.00000  Uiso   1.00
H250   H     0.27386   0.54667   0.30720   0.00000  Uiso   1.00
H251   H     0.02747   0.54645   0.30763   0.00000  Uiso   1.00
H252   H     0.05947   0.45333   0.19263   0.00000  Uiso   1.00
H253   H     0.30580   0.45341   0.19255   0.00000  Uiso   1.00
H254   H     0.28651   0.55948  -0.00000   0.00000  Uiso   1.00
H255   H     0.13788   0.42378   0.01839   0.00000  Uiso   1.00
H256   H     0.07517   0.40711   0.47865   0.00000  Uiso   1.00
H257   H     0.23286   0.62988   0.27312   0.00000  Uiso   1.00
N258   N     0.04931   0.49999   0.24998   0.00000  Uiso   1.00
N259   N     0.28402   0.50002   0.25000   0.00000  Uiso   1.00
O260   O     0.12708   0.56011   0.25000   0.00000  Uiso   1.00
O261   O     0.20627   0.56012   0.25000   0.00000  Uiso   1.00
O262   O     0.10775   0.49998   0.32549   0.00000  Uiso   1.00
O263   O     0.18694   0.49999   0.32549   0.00000  Uiso   1.00
O264   O     0.12706   0.43988   0.24999   0.00000  Uiso   1.00
O265   O     0.20625   0.43989   0.24999   0.00000  Uiso   1.00
O266   O     0.14640   0.50001   0.17451   0.00000  Uiso   1.00
O267   O     0.22559   0.50002   0.17451   0.00000  Uiso   1.00
N268   N     0.09121   0.37426   0.21988   0.00000  Uiso   1.00
H269   H     0.09297   0.36425   0.18246   0.00000  Uiso   1.00
H270   H     0.05717   0.36532   0.24515   0.00000  Uiso   1.00
N271   N     0.25547   0.58380   0.42789   0.00000  Uiso   1.00
H272   H     0.27604   0.57817   0.38934   0.00000  Uiso   1.00
H273   H     0.23584   0.61114   0.42977   0.00000  Uiso   1.00
N274   N     0.13065   0.46833   0.09471   0.00000  Uiso   1.00
H275   H     0.13482   0.43652   0.09664   0.00000  Uiso   1.00
H276   H     0.10070   0.47736   0.08260   0.00000  Uiso   1.00
N277   N     0.05554   0.44620   0.40172   0.00000  Uiso   1.00
H278   H     0.03814   0.46906   0.38757   0.00000  Uiso   1.00
C279   C     0.06149   0.40702   0.37487   0.00000  Uiso   1.00
H280   H     0.06187   0.41172   0.33399   0.00000  Uiso   1.00
H281   H     0.03001   0.38669   0.39426   0.00000  Uiso   1.00
H282   H     0.09620   0.39148   0.37473   0.00000  Uiso   1.00
N283   N     0.17629   0.57016   0.38476   0.00000  Uiso   1.00
H284   H     0.20650   0.58627   0.36273   0.00000  Uiso   1.00
C285   C     0.13352   0.59594   0.40450   0.00000  Uiso   1.00
H286   H     0.12833   0.61499   0.37239   0.00000  Uiso   1.00
H287   H     0.13850   0.61666   0.43540   0.00000  Uiso   1.00
H288   H     0.09999   0.57687   0.42047   0.00000  Uiso   1.00
C289   C     0.50004   0.57925   0.25015   0.00000  Uiso   1.00
C290   C     0.48978   0.48360   0.48094   0.00000  Uiso   1.00
C291   C     0.48835   0.50601   0.43632   0.00000  Uiso   1.00
C292   C     0.51851   0.49852   0.01200   0.00000  Uiso   1.00
C293   C     0.55529   0.52851   0.49054   0.00000  Uiso   1.00
C294   C     0.55477   0.55042   0.44574   0.00000  Uiso   1.00
C295   C     0.51800   0.54196   0.42184   0.00000  Uiso   1.00
C296   C     0.50927   0.48765   0.06529   0.00000  Uiso   1.00
C297   C     0.58300   0.52477   0.06714   0.00000  Uiso   1.00
C298   C     0.45856   0.49094   0.40621   0.00000  Uiso   1.00
C299   C     0.53721   0.64560   0.26245   0.00000  Uiso   1.00
C300   C     0.47364   0.49895   0.34997   0.00000  Uiso   1.00
C301   C     0.53686   0.35482   0.26209   0.00000  Uiso   1.00
C302   C     0.49953   0.37592   0.24880   0.00000  Uiso   1.00
C303   C     0.46230   0.35381   0.23545   0.00000  Uiso   1.00
C304   C     0.46278   0.64448   0.23646   0.00000  Uiso   1.00
C305   C     0.50008   0.62373   0.24980   0.00000  Uiso   1.00
C306   C     0.63298   0.52588   0.28187   0.00000  Uiso   1.00
C307   C     0.34923   0.52579   0.28200   0.00000  Uiso   1.00
C308   C     0.36702   0.47411   0.21810   0.00000  Uiso   1.00
C309   C     0.65074   0.47413   0.21810   0.00000  Uiso   1.00
C310   C     0.49996   0.42065   0.24939   0.00000  Uiso   1.00
C311   C     0.52616   0.49953   0.14991   0.00000  Uiso   1.00
C312   C     0.58954   0.53865   0.01683   0.00000  Uiso   1.00
C313   C     0.54098   0.50224   0.09286   0.00000  Uiso   1.00
C314   C     0.42541   0.45799   0.42530   0.00000  Uiso   1.00
C315   C     0.43031   0.43473   0.46667   0.00000  Uiso   1.00
C316   C     0.46457   0.44568   0.49141   0.00000  Uiso   1.00
Cu317  Cu    0.45311   0.49999   0.25000   0.00000  Uiso   1.00
Cu318  Cu    0.54689   0.50001   0.25000   0.00000  Uiso   1.00
H319   H     0.60799   0.53549   0.08778   0.00000  Uiso   1.00
H320   H     0.56563   0.37119   0.27263   0.00000  Uiso   1.00
H321   H     0.43422   0.62768   0.22601   0.00000  Uiso   1.00
H322   H     0.60719   0.54667   0.30720   0.00000  Uiso   1.00
H323   H     0.36080   0.54645   0.30763   0.00000  Uiso   1.00
H324   H     0.39281   0.45333   0.19263   0.00000  Uiso   1.00
H325   H     0.63913   0.45341   0.19255   0.00000  Uiso   1.00
H326   H     0.61984   0.55948  -0.00000   0.00000  Uiso   1.00
H327   H     0.47121   0.42378   0.01839   0.00000  Uiso   1.00
H328   H     0.40850   0.40711   0.47865   0.00000  Uiso   1.00
H329   H     0.56619   0.62988   0.27312   0.00000  Uiso   1.00
N330   N     0.38265   0.49999   0.24998   0.00000  Uiso   1.00
N331   N     0.61735   0.50002   0.25000   0.00000  Uiso   1.00
O332   O     0.46042   0.56011   0.25000   0.00000  Uiso   1.00
O333   O     0.53961   0.56012   0.25000   0.00000  Uiso   1.00
O334   O     0.44108   0.49998   0.32549   0.00000  Uiso   1.00
O335   O     0.52027   0.49999   0.32549   0.00000  Uiso   1.00
O336   O     0.46039   0.43988   0.24999   0.00000  Uiso   1.00
O337   O     0.53958   0.43989   0.24999   0.00000  Uiso   1.00
O338   O     0.47973   0.50001   0.17451   0.00000  Uiso   1.00
O339   O     0.55892   0.50002   0.17451   0.00000  Uiso   1.00
N340   N     0.42455   0.37426   0.21988   0.00000  Uiso   1.00
H341   H     0.42630   0.36425   0.18246   0.00000  Uiso   1.00
H342   H     0.39050   0.36532   0.24515   0.00000  Uiso   1.00
N343   N     0.58881   0.58380   0.42789   0.00000  Uiso   1.00
H344   H     0.60938   0.57817   0.38934   0.00000  Uiso   1.00
H345   H     0.56918   0.61114   0.42977   0.00000  Uiso   1.00
N346   N     0.46398   0.46833   0.09471   0.00000  Uiso   1.00
H347   H     0.46816   0.43652   0.09664   0.00000  Uiso   1.00
H348   H     0.43403   0.47736   0.08260   0.00000  Uiso   1.00
N349   N     0.38888   0.44620   0.40172   0.00000  Uiso   1.00
H350   H     0.37147   0.46906   0.38757   0.00000  Uiso   1.00
C351   C     0.39482   0.40702   0.37487   0.00000  Uiso   1.00
H352   H     0.39520   0.41172   0.33399   0.00000  Uiso   1.00
H353   H     0.36335   0.38669   0.39426   0.00000  Uiso   1.00
H354   H     0.42953   0.39148   0.37473   0.00000  Uiso   1.00
N355   N     0.50963   0.57016   0.38476   0.00000  Uiso   1.00
H356   H     0.53983   0.58627   0.36273   0.00000  Uiso   1.00
C357   C     0.46685   0.59594   0.40450   0.00000  Uiso   1.00
H358   H     0.46166   0.61499   0.37239   0.00000  Uiso   1.00
H359   H     0.47184   0.61666   0.43540   0.00000  Uiso   1.00
H360   H     0.43333   0.57687   0.42047   0.00000  Uiso   1.00
C361   C     0.83338   0.57925   0.25015   0.00000  Uiso   1.00
C362   C     0.82312   0.48360   0.48094   0.00000  Uiso   1.00
C363   C     0.82168   0.50601   0.43632   0.00000  Uiso   1.00
C364   C     0.85184   0.49852   0.01200   0.00000  Uiso   1.00
C365   C     0.88862   0.52851   0.49054   0.00000  Uiso   1.00
C366   C     0.88811   0.55042   0.44574   0.00000  Uiso   1.00
C367   C     0.85134   0.54196   0.42184   0.00000  Uiso   1.00
C368   C     0.84261   0.48765   0.06529   0.00000  Uiso   1.00
C369   C     0.91634   0.52477   0.06714   0.00000  Uiso   1.00
C370   C     0.79189   0.49094   0.40621   0.00000  Uiso   1.00
C371   C     0.87054   0.64560   0.26245   0.00000  Uiso   1.00
C372   C     0.80697   0.49895   0.34997   0.00000  Uiso   1.00
C373   C     0.87019   0.35482   0.26209   0.00000  Uiso   1.00
C374   C     0.83286   0.37592   0.24880   0.00000  Uiso   1.00
C375   C     0.79563   0.35381   0.23545   0.00000  Uiso   1.00
C376   C     0.79612   0.64448   0.23646   0.00000  Uiso   1.00
C377   C     0.83341   0.62373   0.24980   0.00000  Uiso   1.00
C378   C     0.96631   0.52588   0.28187   0.00000  Uiso   1.00
C379   C     0.68256   0.52579   0.28200   0.00000  Uiso   1.00
C380   C     0.70036   0.47411   0.21810   0.00000  Uiso   1.00
C381   C     0.98407   0.47413   0.21810   0.00000  Uiso   1.00
C382   C     0.83329   0.42065   0.24939   0.00000  Uiso   1.00
C383   C     0.85949   0.49953   0.14991   0.00000  Uiso   1.00
C384   C     0.92287   0.53865   0.01683   0.00000  Uiso   1.00
C385   C     0.87432   0.50224   0.09286   0.00000  Uiso   1.00
C386   C     0.75874   0.45799   0.42530   0.00000  Uiso   1.00
C387   C     0.76364   0.43473   0.46667   0.00000  Uiso   1.00
C388   C     0.79791   0.44568   0.49141   0.00000  Uiso   1.00
Cu389  Cu    0.78645   0.49999   0.25000   0.00000  Uiso   1.00
Cu390  Cu    0.88022   0.50001   0.25000   0.00000  Uiso   1.00
H391   H     0.94132   0.53549   0.08778   0.00000  Uiso   1.00
H392   H     0.89897   0.37119   0.27263   0.00000  Uiso   1.00
H393   H     0.76755   0.62768   0.22601   0.00000  Uiso   1.00
H394   H     0.94053   0.54667   0.30720   0.00000  Uiso   1.00
H395   H     0.69413   0.54645   0.30763   0.00000  Uiso   1.00
H396   H     0.72614   0.45333   0.19263   0.00000  Uiso   1.00
H397   H     0.97247   0.45341   0.19255   0.00000  Uiso   1.00
H398   H     0.95318   0.55948  -0.00000   0.00000  Uiso   1.00
H399   H     0.80455   0.42378   0.01839   0.00000  Uiso   1.00
H400   H     0.74183   0.40711   0.47865   0.00000  Uiso   1.00
H401   H     0.89952   0.62988   0.27312   0.00000  Uiso   1.00
N402   N     0.71598   0.49999   0.24998   0.00000  Uiso   1.00
N403   N     0.95069   0.50002   0.25000   0.00000  Uiso   1.00
O404   O     0.79375   0.56011   0.25000   0.00000  Uiso   1.00
O405   O     0.87294   0.56012   0.25000   0.00000  Uiso   1.00
O406   O     0.77441   0.49998   0.32549   0.00000  Uiso   1.00
O407   O     0.85360   0.49999   0.32549   0.00000  Uiso   1.00
O408   O     0.79373   0.43988   0.24999   0.00000  Uiso   1.00
O409   O     0.87292   0.43989   0.24999   0.00000  Uiso   1.00
O410   O     0.81306   0.50001   0.17451   0.00000  Uiso   1.00
O411   O     0.89225   0.50002   0.17451   0.00000  Uiso   1.00
N412   N     0.75788   0.37426   0.21988   0.00000  Uiso   1.00
H413   H     0.75963   0.36425   0.18246   0.00000  Uiso   1.00
H414   H     0.72383   0.36532   0.24515   0.00000  Uiso   1.00
N415   N     0.92214   0.58380   0.42789   0.00000  Uiso   1.00
H416   H     0.94271   0.57817   0.38934   0.00000  Uiso   1.00
H417   H     0.90251   0.61114   0.42977   0.00000  Uiso   1.00
N418   N     0.79732   0.46833   0.09471   0.00000  Uiso   1.00
H419   H     0.80149   0.43652   0.09664   0.00000  Uiso   1.00
H420   H     0.76737   0.47736   0.08260   0.00000  Uiso   1.00
N421   N     0.72221   0.44620   0.40172   0.00000  Uiso   1.00
H422   H     0.70481   0.46906   0.38757   0.00000  Uiso   1.00
C423   C     0.72815   0.40702   0.37487   0.00000  Uiso   1.00
H424   H     0.72854   0.41172   0.33399   0.00000  Uiso   1.00
H425   H     0.69668   0.38669   0.39426   0.00000  Uiso   1.00
H426   H     0.76287   0.39148   0.37473   0.00000  Uiso   1.00
N427   N     0.84296   0.57016   0.38476   0.00000  Uiso   1.00
H428   H     0.87317   0.58627   0.36273   0.00000  Uiso   1.00
C429   C     0.80019   0.59594   0.40450   0.00000  Uiso   1.00
H430   H     0.79499   0.61499   0.37239   0.00000  Uiso   1.00
H431   H     0.80517   0.61666   0.43540   0.00000  Uiso   1.00
H432   H     0.76666   0.57687   0.42047   0.00000  Uiso   1.00
C433   C     0.16671   0.91258   0.25015   0.00000  Uiso   1.00
C434   C     0.15645   0.81693   0.48094   0.00000  Uiso   1.00
C435   C     0.15502   0.83934   0.43632   0.00000  Uiso   1.00
C436   C     0.18518   0.83186   0.01200   0.00000  Uiso   1.00
C437   C     0.22195   0.86185   0.49054   0.00000  Uiso   1.00
C438   C     0.22144   0.88376   0.44574   0.00000  Uiso   1.00
C439   C     0.18467   0.87529   0.42184   0.00000  Uiso   1.00
C440   C     0.17594   0.82098   0.06529   0.00000  Uiso   1.00
C441   C     0.24967   0.85810   0.06714   0.00000  Uiso   1.00
C442   C     0.12523   0.82427   0.40621   0.00000  Uiso   1.00
C443   C     0.20388   0.97894   0.26245   0.00000  Uiso   1.00
C444   C     0.14031   0.83228   0.34997   0.00000  Uiso   1.00
C445   C     0.20352   0.68816   0.26209   0.00000  Uiso   1.00
C446   C     0.16620   0.70925   0.24880   0.00000  Uiso   1.00
C447   C     0.12896   0.68714   0.23545   0.00000  Uiso   1.00
C448   C     0.12945   0.97781   0.23646   0.00000  Uiso   1.00
C449   C     0.16674   0.95706   0.24980   0.00000  Uiso   1.00
C450   C     0.29964   0.85921   0.28187   0.00000  Uiso   1.00
C451   C     0.01590   0.85913   0.28200   0.00000  Uiso   1.00
C452   C     0.03369   0.80744   0.21810   0.00000  Uiso   1.00
C453   C     0.31740   0.80746   0.21810   0.00000  Uiso   1.00
C454   C     0.16663   0.75399   0.24939   0.00000  Uiso   1.00
C455   C     0.19283   0.83286   0.14991   0.00000  Uiso   1.00
C456   C     0.25621   0.87198   0.01683   0.00000  Uiso   1.00
C457   C     0.20765   0.83558   0.09286   0.00000  Uiso   1.00
C458   C     0.09207   0.79132   0.42530   0.00000  Uiso   1.00
C459   C     0.09697   0.76807   0.46667   0.00000  Uiso   1.00
C460   C     0.13124   0.77902   0.49141   0.00000  Uiso   1.00
Cu461  Cu    0.11978   0.83333   0.25000   0.00000  Uiso   1.00
Cu462  Cu    0.21355   0.83334   0.25000   0.00000  Uiso   1.00
H463   H     0.27466   0.86882   0.08778   0.00000  Uiso   1.00
H464   H     0.23230   0.70453   0.27263   0.00000  Uiso   1.00
H465   H     0.10088   0.96101   0.22601   0.00000  Uiso   1.00
H466   H     0.27386   0.88000   0.30720   0.00000  Uiso   1.00
H467   H     0.02747   0.87978   0.30763   0.00000  Uiso   1.00
H468   H     0.05947   0.78666   0.19263   0.00000  Uiso   1.00
H469   H     0.30580   0.78674   0.19255   0.00000  Uiso   1.00
H470   H     0.28651   0.89281  -0.00000   0.00000  Uiso   1.00
H471   H     0.13788   0.75711   0.01839   0.00000  Uiso   1.00
H472   H     0.07517   0.74044   0.47865   0.00000  Uiso   1.00
H473   H     0.23286   0.96321   0.27312   0.00000  Uiso   1.00
N474   N     0.04931   0.83332   0.24998   0.00000  Uiso   1.00
N475   N     0.28402   0.83335   0.25000   0.00000  Uiso   1.00
O476   O     0.12708   0.89345   0.25000   0.00000  Uiso   1.00
O477   O     0.20627   0.89346   0.25000   0.00000  Uiso   1.00
O478   O     0.10775   0.83332   0.32549   0.00000  Uiso   1.00
O479   O     0.18694   0.83333   0.32549   0.00000  Uiso   1.00
O480   O     0.12706   0.77321   0.24999   0.00000  Uiso   1.00
O481   O     0.20625   0.77322   0.24999   0.00000  Uiso   1.00
O482   O     0.14640   0.83334   0.17451   0.00000  Uiso   1.00
O483   O     0.22559   0.83335   0.17451   0.00000  Uiso   1.00
N484   N     0.09121   0.70759   0.21988   0.00000  Uiso   1.00
H485   H     0.09297   0.69758   0.18246   0.00000  Uiso   1.00
H486   H     0.05717   0.69865   0.24515   0.00000  Uiso   1.00
N487   N     0.25547   0.91713   0.42789   0.00000  Uiso   1.00
H488   H     0.27604   0.91151   0.38934   0.00000  Uiso   1.00
H489   H     0.23584   0.94447   0.42977   0.00000  Uiso   1.00
N490   N     0.13065   0.80167   0.09471   0.00000  Uiso   1.00
H491   H     0.13482   0.76986   0.09664   0.00000  Uiso   1.00
H492   H     0.10070   0.81069   0.08260   0.00000  Uiso   1.00
N493   N     0.05554   0.77953   0.40172   0.00000  Uiso   1.00
H494   H     0.03814   0.80240   0.38757   0.00000  Uiso   1.00
C495   C     0.06149   0.74035   0.37487   0.00000  Uiso   1.00
H496   H     0.06187   0.74506   0.33399   0.00000  Uiso   1.00
H497   H     0.03001   0.72002   0.39426   0.00000  Uiso   1.00
H498   H     0.09620   0.72481   0.37473   0.00000  Uiso   1.00
N499   N     0.17629   0.90349   0.38476   0.00000  Uiso   1.00
H500   H     0.20650   0.91960   0.36273   0.00000  Uiso   1.00
C501   C     0.13352   0.92927   0.40450   0.00000  Uiso   1.00
H502   H     0.12833   0.94833   0.37239   0.00000  Uiso   1.00
H503   H     0.13850   0.94999   0.43540   0.00000  Uiso   1.00
H504   H     0.09999   0.91020   0.42047   0.00000  Uiso   1.00
C505   C     0.50004   0.91258   0.25015   0.00000  Uiso   1.00
C506   C     0.48978   0.81693   0.48094   0.00000  Uiso   1.00
C507   C     0.48835   0.83934   0.43632   0.00000  Uiso   1.00
C508   C     0.51851   0.83186   0.01200   0.00000  Uiso   1.00
C509   C     0.55529   0.86185   0.49054   0.00000  Uiso   1.00
C510   C     0.55477   0.88376   0.44574   0.00000  Uiso   1.00
C511   C     0.51800   0.87529   0.42184   0.00000  Uiso   1.00
C512   C     0.50927   0.82098   0.06529   0.00000  Uiso   1.00
C513   C     0.58300   0.85810   0.06714   0.00000  Uiso   1.00
C514   C     0.45856   0.82427   0.40621   0.00000  Uiso   1.00
C515   C     0.53721   0.97894   0.26245   0.00000  Uiso   1.00
C516   C     0.47364   0.83228   0.34997   0.00000  Uiso   1.00
C517   C     0.53686   0.68816   0.26209   0.00000  Uiso   1.00
C518   C     0.49953   0.70925   0.24880   0.00000  Uiso   1.00
C519   C     0.46230   0.68714   0.23545   0.00000  Uiso   1.00
C520   C     0.46278   0.97781   0.23646   0.00000  Uiso   1.00
C521   C     0.50008   0.95706   0.24980   0.00000  Uiso   1.00
C522   C     0.63298   0.85921   0.28187   0.00000  Uiso   1.00
C523   C     0.34923   0.85913   0.28200   0.00000  Uiso   1.00
C524   C     0.36702   0.80744   0.21810   0.00000  Uiso   1.00
C525   C     0.65074   0.80746   0.21810   0.00000  Uiso   1.00
C526   C     0.49996   0.75399   0.24939   0.00000  Uiso   1.00
C527   C     0.52616   0.83286   0.14991   0.00000  Uiso   1.00
C528   C     0.58954   0.87198   0.01683   0.00000  Uiso   1.00
C529   C     0.54098   0.83558   0.09286   0.00000  Uiso   1.00
C530   C     0.42541   0.79132   0.42530   0.00000  Uiso   1.00
C531   C     0.43031   0.76807   0.46667   0.00000  Uiso   1.00
C532   C     0.46457   0.77902   0.49141   0.00000  Uiso   1.00
Cu533  Cu    0.45311   0.83333   0.25000   0.00000  Uiso   1.00
Cu534  Cu    0.54689   0.83334   0.25000   0.00000  Uiso   1.00
H535   H     0.60799   0.86882   0.08778   0.00000  Uiso   1.00
H536   H     0.56563   0.70453   0.27263   0.00000  Uiso   1.00
H537   H     0.43422   0.96101   0.22601   0.00000  Uiso   1.00
H538   H     0.60719   0.88000   0.30720   0.00000  Uiso   1.00
H539   H     0.36080   0.87978   0.30763   0.00000  Uiso   1.00
H540   H     0.39281   0.78666   0.19263   0.00000  Uiso   1.00
H541   H     0.63913   0.78674   0.19255   0.00000  Uiso   1.00
H542   H     0.61984   0.89281  -0.00000   0.00000  Uiso   1.00
H543   H     0.47121   0.75711   0.01839   0.00000  Uiso   1.00
H544   H     0.40850   0.74044   0.47865   0.00000  Uiso   1.00
H545   H     0.56619   0.96321   0.27312   0.00000  Uiso   1.00
N546   N     0.38265   0.83332   0.24998   0.00000  Uiso   1.00
N547   N     0.61735   0.83335   0.25000   0.00000  Uiso   1.00
O548   O     0.46042   0.89345   0.25000   0.00000  Uiso   1.00
O549   O     0.53961   0.89346   0.25000   0.00000  Uiso   1.00
O550   O     0.44108   0.83332   0.32549   0.00000  Uiso   1.00
O551   O     0.52027   0.83333   0.32549   0.00000  Uiso   1.00
O552   O     0.46039   0.77321   0.24999   0.00000  Uiso   1.00
O553   O     0.53958   0.77322   0.24999   0.00000  Uiso   1.00
O554   O     0.47973   0.83334   0.17451   0.00000  Uiso   1.00
O555   O     0.55892   0.83335   0.17451   0.00000  Uiso   1.00
N556   N     0.42455   0.70759   0.21988   0.00000  Uiso   1.00
H557   H     0.42630   0.69758   0.18246   0.00000  Uiso   1.00
H558   H     0.39050   0.69865   0.24515   0.00000  Uiso   1.00
N559   N     0.58881   0.91713   0.42789   0.00000  Uiso   1.00
H560   H     0.60938   0.91151   0.38934   0.00000  Uiso   1.00
H561   H     0.56918   0.94447   0.42977   0.00000  Uiso   1.00
N562   N     0.46398   0.80167   0.09471   0.00000  Uiso   1.00
H563   H     0.46816   0.76986   0.09664   0.00000  Uiso   1.00
H564   H     0.43403   0.81069   0.08260   0.00000  Uiso   1.00
N565   N     0.38888   0.77953   0.40172   0.00000  Uiso   1.00
H566   H     0.37147   0.80240   0.38757   0.00000  Uiso   1.00
C567   C     0.39482   0.74035   0.37487   0.00000  Uiso   1.00
H568   H     0.39520   0.74506   0.33399   0.00000  Uiso   1.00
H569   H     0.36335   0.72002   0.39426   0.00000  Uiso   1.00
H570   H     0.42953   0.72481   0.37473   0.00000  Uiso   1.00
N571   N     0.50963   0.90349   0.38476   0.00000  Uiso   1.00
H572   H     0.53983   0.91960   0.36273   0.00000  Uiso   1.00
C573   C     0.46685   0.92927   0.40450   0.00000  Uiso   1.00
H574   H     0.46166   0.94833   0.37239   0.00000  Uiso   1.00
H575   H     0.47184   0.94999   0.43540   0.00000  Uiso   1.00
H576   H     0.43333   0.91020   0.42047   0.00000  Uiso   1.00
C577   C     0.83338   0.91258   0.25015   0.00000  Uiso   1.00
C578   C     0.82312   0.81693   0.48094   0.00000  Uiso   1.00
C579   C     0.82168   0.83934   0.43632   0.00000  Uiso   1.00
C580   C     0.85184   0.83186   0.01200   0.00000  Uiso   1.00
C581   C     0.88862   0.86185   0.49054   0.00000  Uiso   1.00
C582   C     0.88811   0.88376   0.44574   0.00000  Uiso   1.00
C583   C     0.85134   0.87529   0.42184   0.00000  Uiso   1.00
C584   C     0.84261   0.82098   0.06529   0.00000  Uiso   1.00
C585   C     0.91634   0.85810   0.06714   0.00000  Uiso   1.00
C586   C     0.79189   0.82427   0.40621   0.00000  Uiso   1.00
C587   C     0.87054   0.97894   0.26245   0.00000  Uiso   1.00
C588   C     0.80697   0.83228   0.34997   0.00000  Uiso   1.00
C589   C     0.87019   0.68816   0.26209   0.00000  Uiso   1.00
C590   C     0.83286   0.70925   0.24880   0.00000  Uiso   1.00
C591   C     0.79563   0.68714   0.23545   0.00000  Uiso   1.00
C592   C     0.79612   0.97781   0.23646   0.00000  Uiso   1.00
C593   C     0.83341   0.95706   0.24980   0.00000  Uiso   1.00
C594   C     0.96631   0.85921   0.28187   0.00000  Uiso   1.00
C595   C     0.68256   0.85913   0.28200   0.00000  Uiso   1.00
C596   C     0.70036   0.80744   0.21810   0.00000  Uiso   1.00
C597   C     0.98407   0.80746   0.21810   0.00000  Uiso   1.00
C598   C     0.83329   0.75399   0.24939   0.00000  Uiso   1.00
C599   C     0.85949   0.83286   0.14991   0.00000  Uiso   1.00
C600   C     0.92287   0.87198   0.01683   0.00000  Uiso   1.00
C601   C     0.87432   0.83558   0.09286   0.00000  Uiso   1.00
C602   C     0.75874   0.79132   0.42530   0.00000  Uiso   1.00
C603   C     0.76364   0.76807   0.46667   0.00000  Uiso   1.00
C604   C     0.79791   0.77902   0.49141   0.00000  Uiso   1.00
Cu605  Cu    0.78645   0.83333   0.25000   0.00000  Uiso   1.00
Cu606  Cu    0.88022   0.83334   0.25000   0.00000  Uiso   1.00
H607   H     0.94132   0.86882   0.08778   0.00000  Uiso   1.00
H608   H     0.89897   0.70453   0.27263   0.00000  Uiso   1.00
H609   H     0.76755   0.96101   0.22601   0.00000  Uiso   1.00
H610   H     0.94053   0.88000   0.30720   0.00000  Uiso   1.00
H611   H     0.69413   0.87978   0.30763   0.00000  Uiso   1.00
H612   H     0.72614   0.78666   0.19263   0.00000  Uiso   1.00
H613   H     0.97247   0.78674   0.19255   0.00000  Uiso   1.00
H614   H     0.95318   0.89281  -0.00000   0.00000  Uiso   1.00
H615   H     0.80455   0.75711   0.01839   0.00000  Uiso   1.00
H616   H     0.74183   0.74044   0.47865   0.00000  Uiso   1.00
H617   H     0.89952   0.96321   0.27312   0.00000  Uiso   1.00
N618   N     0.71598   0.83332   0.24998   0.00000  Uiso   1.00
N619   N     0.95069   0.83335   0.25000   0.00000  Uiso   1.00
O620   O     0.79375   0.89345   0.25000   0.00000  Uiso   1.00
O621   O     0.87294   0.89346   0.25000   0.00000  Uiso   1.00
O622   O     0.77441   0.83332   0.32549   0.00000  Uiso   1.00
O623   O     0.85360   0.83333   0.32549   0.00000  Uiso   1.00
O624   O     0.79373   0.77321   0.24999   0.00000  Uiso   1.00
O625   O     0.87292   0.77322   0.24999   0.00000  Uiso   1.00
O626   O     0.81306   0.83334   0.17451   0.00000  Uiso   1.00
O627   O     0.89225   0.83335   0.17451   0.00000  Uiso   1.00
N628   N     0.75788   0.70759   0.21988   0.00000  Uiso   1.00
H629   H     0.75963   0.69758   0.18246   0.00000  Uiso   1.00
H630   H     0.72383   0.69865   0.24515   0.00000  Uiso   1.00
N631   N     0.92214   0.91713   0.42789   0.00000  Uiso   1.00
H632   H     0.94271   0.91151   0.38934   0.00000  Uiso   1.00
H633   H     0.90251   0.94447   0.42977   0.00000  Uiso   1.00
N634   N     0.79732   0.80167   0.09471   0.00000  Uiso   1.00
H635   H     0.80149   0.76986   0.09664   0.00000  Uiso   1.00
H636   H     0.76737   0.81069   0.08260   0.00000  Uiso   1.00
N637   N     0.72221   0.77953   0.40172   0.00000  Uiso   1.00
H638   H     0.70481   0.80240   0.38757   0.00000  Uiso   1.00
C639   C     0.72815   0.74035   0.37487   0.00000  Uiso   1.00
H640   H     0.72854   0.74506   0.33399   0.00000  Uiso   1.00
H641   H     0.69668   0.72002   0.39426   0.00000  Uiso   1.00
H642   H     0.76287   0.72481   0.37473   0.00000  Uiso   1.00
N643   N     0.84296   0.90349   0.38476   0.00000  Uiso   1.00
H644   H     0.87317   0.91960   0.36273   0.00000  Uiso   1.00
C645   C     0.80019   0.92927   0.40450   0.00000  Uiso   1.00
H646   H     0.79499   0.94833   0.37239   0.00000  Uiso   1.00
H647   H     0.80517   0.94999   0.43540   0.00000  Uiso   1.00
H648   H     0.76666   0.91020   0.42047   0.00000  Uiso   1.00
C649   C     0.16671   0.24592   0.75015   0.00000  Uiso   1.00
C650   C     0.15645   0.15026   0.98094   0.00000  Uiso   1.00
C651   C     0.15502   0.17268   0.93632   0.00000  Uiso   1.00
C652   C     0.18518   0.16519   0.51200   0.00000  Uiso   1.00
C653   C     0.22195   0.19518   0.99054   0.00000  Uiso   1.00
C654   C     0.22144   0.21709   0.94574   0.00000  Uiso   1.00
C655   C     0.18467   0.20862   0.92184   0.00000  Uiso   1.00
C656   C     0.17594   0.15431   0.56529   0.00000  Uiso   1.00
C657   C     0.24967   0.19143   0.56714   0.00000  Uiso   1.00
C658   C     0.12523   0.15761   0.90621   0.00000  Uiso   1.00
C659   C     0.20388   0.31227   0.76245   0.00000  Uiso   1.00
C660   C     0.14031   0.16562   0.84997   0.00000  Uiso   1.00
C661   C     0.20352   0.02149   0.76209   0.00000  Uiso   1.00
C662   C     0.16620   0.04259   0.74880   0.00000  Uiso   1.00
C663   C     0.12896   0.02048   0.73545   0.00000  Uiso   1.00
C664   C     0.12945   0.31115   0.73646   0.00000  Uiso   1.00
C665   C     0.16674   0.29039   0.74980   0.00000  Uiso   1.00
C666   C     0.29964   0.19254   0.78187   0.00000  Uiso   1.00
C667   C     0.01590   0.19246   0.78200   0.00000  Uiso   1.00
C668   C     0.03369   0.14078   0.71810   0.00000  Uiso   1.00
C669   C     0.31740   0.14079   0.71810   0.00000  Uiso   1.00
C670   C     0.16663   0.08732   0.74939   0.00000  Uiso   1.00
C671   C     0.19283   0.16619   0.64991   0.00000  Uiso   1.00
C672   C     0.25621   0.20531   0.51683   0.00000  Uiso   1.00
C673   C     0.20765   0.16891   0.59286   0.00000  Uiso   1.00
C674   C     0.09207   0.12466   0.92530   0.00000  Uiso   1.00
C675   C     0.09697   0.10140   0.96667   0.00000  Uiso   1.00
C676   C     0.13124   0.11235   0.99141   0.00000  Uiso   1.00
Cu677  Cu    0.11978   0.16666   0.75000   0.00000  Uiso   1.00
Cu678  Cu    0.21355   0.16667   0.75000   0.00000  Uiso   1.00
H679   H     0.27466   0.20216   0.58778   0.00000  Uiso   1.00
H680   H     0.23230   0.03786   0.77263   0.00000  Uiso   1.00
H681   H     0.10088   0.29434   0.72601   0.00000  Uiso   1.00
H682   H     0.27386   0.21333   0.80720   0.00000  Uiso   1.00
H683   H     0.02747   0.21312   0.80763   0.00000  Uiso   1.00
H684   H     0.05947   0.11999   0.69263   0.00000  Uiso   1.00
H685   H     0.30580   0.12008   0.69255   0.00000  Uiso   1.00
H686   H     0.28651   0.22615   0.50000   0.00000  Uiso   1.00
H687   H     0.13788   0.09045   0.51839   0.00000  Uiso   1.00
H688   H     0.07517   0.07378   0.97865   0.00000  Uiso   1.00
H689   H     0.23286   0.29654   0.77312   0.00000  Uiso   1.00
N690   N     0.04931   0.16666   0.74998   0.00000  Uiso   1.00
N691   N     0.28402   0.16669   0.75000   0.00000  Uiso   1.00
O692   O     0.12708   0.22678   0.75000   0.00000  Uiso   1.00
O693   O     0.20627   0.22679   0.75000   0.00000  Uiso   1.00
O694   O     0.10775   0.16665   0.82549   0.00000  Uiso   1.00
O695   O     0.18694   0.16666   0.82549   0.00000  Uiso   1.00
O696   O     0.12706   0.10654   0.74999   0.00000  Uiso   1.00
O697   O     0.20625   0.10655   0.74999   0.00000  Uiso   1.00
O698   O     0.14640   0.16667   0.67451   0.00000  Uiso   1.00
O699   O     0.22559   0.16668   0.67451   0.00000  Uiso   1.00
N700   N     0.09121   0.04093   0.71988   0.00000  Uiso   1.00
H701   H     0.09297   0.03092   0.68246   0.00000  Uiso   1.00
H702   H     0.05717   0.03198   0.74515   0.00000  Uiso   1.00
N703   N     0.25547   0.25046   0.92789   0.00000  Uiso   1.00
H704   H     0.27604   0.24484   0.88934   0.00000  Uiso   1.00
H705   H     0.23584   0.27781   0.92977   0.00000  Uiso   1.00
N706   N     0.13065   0.13500   0.59471   0.00000  Uiso   1.00
H707   H     0.13482   0.10319   0.59664   0.00000  Uiso   1.00
H708   H     0.10070   0.14402   0.58260   0.00000  Uiso   1.00
N709   N     0.05554   0.11286   0.90172   0.00000  Uiso   1.00
H710   H     0.03814   0.13573   0.88757   0.00000  Uiso   1.00
C711   C     0.06149   0.07368   0.87487   0.00000  Uiso   1.00
H712   H     0.06187   0.07839   0.83399   0.00000  Uiso   1.00
H713   H     0.03001   0.05336   0.89426   0.00000  Uiso   1.00
H714   H     0.09620   0.05814   0.87473   0.00000  Uiso   1.00
N715   N     0.17629   0.23683   0.88476   0.00000  Uiso   1.00
H716   H     0.20650   0.25293   0.86273   0.00000  Uiso   1.00
C717   C     0.13352   0.26261   0.90450   0.00000  Uiso   1.00
H718   H     0.12833   0.28166   0.87239   0.00000  Uiso   1.00
H719   H     0.13850   0.28332   0.93540   0.00000  Uiso   1.00
H720   H     0.09999   0.24353   0.92047   0.00000  Uiso   1.00
C721   C     0.50004   0.24592   0.75015   0.00000  Uiso   1.00
C722   C     0.48978   0.15026   0.98094   0.00000  Uiso   1.00
C723   C     0.48835   0.17268   0.93632   0.00000  Uiso   1.00
C724   C     0.51851   0.16519   0.51200   0.00000  Uiso   1.00
C725   C     0.55529   0.19518   0.99054   0.00000  Uiso   1.00
C726   C     0.55477   0.21709   0.94574   0.00000  Uiso   1.00
C727   C     0.51800   0.20862   0.92184   0.00000  Uiso   1.00
C728   C     0.50927   0.15431   0.56529   0.00000  Uiso   1.00
C729   C     0.58300   0.19143   0.56714   0.00000  Uiso   1.00
C730   C     0.45856   0.15761   0.90621   0.00000  Uiso   1.00
C731   C     0.53721   0.31227   0.76245   0.00000  Uiso   1.00
C732   C     0.47364   0.16562   0.84997   0.00000  Uiso   1.00
C733   C     0.53686   0.02149   0.76209   0.00000  Uiso   1.00
C734   C     0.49953   0.04259   0.74880   0.00000  Uiso   1.00
C735   C     0.46230   0.02048   0.73545   0.00000  Uiso   1.00
C736   C     0.46278   0.31115   0.73646   0.00000  Uiso   1.00
C737   C     0.50008   0.29039   0.74980   0.00000  Uiso   1.00
C738   C     0.63298   0.19254   0.78187   0.00000  Uiso   1.00
C739   C     0.34923   0.19246   0.78200   0.00000  Uiso   1.00
C740   C     0.36702   0.14078   0.71810   0.00000  Uiso   1.00
C741   C     0.65074   0.14079   0.71810   0.00000  Uiso   1.00
C742   C     0.49996   0.08732   0.74939   0.00000  Uiso   1.00
C743   C     0.52616   0.16619   0.64991   0.00000  Uiso   1.00
C744   C     0.58954   0.20531   0.51683   0.00000  Uiso   1.00
C745   C     0.54098   0.16891   0.59286   0.00000  Uiso   1.00
C746   C     0.42541   0.12466   0.92530   0.00000  Uiso   1.00
C747   C     0.43031   0.10140   0.96667   0.00000  Uiso   1.00
C748   C     0.46457   0.11235   0.99141   0.00000  Uiso   1.00
Cu749  Cu    0.45311   0.16666   0.75000   0.00000  Uiso   1.00
Cu750  Cu    0.54689   0.16667   0.75000   0.00000  Uiso   1.00
H751   H     0.60799   0.20216   0.58778   0.00000  Uiso   1.00
H752   H     0.56563   0.03786   0.77263   0.00000  Uiso   1.00
H753   H     0.43422   0.29434   0.72601   0.00000  Uiso   1.00
H754   H     0.60719   0.21333   0.80720   0.00000  Uiso   1.00
H755   H     0.36080   0.21312   0.80763   0.00000  Uiso   1.00
H756   H     0.39281   0.11999   0.69263   0.00000  Uiso   1.00
H757   H     0.63913   0.12008   0.69255   0.00000  Uiso   1.00
H758   H     0.61984   0.22615   0.50000   0.00000  Uiso   1.00
H759   H     0.47121   0.09045   0.51839   0.00000  Uiso   1.00
H760   H     0.40850   0.07378   0.97865   0.00000  Uiso   1.00
H761   H     0.56619   0.29654   0.77312   0.00000  Uiso   1.00
N762   N     0.38265   0.16666   0.74998   0.00000  Uiso   1.00
N763   N     0.61735   0.16669   0.75000   0.00000  Uiso   1.00
O764   O     0.46042   0.22678   0.75000   0.00000  Uiso   1.00
O765   O     0.53961   0.22679   0.75000   0.00000  Uiso   1.00
O766   O     0.44108   0.16665   0.82549   0.00000  Uiso   1.00
O767   O     0.52027   0.16666   0.82549   0.00000  Uiso   1.00
O768   O     0.46039   0.10654   0.74999   0.00000  Uiso   1.00
O769   O     0.53958   0.10655   0.74999   0.00000  Uiso   1.00
O770   O     0.47973   0.16667   0.67451   0.00000  Uiso   1.00
O771   O     0.55892   0.16668   0.67451   0.00000  Uiso   1.00
N772   N     0.42455   0.04093   0.71988   0.00000  Uiso   1.00
H773   H     0.42630   0.03092   0.68246   0.00000  Uiso   1.00
H774   H     0.39050   0.03198   0.74515   0.00000  Uiso   1.00
N775   N     0.58881   0.25046   0.92789   0.00000  Uiso   1.00
H776   H     0.60938   0.24484   0.88934   0.00000  Uiso   1.00
H777   H     0.56918   0.27781   0.92977   0.00000  Uiso   1.00
N778   N     0.46398   0.13500   0.59471   0.00000  Uiso   1.00
H779   H     0.46816   0.10319   0.59664   0.00000  Uiso   1.00
H780   H     0.43403   0.14402   0.58260   0.00000  Uiso   1.00
N781   N     0.38888   0.11286   0.90172   0.00000  Uiso   1.00
H782   H     0.37147   0.13573   0.88757   0.00000  Uiso   1.00
C783   C     0.39482   0.07368   0.87487   0.00000  Uiso   1.00
H784   H     0.39520   0.07839   0.83399   0.00000  Uiso   1.00
H785   H     0.36335   0.05336   0.89426   0.00000  Uiso   1.00
H786   H     0.42953   0.05814   0.87473   0.00000  Uiso   1.00
N787   N     0.50963   0.23683   0.88476   0.00000  Uiso   1.00
H788   H     0.53983   0.25293   0.86273   0.00000  Uiso   1.00
C789   C     0.46685   0.26261   0.90450   0.00000  Uiso   1.00
H790   H     0.46166   0.28166   0.87239   0.00000  Uiso   1.00
H791   H     0.47184   0.28332   0.93540   0.00000  Uiso   1.00
H792   H     0.43333   0.24353   0.92047   0.00000  Uiso   1.00
C793   C     0.83338   0.24592   0.75015   0.00000  Uiso   1.00
C794   C     0.82312   0.15026   0.98094   0.00000  Uiso   1.00
C795   C     0.82168   0.17268   0.93632   0.00000  Uiso   1.00
C796   C     0.85184   0.16519   0.51200   0.00000  Uiso   1.00
C797   C     0.88862   0.19518   0.99054   0.00000  Uiso   1.00
C798   C     0.88811   0.21709   0.94574   0.00000  Uiso   1.00
C799   C     0.85134   0.20862   0.92184   0.00000  Uiso   1.00
C800   C     0.84261   0.15431   0.56529   0.00000  Uiso   1.00
C801   C     0.91634   0.19143   0.56714   0.00000  Uiso   1.00
C802   C     0.79189   0.15761   0.90621   0.00000  Uiso   1.00
C803   C     0.87054   0.31227   0.76245   0.00000  Uiso   1.00
C804   C     0.80697   0.16562   0.84997   0.00000  Uiso   1.00
C805   C     0.87019   0.02149   0.76209   0.00000  Uiso   1.00
C806   C     0.83286   0.04259   0.74880   0.00000  Uiso   1.00
C807   C     0.79563   0.02048   0.73545   0.00000  Uiso   1.00
C808   C     0.79612   0.31115   0.73646   0.00000  Uiso   1.00
C809   C     0.83341   0.29039   0.74980   0.00000  Uiso   1.00
C810   C     0.96631   0.19254   0.78187   0.00000  Uiso   1.00
C811   C     0.68256   0.19246   0.78200   0.00000  Uiso   1.00
C812   C     0.70036   0.14078   0.71810   0.00000  Uiso   1.00
C813   C     0.98407   0.14079   0.71810   0.00000  Uiso   1.00
C814   C     0.83329   0.08732   0.74939   0.00000  Uiso   1.00
C815   C     0.85949   0.16619   0.64991   0.00000  Uiso   1.00
C816   C     0.92287   0.20531   0.51683   0.00000  Uiso   1.00
C817   C     0.87432   0.16891   0.59286   0.00000  Uiso   1.00
C818   C     0.75874   0.12466   0.92530   0.00000  Uiso   1.00
C819   C     0.76364   0.10140   0.96667   0.00000  Uiso   1.00
C820   C     0.79791   0.11235   0.99141   0.00000  Uiso   1.00
Cu821  Cu    0.78645   0.16666   0.75000   0.00000  Uiso   1.00
Cu822  Cu    0.88022   0.16667   0.75000   0.00000  Uiso   1.00
H823   H     0.94132   0.20216   0.58778   0.00000  Uiso   1.00
H824   H     0.89897   0.03786   0.77263   0.00000  Uiso   1.00
H825   H     0.76755   0.29434   0.72601   0.00000  Uiso   1.00
H826   H     0.94053   0.21333   0.80720   0.00000  Uiso   1.00
H827   H     0.69413   0.21312   0.80763   0.00000  Uiso   1.00
H828   H     0.72614   0.11999   0.69263   0.00000  Uiso   1.00
H829   H     0.97247   0.12008   0.69255   0.00000  Uiso   1.00
H830   H     0.95318   0.22615   0.50000   0.00000  Uiso   1.00
H831   H     0.80455   0.09045   0.51839   0.00000  Uiso   1.00
H832   H     0.74183   0.07378   0.97865   0.00000  Uiso   1.00
H833   H     0.89952   0.29654   0.77312   0.00000  Uiso   1.00
N834   N     0.71598   0.16666   0.74998   0.00000  Uiso   1.00
N835   N     0.95069   0.16669   0.75000   0.00000  Uiso   1.00
O836   O     0.79375   0.22678   0.75000   0.00000  Uiso   1.00
O837   O     0.87294   0.22679   0.75000   0.00000  Uiso   1.00
O838   O     0.77441   0.16665   0.82549   0.00000  Uiso   1.00
O839   O     0.85360   0.16666   0.82549   0.00000  Uiso   1.00
O840   O     0.79373   0.10654   0.74999   0.00000  Uiso   1.00
O841   O     0.87292   0.10655   0.74999   0.00000  Uiso   1.00
O842   O     0.81306   0.16667   0.67451   0.00000  Uiso   1.00
O843   O     0.89225   0.16668   0.67451   0.00000  Uiso   1.00
N844   N     0.75788   0.04093   0.71988   0.00000  Uiso   1.00
H845   H     0.75963   0.03092   0.68246   0.00000  Uiso   1.00
H846   H     0.72383   0.03198   0.74515   0.00000  Uiso   1.00
N847   N     0.92214   0.25046   0.92789   0.00000  Uiso   1.00
H848   H     0.94271   0.24484   0.88934   0.00000  Uiso   1.00
H849   H     0.90251   0.27781   0.92977   0.00000  Uiso   1.00
N850   N     0.79732   0.13500   0.59471   0.00000  Uiso   1.00
H851   H     0.80149   0.10319   0.59664   0.00000  Uiso   1.00
H852   H     0.76737   0.14402   0.58260   0.00000  Uiso   1.00
N853   N     0.72221   0.11286   0.90172   0.00000  Uiso   1.00
H854   H     0.70481   0.13573   0.88757   0.00000  Uiso   1.00
C855   C     0.72815   0.07368   0.87487   0.00000  Uiso   1.00
H856   H     0.72854   0.07839   0.83399   0.00000  Uiso   1.00
H857   H     0.69668   0.05336   0.89426   0.00000  Uiso   1.00
H858   H     0.76287   0.05814   0.87473   0.00000  Uiso   1.00
N859   N     0.84296   0.23683   0.88476   0.00000  Uiso   1.00
H860   H     0.87317   0.25293   0.86273   0.00000  Uiso   1.00
C861   C     0.80019   0.26261   0.90450   0.00000  Uiso   1.00
H862   H     0.79499   0.28166   0.87239   0.00000  Uiso   1.00
H863   H     0.80517   0.28332   0.93540   0.00000  Uiso   1.00
H864   H     0.76666   0.24353   0.92047   0.00000  Uiso   1.00
C865   C     0.16671   0.57925   0.75015   0.00000  Uiso   1.00
C866   C     0.15645   0.48360   0.98094   0.00000  Uiso   1.00
C867   C     0.15502   0.50601   0.93632   0.00000  Uiso   1.00
C868   C     0.18518   0.49852   0.51200   0.00000  Uiso   1.00
C869   C     0.22195   0.52851   0.99054   0.00000  Uiso   1.00
C870   C     0.22144   0.55042   0.94574   0.00000  Uiso   1.00
C871   C     0.18467   0.54196   0.92184   0.00000  Uiso   1.00
C872   C     0.17594   0.48765   0.56529   0.00000  Uiso   1.00
C873   C     0.24967   0.52477   0.56714   0.00000  Uiso   1.00
C874   C     0.12523   0.49094   0.90621   0.00000  Uiso   1.00
C875   C     0.20388   0.64560   0.76245   0.00000  Uiso   1.00
C876   C     0.14031   0.49895   0.84997   0.00000  Uiso   1.00
C877   C     0.20352   0.35482   0.76209   0.00000  Uiso   1.00
C878   C     0.16620   0.37592   0.74880   0.00000  Uiso   1.00
C879   C     0.12896   0.35381   0.73545   0.00000  Uiso   1.00
C880   C     0.12945   0.64448   0.73646   0.00000  Uiso   1.00
C881   C     0.16674   0.62373   0.74980   0.00000  Uiso   1.00
C882   C     0.29964   0.52588   0.78187   0.00000  Uiso   1.00
C883   C     0.01590   0.52579   0.78200   0.00000  Uiso   1.00
C884   C     0.03369   0.47411   0.71810   0.00000  Uiso   1.00
C885   C     0.31740   0.47413   0.71810   0.00000  Uiso   1.00
C886   C     0.16663   0.42065   0.74939   0.00000  Uiso   1.00
C887   C     0.19283   0.49953   0.64991   0.00000  Uiso   1.00
C888   C     0.25621   0.53865   0.51683   0.00000  Uiso   1.00
C889   C     0.20765   0.50224   0.59286   0.00000  Uiso   1.00
C890   C     0.09207   0.45799   0.92530   0.00000  Uiso   1.00
C891   C     0.09697   0.43473   0.96667   0.00000  Uiso   1.00
C892   C     0.13124   0.44568   0.99141   0.00000  Uiso   1.00
Cu893  Cu    0.11978   0.49999   0.75000   0.00000  Uiso   1.00
Cu894  Cu    0.21355   0.50001   0.75000   0.00000  Uiso   1.00
H895   H     0.27466   0.53549   0.58778   0.00000  Uiso   1.00
H896   H     0.23230   0.37119   0.77263   0.00000  Uiso   1.00
H897   H     0.10088   0.62768   0.72601   0.00000  Uiso   1.00
H898   H     0.27386   0.54667   0.80720   0.00000  Uiso   1.00
H899   H     0.02747   0.54645   0.80763   0.00000  Uiso   1.00
H900   H     0.05947   0.45333   0.69263   0.00000  Uiso   1.00
H901   H     0.30580   0.45341   0.69255   0.00000  Uiso   1.00
H902   H     0.28651   0.55948   0.50000   0.00000  Uiso   1.00
H903   H     0.13788   0.42378   0.51839   0.00000  Uiso   1.00
H904   H     0.07517   0.40711   0.97865   0.00000  Uiso   1.00
H905   H     0.23286   0.62988   0.77312   0.00000  Uiso   1.00
N906   N     0.04931   0.49999   0.74998   0.00000  Uiso   1.00
N907   N     0.28402   0.50002   0.75000   0.00000  Uiso   1.00
O908   O     0.12708   0.56011   0.75000   0.00000  Uiso   1.00
O909   O     0.20627   0.56012   0.75000   0.00000  Uiso   1.00
O910   O     0.10775   0.49998   0.82549   0.00000  Uiso   1.00
O911   O     0.18694   0.49999   0.82549   0.00000  Uiso   1.00
O912   O     0.12706   0.43988   0.74999   0.00000  Uiso   1.00
O913   O     0.20625   0.43989   0.74999   0.00000  Uiso   1.00
O914   O     0.14640   0.50001   0.67451   0.00000  Uiso   1.00
O915   O     0.22559   0.50002   0.67451   0.00000  Uiso   1.00
N916   N     0.09121   0.37426   0.71988   0.00000  Uiso   1.00
H917   H     0.09297   0.36425   0.68246   0.00000  Uiso   1.00
H918   H     0.05717   0.36532   0.74515   0.00000  Uiso   1.00
N919   N     0.25547   0.58380   0.92789   0.00000  Uiso   1.00
H920   H     0.27604   0.57817   0.88934   0.00000  Uiso   1.00
H921   H     0.23584   0.61114   0.92977   0.00000  Uiso   1.00
N922   N     0.13065   0.46833   0.59471   0.00000  Uiso   1.00
H923   H     0.13482   0.43652   0.59664   0.00000  Uiso   1.00
H924   H     0.10070   0.47736   0.58260   0.00000  Uiso   1.00
N925   N     0.05554   0.44620   0.90172   0.00000  Uiso   1.00
H926   H     0.03814   0.46906   0.88757   0.00000  Uiso   1.00
C927   C     0.06149   0.40702   0.87487   0.00000  Uiso   1.00
H928   H     0.06187   0.41172   0.83399   0.00000  Uiso   1.00
H929   H     0.03001   0.38669   0.89426   0.00000  Uiso   1.00
H930   H     0.09620   0.39148   0.87473   0.00000  Uiso   1.00
N931   N     0.17629   0.57016   0.88476   0.00000  Uiso   1.00
H932   H     0.20650   0.58627   0.86273   0.00000  Uiso   1.00
C933   C     0.13352   0.59594   0.90450   0.00000  Uiso   1.00
H934   H     0.12833   0.61499   0.87239   0.00000  Uiso   1.00
H935   H     0.13850   0.61666   0.93540   0.00000  Uiso   1.00
H936   H     0.09999   0.57687   0.92047   0.00000  Uiso   1.00
C937   C     0.50004   0.57925   0.75015   0.00000  Uiso   1.00
C938   C     0.48978   0.48360   0.98094   0.00000  Uiso   1.00
C939   C     0.48835   0.50601   0.93632   0.00000  Uiso   1.00
C940   C     0.51851   0.49852   0.51200   0.00000  Uiso   1.00
C941   C     0.55529   0.52851   0.99054   0.00000  Uiso   1.00
C942   C     0.55477   0.55042   0.94574   0.00000  Uiso   1.00
C943   C     0.51800   0.54196   0.92184   0.00000  Uiso   1.00
C944   C     0.50927   0.48765   0.56529   0.00000  Uiso   1.00
C945   C     0.58300   0.52477   0.56714   0.00000  Uiso   1.00
C946   C     0.45856   0.49094   0.90621   0.00000  Uiso   1.00
C947   C     0.53721   0.64560   0.76245   0.00000  Uiso   1.00
C948   C     0.47364   0.49895   0.84997   0.00000  Uiso   1.00
C949   C     0.53686   0.35482   0.76209   0.00000  Uiso   1.00
C950   C     0.49953   0.37592   0.74880   0.00000  Uiso   1.00
C951   C     0.46230   0.35381   0.73545   0.00000  Uiso   1.00
C952   C     0.46278   0.64448   0.73646   0.00000  Uiso   1.00
C953   C     0.50008   0.62373   0.74980   0.00000  Uiso   1.00
C954   C     0.63298   0.52588   0.78187   0.00000  Uiso   1.00
C955   C     0.34923   0.52579   0.78200   0.00000  Uiso   1.00
C956   C     0.36702   0.47411   0.71810   0.00000  Uiso   1.00
C957   C     0.65074   0.47413   0.71810   0.00000  Uiso   1.00
C958   C     0.49996   0.42065   0.74939   0.00000  Uiso   1.00
C959   C     0.52616   0.49953   0.64991   0.00000  Uiso   1.00
C960   C     0.58954   0.53865   0.51683   0.00000  Uiso   1.00
C961   C     0.54098   0.50224   0.59286   0.00000  Uiso   1.00
C962   C     0.42541   0.45799   0.92530   0.00000  Uiso   1.00
C963   C     0.43031   0.43473   0.96667   0.00000  Uiso   1.00
C964   C     0.46457   0.44568   0.99141   0.00000  Uiso   1.00
Cu965  Cu    0.45311   0.49999   0.75000   0.00000  Uiso   1.00
Cu966  Cu    0.54689   0.50001   0.75000   0.00000  Uiso   1.00
H967   H     0.60799   0.53549   0.58778   0.00000  Uiso   1.00
H968   H     0.56563   0.37119   0.77263   0.00000  Uiso   1.00
H969   H     0.43422   0.62768   0.72601   0.00000  Uiso   1.00
H970   H     0.60719   0.54667   0.80720   0.00000  Uiso   1.00
H971   H     0.36080   0.54645   0.80763   0.00000  Uiso   1.00
H972   H     0.39281   0.45333   0.69263   0.00000  Uiso   1.00
H973   H     0.63913   0.45341   0.69255   0.00000  Uiso   1.00
H974   H     0.61984   0.55948   0.50000   0.00000  Uiso   1.00
H975   H     0.47121   0.42378   0.51839   0.00000  Uiso   1.00
H976   H     0.40850   0.40711   0.97865   0.00000  Uiso   1.00
H977   H     0.56619   0.62988   0.77312   0.00000  Uiso   1.00
N978   N     0.38265   0.49999   0.74998   0.00000  Uiso   1.00
N979   N     0.61735   0.50002   0.75000   0.00000  Uiso   1.00
O980   O     0.46042   0.56011   0.75000   0.00000  Uiso   1.00
O981   O     0.53961   0.56012   0.75000   0.00000  Uiso   1.00
O982   O     0.44108   0.49998   0.82549   0.00000  Uiso   1.00
O983   O     0.52027   0.49999   0.82549   0.00000  Uiso   1.00
O984   O     0.46039   0.43988   0.74999   0.00000  Uiso   1.00
O985   O     0.53958   0.43989   0.74999   0.00000  Uiso   1.00
O986   O     0.47973   0.50001   0.67451   0.00000  Uiso   1.00
O987   O     0.55892   0.50002   0.67451   0.00000  Uiso   1.00
N988   N     0.42455   0.37426   0.71988   0.00000  Uiso   1.00
H989   H     0.42630   0.36425   0.68246   0.00000  Uiso   1.00
H990   H     0.39050   0.36532   0.74515   0.00000  Uiso   1.00
N991   N     0.58881   0.58380   0.92789   0.00000  Uiso   1.00
H992   H     0.60938   0.57817   0.88934   0.00000  Uiso   1.00
H993   H     0.56918   0.61114   0.92977   0.00000  Uiso   1.00
N994   N     0.46398   0.46833   0.59471   0.00000  Uiso   1.00
H995   H     0.46816   0.43652   0.59664   0.00000  Uiso   1.00
H996   H     0.43403   0.47736   0.58260   0.00000  Uiso   1.00
N997   N     0.38888   0.44620   0.90172   0.00000  Uiso   1.00
H998   H     0.37147   0.46906   0.88757   0.00000  Uiso   1.00
C999   C     0.39482   0.40702   0.87487   0.00000  Uiso   1.00
H1000  H     0.39520   0.41172   0.83399   0.00000  Uiso   1.00
H1001  H     0.36335   0.38669   0.89426   0.00000  Uiso   1.00
H1002  H     0.42953   0.39148   0.87473   0.00000  Uiso   1.00
N1003  N     0.50963   0.57016   0.88476   0.00000  Uiso   1.00
H1004  H     0.53983   0.58627   0.86273   0.00000  Uiso   1.00
C1005  C     0.46685   0.59594   0.90450   0.00000  Uiso   1.00
H1006  H     0.46166   0.61499   0.87239   0.00000  Uiso   1.00
H1007  H     0.47184   0.61666   0.93540   0.00000  Uiso   1.00
H1008  H     0.43333   0.57687   0.92047   0.00000  Uiso   1.00
C1009  C     0.83338   0.57925   0.75015   0.00000  Uiso   1.00
C1010  C     0.82312   0.48360   0.98094   0.00000  Uiso   1.00
C1011  C     0.82168   0.50601   0.93632   0.00000  Uiso   1.00
C1012  C     0.85184   0.49852   0.51200   0.00000  Uiso   1.00
C1013  C     0.88862   0.52851   0.99054   0.00000  Uiso   1.00
C1014  C     0.88811   0.55042   0.94574   0.00000  Uiso   1.00
C1015  C     0.85134   0.54196   0.92184   0.00000  Uiso   1.00
C1016  C     0.84261   0.48765   0.56529   0.00000  Uiso   1.00
C1017  C     0.91634   0.52477   0.56714   0.00000  Uiso   1.00
C1018  C     0.79189   0.49094   0.90621   0.00000  Uiso   1.00
C1019  C     0.87054   0.64560   0.76245   0.00000  Uiso   1.00
C1020  C     0.80697   0.49895   0.84997   0.00000  Uiso   1.00
C1021  C     0.87019   0.35482   0.76209   0.00000  Uiso   1.00
C1022  C     0.83286   0.37592   0.74880   0.00000  Uiso   1.00
C1023  C     0.79563   0.35381   0.73545   0.00000  Uiso   1.00
C1024  C     0.79612   0.64448   0.73646   0.00000  Uiso   1.00
C1025  C     0.83341   0.62373   0.74980   0.00000  Uiso   1.00
C1026  C     0.96631   0.52588   0.78187   0.00000  Uiso   1.00
C1027  C     0.68256   0.52579   0.78200   0.00000  Uiso   1.00
C1028  C     0.70036   0.47411   0.71810   0.00000  Uiso   1.00
C1029  C     0.98407   0.47413   0.71810   0.00000  Uiso   1.00
C1030  C     0.83329   0.42065   0.74939   0.00000  Uiso   1.00
C1031  C     0.85949   0.49953   0.64991   0.00000  Uiso   1.00
C1032  C     0.92287   0.53865   0.51683   0.00000  Uiso   1.00
C1033  C     0.87432   0.50224   0.59286   0.00000  Uiso   1.00
C1034  C     0.75874   0.45799   0.92530   0.00000  Uiso   1.00
C1035  C     0.76364   0.43473   0.96667   0.00000  Uiso   1.00
C1036  C     0.79791   0.44568   0.99141   0.00000  Uiso   1.00
Cu1037 Cu    0.78645   0.49999   0.75000   0.00000  Uiso   1.00
Cu1038 Cu    0.88022   0.50001   0.75000   0.00000  Uiso   1.00
H1039  H     0.94132   0.53549   0.58778   0.00000  Uiso   1.00
H1040  H     0.89897   0.37119   0.77263   0.00000  Uiso   1.00
H1041  H     0.76755   0.62768   0.72601   0.00000  Uiso   1.00
H1042  H     0.94053   0.54667   0.80720   0.00000  Uiso   1.00
H1043  H     0.69413   0.54645   0.80763   0.00000  Uiso   1.00
H1044  H     0.72614   0.45333   0.69263   0.00000  Uiso   1.00
H1045  H     0.97247   0.45341   0.69255   0.00000  Uiso   1.00
H1046  H     0.95318   0.55948   0.50000   0.00000  Uiso   1.00
H1047  H     0.80455   0.42378   0.51839   0.00000  Uiso   1.00
H1048  H     0.74183   0.40711   0.97865   0.00000  Uiso   1.00
H1049  H     0.89952   0.62988   0.77312   0.00000  Uiso   1.00
N1050  N     0.71598   0.49999   0.74998   0.00000  Uiso   1.00
N1051  N     0.95069   0.50002   0.75000   0.00000  Uiso   1.00
O1052  O     0.79375   0.56011   0.75000   0.00000  Uiso   1.00
O1053  O     0.87294   0.56012   0.75000   0.00000  Uiso   1.00
O1054  O     0.77441   0.49998   0.82549   0.00000  Uiso   1.00
O1055  O     0.85360   0.49999   0.82549   0.00000  Uiso   1.00
O1056  O     0.79373   0.43988   0.74999   0.00000  Uiso   1.00
O1057  O     0.87292   0.43989   0.74999   0.00000  Uiso   1.00
O1058  O     0.81306   0.50001   0.67451   0.00000  Uiso   1.00
O1059  O     0.89225   0.50002   0.67451   0.00000  Uiso   1.00
N1060  N     0.75788   0.37426   0.71988   0.00000  Uiso   1.00
H1061  H     0.75963   0.36425   0.68246   0.00000  Uiso   1.00
H1062  H     0.72383   0.36532   0.74515   0.00000  Uiso   1.00
N1063  N     0.92214   0.58380   0.92789   0.00000  Uiso   1.00
H1064  H     0.94271   0.57817   0.88934   0.00000  Uiso   1.00
H1065  H     0.90251   0.61114   0.92977   0.00000  Uiso   1.00
N1066  N     0.79732   0.46833   0.59471   0.00000  Uiso   1.00
H1067  H     0.80149   0.43652   0.59664   0.00000  Uiso   1.00
H1068  H     0.76737   0.47736   0.58260   0.00000  Uiso   1.00
N1069  N     0.72221   0.44620   0.90172   0.00000  Uiso   1.00
H1070  H     0.70481   0.46906   0.88757   0.00000  Uiso   1.00
C1071  C     0.72815   0.40702   0.87487   0.00000  Uiso   1.00
H1072  H     0.72854   0.41172   0.83399   0.00000  Uiso   1.00
H1073  H     0.69668   0.38669   0.89426   0.00000  Uiso   1.00
H1074  H     0.76287   0.39148   0.87473   0.00000  Uiso   1.00
N1075  N     0.84296   0.57016   0.88476   0.00000  Uiso   1.00
H1076  H     0.87317   0.58627   0.86273   0.00000  Uiso   1.00
C1077  C     0.80019   0.59594   0.90450   0.00000  Uiso   1.00
H1078  H     0.79499   0.61499   0.87239   0.00000  Uiso   1.00
H1079  H     0.80517   0.61666   0.93540   0.00000  Uiso   1.00
H1080  H     0.76666   0.57687   0.92047   0.00000  Uiso   1.00
C1081  C     0.16671   0.91258   0.75015   0.00000  Uiso   1.00
C1082  C     0.15645   0.81693   0.98094   0.00000  Uiso   1.00
C1083  C     0.15502   0.83934   0.93632   0.00000  Uiso   1.00
C1084  C     0.18518   0.83186   0.51200   0.00000  Uiso   1.00
C1085  C     0.22195   0.86185   0.99054   0.00000  Uiso   1.00
C1086  C     0.22144   0.88376   0.94574   0.00000  Uiso   1.00
C1087  C     0.18467   0.87529   0.92184   0.00000  Uiso   1.00
C1088  C     0.17594   0.82098   0.56529   0.00000  Uiso   1.00
C1089  C     0.24967   0.85810   0.56714   0.00000  Uiso   1.00
C1090  C     0.12523   0.82427   0.90621   0.00000  Uiso   1.00
C1091  C     0.20388   0.97894   0.76245   0.00000  Uiso   1.00
C1092  C     0.14031   0.83228   0.84997   0.00000  Uiso   1.00
C1093  C     0.20352   0.68816   0.76209   0.00000  Uiso   1.00
C1094  C     0.16620   0.70925   0.74880   0.00000  Uiso   1.00
C1095  C     0.12896   0.68714   0.73545   0.00000  Uiso   1.00
C1096  C     0.12945   0.97781   0.73646   0.00000  Uiso   1.00
C1097  C     0.16674   0.95706   0.74980   0.00000  Uiso   1.00
C1098  C     0.29964   0.85921   0.78187   0.00000  Uiso   1.00
C1099  C     0.01590   0.85913   0.78200   0.00000  Uiso   1.00
C1100  C     0.03369   0.80744   0.71810   0.00000  Uiso   1.00
C1101  C     0.31740   0.80746   0.71810   0.00000  Uiso   1.00
C1102  C     0.16663   0.75399   0.74939   0.00000  Uiso   1.00
C1103  C     0.19283   0.83286   0.64991   0.00000  Uiso   1.00
C1104  C     0.25621   0.87198   0.51683   0.00000  Uiso   1.00
C1105  C     0.20765   0.83558   0.59286   0.00000  Uiso   1.00
C1106  C     0.09207   0.79132   0.92530   0.00000  Uiso   1.00
C1107  C     0.09697   0.76807   0.96667   0.00000  Uiso   1.00
C1108  C     0.13124   0.77902   0.99141   0.00000  Uiso   1.00
Cu1109 Cu    0.11978   0.83333   0.75000   0.00000  Uiso   1.00
Cu1110 Cu    0.21355   0.83334   0.75000   0.00000  Uiso   1.00
H1111  H     0.27466   0.86882   0.58778   0.00000  Uiso   1.00
H1112  H     0.23230   0.70453   0.77263   0.00000  Uiso   1.00
H1113  H     0.10088   0.96101   0.72601   0.00000  Uiso   1.00
H1114  H     0.27386   0.88000   0.80720   0.00000  Uiso   1.00
H1115  H     0.02747   0.87978   0.80763   0.00000  Uiso   1.00
H1116  H     0.05947   0.78666   0.69263   0.00000  Uiso   1.00
H1117  H     0.30580   0.78674   0.69255   0.00000  Uiso   1.00
H1118  H     0.28651   0.89281   0.50000   0.00000  Uiso   1.00
H1119  H     0.13788   0.75711   0.51839   0.00000  Uiso   1.00
H1120  H     0.07517   0.74044   0.97865   0.00000  Uiso   1.00
H1121  H     0.23286   0.96321   0.77312   0.00000  Uiso   1.00
N1122  N     0.04931   0.83332   0.74998   0.00000  Uiso   1.00
N1123  N     0.28402   0.83335   0.75000   0.00000  Uiso   1.00
O1124  O     0.12708   0.89345   0.75000   0.00000  Uiso   1.00
O1125  O     0.20627   0.89346   0.75000   0.00000  Uiso   1.00
O1126  O     0.10775   0.83332   0.82549   0.00000  Uiso   1.00
O1127  O     0.18694   0.83333   0.82549   0.00000  Uiso   1.00
O1128  O     0.12706   0.77321   0.74999   0.00000  Uiso   1.00
O1129  O     0.20625   0.77322   0.74999   0.00000  Uiso   1.00
O1130  O     0.14640   0.83334   0.67451   0.00000  Uiso   1.00
O1131  O     0.22559   0.83335   0.67451   0.00000  Uiso   1.00
N1132  N     0.09121   0.70759   0.71988   0.00000  Uiso   1.00
H1133  H     0.09297   0.69758   0.68246   0.00000  Uiso   1.00
H1134  H     0.05717   0.69865   0.74515   0.00000  Uiso   1.00
N1135  N     0.25547   0.91713   0.92789   0.00000  Uiso   1.00
H1136  H     0.27604   0.91151   0.88934   0.00000  Uiso   1.00
H1137  H     0.23584   0.94447   0.92977   0.00000  Uiso   1.00
N1138  N     0.13065   0.80167   0.59471   0.00000  Uiso   1.00
H1139  H     0.13482   0.76986   0.59664   0.00000  Uiso   1.00
H1140  H     0.10070   0.81069   0.58260   0.00000  Uiso   1.00
N1141  N     0.05554   0.77953   0.90172   0.00000  Uiso   1.00
H1142  H     0.03814   0.80240   0.88757   0.00000  Uiso   1.00
C1143  C     0.06149   0.74035   0.87487   0.00000  Uiso   1.00
H1144  H     0.06187   0.74506   0.83399   0.00000  Uiso   1.00
H1145  H     0.03001   0.72002   0.89426   0.00000  Uiso   1.00
H1146  H     0.09620   0.72481   0.87473   0.00000  Uiso   1.00
N1147  N     0.17629   0.90349   0.88476   0.00000  Uiso   1.00
H1148  H     0.20650   0.91960   0.86273   0.00000  Uiso   1.00
C1149  C     0.13352   0.92927   0.90450   0.00000  Uiso   1.00
H1150  H     0.12833   0.94833   0.87239   0.00000  Uiso   1.00
H1151  H     0.13850   0.94999   0.93540   0.00000  Uiso   1.00
H1152  H     0.09999   0.91020   0.92047   0.00000  Uiso   1.00
C1153  C     0.50004   0.91258   0.75015   0.00000  Uiso   1.00
C1154  C     0.48978   0.81693   0.98094   0.00000  Uiso   1.00
C1155  C     0.48835   0.83934   0.93632   0.00000  Uiso   1.00
C1156  C     0.51851   0.83186   0.51200   0.00000  Uiso   1.00
C1157  C     0.55529   0.86185   0.99054   0.00000  Uiso   1.00
C1158  C     0.55477   0.88376   0.94574   0.00000  Uiso   1.00
C1159  C     0.51800   0.87529   0.92184   0.00000  Uiso   1.00
C1160  C     0.50927   0.82098   0.56529   0.00000  Uiso   1.00
C1161  C     0.58300   0.85810   0.56714   0.00000  Uiso   1.00
C1162  C     0.45856   0.82427   0.90621   0.00000  Uiso   1.00
C1163  C     0.53721   0.97894   0.76245   0.00000  Uiso   1.00
C1164  C     0.47364   0.83228   0.84997   0.00000  Uiso   1.00
C1165  C     0.53686   0.68816   0.76209   0.00000  Uiso   1.00
C1166  C     0.49953   0.70925   0.74880   0.00000  Uiso   1.00
C1167  C     0.46230   0.68714   0.73545   0.00000  Uiso   1.00
C1168  C     0.46278   0.97781   0.73646   0.00000  Uiso   1.00
C1169  C     0.50008   0.95706   0.74980   0.00000  Uiso   1.00
C1170  C     0.63298   0.85921   0.78187   0.00000  Uiso   1.00
C1171  C     0.34923   0.85913   0.78200   0.00000  Uiso   1.00
C1172  C     0.36702   0.80744   0.71810   0.00000  Uiso   1.00
C1173  C     0.65074   0.80746   0.71810   0.00000  Uiso   1.00
C1174  C     0.49996   0.75399   0.74939   0.00000  Uiso   1.00
C1175  C     0.52616   0.83286   0.64991   0.00000  Uiso   1.00
C1176  C     0.58954   0.87198   0.51683   0.00000  Uiso   1.00
C1177  C     0.54098   0.83558   0.59286   0.00000  Uiso   1.00
C1178  C     0.42541   0.79132   0.92530   0.00000  Uiso   1.00
C1179  C     0.43031   0.76807   0.96667   0.00000  Uiso   1.00
C1180  C     0.46457   0.77902   0.99141   0.00000  Uiso   1.00
Cu1181 Cu    0.45311   0.83333   0.75000   0.00000  Uiso   1.00
Cu1182 Cu    0.54689   0.83334   0.75000   0.00000  Uiso   1.00
H1183  H     0.60799   0.86882   0.58778   0.00000  Uiso   1.00
H1184  H     0.56563   0.70453   0.77263   0.00000  Uiso   1.00
H1185  H     0.43422   0.96101   0.72601   0.00000  Uiso   1.00
H1186  H     0.60719   0.88000   0.80720   0.00000  Uiso   1.00
H1187  H     0.36080   0.87978   0.80763   0.00000  Uiso   1.00
H1188  H     0.39281   0.78666   0.69263   0.00000  Uiso   1.00
H1189  H     0.63913   0.78674   0.69255   0.00000  Uiso   1.00
H1190  H     0.61984   0.89281   0.50000   0.00000  Uiso   1.00
H1191  H     0.47121   0.75711   0.51839   0.00000  Uiso   1.00
H1192  H     0.40850   0.74044   0.97865   0.00000  Uiso   1.00
H1193  H     0.56619   0.96321   0.77312   0.00000  Uiso   1.00
N1194  N     0.38265   0.83332   0.74998   0.00000  Uiso   1.00
N1195  N     0.61735   0.83335   0.75000   0.00000  Uiso   1.00
O1196  O     0.46042   0.89345   0.75000   0.00000  Uiso   1.00
O1197  O     0.53961   0.89346   0.75000   0.00000  Uiso   1.00
O1198  O     0.44108   0.83332   0.82549   0.00000  Uiso   1.00
O1199  O     0.52027   0.83333   0.82549   0.00000  Uiso   1.00
O1200  O     0.46039   0.77321   0.74999   0.00000  Uiso   1.00
O1201  O     0.53958   0.77322   0.74999   0.00000  Uiso   1.00
O1202  O     0.47973   0.83334   0.67451   0.00000  Uiso   1.00
O1203  O     0.55892   0.83335   0.67451   0.00000  Uiso   1.00
N1204  N     0.42455   0.70759   0.71988   0.00000  Uiso   1.00
H1205  H     0.42630   0.69758   0.68246   0.00000  Uiso   1.00
H1206  H     0.39050   0.69865   0.74515   0.00000  Uiso   1.00
N1207  N     0.58881   0.91713   0.92789   0.00000  Uiso   1.00
H1208  H     0.60938   0.91151   0.88934   0.00000  Uiso   1.00
H1209  H     0.56918   0.94447   0.92977   0.00000  Uiso   1.00
N1210  N     0.46398   0.80167   0.59471   0.00000  Uiso   1.00
H1211  H     0.46816   0.76986   0.59664   0.00000  Uiso   1.00
H1212  H     0.43403   0.81069   0.58260   0.00000  Uiso   1.00
N1213  N     0.38888   0.77953   0.90172   0.00000  Uiso   1.00
H1214  H     0.37147   0.80240   0.88757   0.00000  Uiso   1.00
C1215  C     0.39482   0.74035   0.87487   0.00000  Uiso   1.00
H1216  H     0.39520   0.74506   0.83399   0.00000  Uiso   1.00
H1217  H     0.36335   0.72002   0.89426   0.00000  Uiso   1.00
H1218  H     0.42953   0.72481   0.87473   0.00000  Uiso   1.00
N1219  N     0.50963   0.90349   0.88476   0.00000  Uiso   1.00
H1220  H     0.53983   0.91960   0.86273   0.00000  Uiso   1.00
C1221  C     0.46685   0.92927   0.90450   0.00000  Uiso   1.00
H1222  H     0.46166   0.94833   0.87239   0.00000  Uiso   1.00
H1223  H     0.47184   0.94999   0.93540   0.00000  Uiso   1.00
H1224  H     0.43333   0.91020   0.92047   0.00000  Uiso   1.00
C1225  C     0.83338   0.91258   0.75015   0.00000  Uiso   1.00
C1226  C     0.82312   0.81693   0.98094   0.00000  Uiso   1.00
C1227  C     0.82168   0.83934   0.93632   0.00000  Uiso   1.00
C1228  C     0.85184   0.83186   0.51200   0.00000  Uiso   1.00
C1229  C     0.88862   0.86185   0.99054   0.00000  Uiso   1.00
C1230  C     0.88811   0.88376   0.94574   0.00000  Uiso   1.00
C1231  C     0.85134   0.87529   0.92184   0.00000  Uiso   1.00
C1232  C     0.84261   0.82098   0.56529   0.00000  Uiso   1.00
C1233  C     0.91634   0.85810   0.56714   0.00000  Uiso   1.00
C1234  C     0.79189   0.82427   0.90621   0.00000  Uiso   1.00
C1235  C     0.87054   0.97894   0.76245   0.00000  Uiso   1.00
C1236  C     0.80697   0.83228   0.84997   0.00000  Uiso   1.00
C1237  C     0.87019   0.68816   0.76209   0.00000  Uiso   1.00
C1238  C     0.83286   0.70925   0.74880   0.00000  Uiso   1.00
C1239  C     0.79563   0.68714   0.73545   0.00000  Uiso   1.00
C1240  C     0.79612   0.97781   0.73646   0.00000  Uiso   1.00
C1241  C     0.83341   0.95706   0.74980   0.00000  Uiso   1.00
C1242  C     0.96631   0.85921   0.78187   0.00000  Uiso   1.00
C1243  C     0.68256   0.85913   0.78200   0.00000  Uiso   1.00
C1244  C     0.70036   0.80744   0.71810   0.00000  Uiso   1.00
C1245  C     0.98407   0.80746   0.71810   0.00000  Uiso   1.00
C1246  C     0.83329   0.75399   0.74939   0.00000  Uiso   1.00
C1247  C     0.85949   0.83286   0.64991   0.00000  Uiso   1.00
C1248  C     0.92287   0.87198   0.51683   0.00000  Uiso   1.00
C1249  C     0.87432   0.83558   0.59286   0.00000  Uiso   1.00
C1250  C     0.75874   0.79132   0.92530   0.00000  Uiso   1.00
C1251  C     0.76364   0.76807   0.96667   0.00000  Uiso   1.00
C1252  C     0.79791   0.77902   0.99141   0.00000  Uiso   1.00
Cu1253 Cu    0.78645   0.83333   0.75000   0.00000  Uiso   1.00
Cu1254 Cu    0.88022   0.83334   0.75000   0.00000  Uiso   1.00
H1255  H     0.94132   0.86882   0.58778   0.00000  Uiso   1.00
H1256  H     0.89897   0.70453   0.77263   0.00000  Uiso   1.00
H1257  H     0.76755   0.96101   0.72601   0.00000  Uiso   1.00
H1258  H     0.94053   0.88000   0.80720   0.00000  Uiso   1.00
H1259  H     0.69413   0.87978   0.80763   0.00000  Uiso   1.00
H1260  H     0.72614   0.78666   0.69263   0.00000  Uiso   1.00
H1261  H     0.97247   0.78674   0.69255   0.00000  Uiso   1.00
H1262  H     0.95318   0.89281   0.50000   0.00000  Uiso   1.00
H1263  H     0.80455   0.75711   0.51839   0.00000  Uiso   1.00
H1264  H     0.74183   0.74044   0.97865   0.00000  Uiso   1.00
H1265  H     0.89952   0.96321   0.77312   0.00000  Uiso   1.00
N1266  N     0.71598   0.83332   0.74998   0.00000  Uiso   1.00
N1267  N     0.95069   0.83335   0.75000   0.00000  Uiso   1.00
O1268  O     0.79375   0.89345   0.75000   0.00000  Uiso   1.00
O1269  O     0.87294   0.89346   0.75000   0.00000  Uiso   1.00
O1270  O     0.77441   0.83332   0.82549   0.00000  Uiso   1.00
O1271  O     0.85360   0.83333   0.82549   0.00000  Uiso   1.00
O1272  O     0.79373   0.77321   0.74999   0.00000  Uiso   1.00
O1273  O     0.87292   0.77322   0.74999   0.00000  Uiso   1.00
O1274  O     0.81306   0.83334   0.67451   0.00000  Uiso   1.00
O1275  O     0.89225   0.83335   0.67451   0.00000  Uiso   1.00
N1276  N     0.75788   0.70759   0.71988   0.00000  Uiso   1.00
H1277  H     0.75963   0.69758   0.68246   0.00000  Uiso   1.00
H1278  H     0.72383   0.69865   0.74515   0.00000  Uiso   1.00
N1279  N     0.92214   0.91713   0.92789   0.00000  Uiso   1.00
H1280  H     0.94271   0.91151   0.88934   0.00000  Uiso   1.00
H1281  H     0.90251   0.94447   0.92977   0.00000  Uiso   1.00
N1282  N     0.79732   0.80167   0.59471   0.00000  Uiso   1.00
H1283  H     0.80149   0.76986   0.59664   0.00000  Uiso   1.00
H1284  H     0.76737   0.81069   0.58260   0.00000  Uiso   1.00
N1285  N     0.72221   0.77953   0.90172   0.00000  Uiso   1.00
H1286  H     0.70481   0.80240   0.88757   0.00000  Uiso   1.00
C1287  C     0.72815   0.74035   0.87487   0.00000  Uiso   1.00
H1288  H     0.72854   0.74506   0.83399   0.00000  Uiso   1.00
H1289  H     0.69668   0.72002   0.89426   0.00000  Uiso   1.00
H1290  H     0.76287   0.72481   0.87473   0.00000  Uiso   1.00
N1291  N     0.84296   0.90349   0.88476   0.00000  Uiso   1.00
H1292  H     0.87317   0.91960   0.86273   0.00000  Uiso   1.00
C1293  C     0.80019   0.92927   0.90450   0.00000  Uiso   1.00
H1294  H     0.79499   0.94833   0.87239   0.00000  Uiso   1.00
H1295  H     0.80517   0.94999   0.93540   0.00000  Uiso   1.00
H1296  H     0.76666   0.91020   0.92047   0.00000  Uiso   1.00
loop_
_geom_bond_atom_site_label_1
_geom_bond_atom_site_label_2
_geom_bond_distance
_geom_bond_site_symmetry_2
_ccdc_geom_bond_type
C1     O44     1.289   .     A
C1     O45     1.290   .     A
C1     C17     1.446   .     S
C2     C3      1.418   .     A
C2     C28     1.410   .     A
C2     C652    1.419   .     S
C3     C10     1.424   .     A
C3     C7      1.424   .     A
C4     C8      1.425   .     A
C4     C650    1.419   1_554 S
C4     C653    1.420   1_554 S
C5     C6      1.406   .     A
C5     C652    1.420   .     S
C5     C672    1.406   .     S
C6     C7      1.412   .     A
C6     N55     1.437   .     S
C7     N67     1.430   .     S
C8     C25     1.412   .     A
C8     N58     1.440   .     S
C9     C24     1.388   .     A
C9     C25     1.396   .     A
C9     H31     1.084   .     S
C10    C26     1.417   .     A
C10    C12     1.469   .     S
C11    H41     1.083   .     S
C11    C17     1.398   .     A
C11    C229    1.383   .     S
C12    O47     1.296   .     A
C12    O46     1.291   .     A
C13    H32     1.083   .     S
C13    C14     1.403   .     A
C13    C443    1.383   1_545 S
C14    C22     1.454   .     S
C14    C15     1.413   .     A
C15    N52     1.434   .     S
C15    C448    1.387   1_545 S
C16    H33     1.084   .     S
C16    C17     1.397   .     A
C16    C231    1.387   .     S
C18    H34     1.079   .     S
C18    N43     1.366   .     A
C18    C91     1.416   .     S
C19    N42     1.367   .     A
C19    H35     1.082   .     S
C19    C162    1.416   1_455 S
C20    N42     1.367   .     A
C20    H36     1.081   .     S
C20    C165    1.416   1_455 S
C21    H37     1.082   .     S
C21    N43     1.367   .     A
C21    C92     1.416   .     S
C22    O48     1.288   .     A
C22    O49     1.294   .     A
C23    O51     1.298   .     A
C23    C25     1.470   .     S
C23    O50     1.291   .     A
C24    C653    1.406   1_554 S
C24    H38     1.083   .     S
C26    C27     1.389   .     A
C26    N61     1.425   .     S
C27    H40     1.083   .     S
C27    C28     1.384   .     A
C28    H687    1.075   .     S
Cu29   O46     1.959   .     S
Cu29   Cu30    2.675   .     S
Cu29   O50     1.946   .     S
Cu29   O44     1.964   .     S
Cu29   N42     2.010   .     S
Cu29   O48     1.966   .     S
Cu30   N43     2.010   .     S
Cu30   O51     1.959   .     S
Cu30   O47     1.946   .     S
Cu30   O45     1.966   .     S
Cu30   O49     1.964   .     S
H39    C676    1.075   1_554 S
N52    H53     1.046   .     S
N52    H54     1.046   .     S
N55    H56     1.045   .     S
N55    H57     1.045   .     S
N58    H60     1.045   .     S
N58    H59     1.044   .     S
N61    H62     1.030   .     S
N61    C63     1.449   .     S
C63    H65     1.109   .     S
C63    H66     1.113   .     S
C63    H64     1.109   .     S
N67    H68     1.030   .     S
N67    C69     1.446   .     S
C69    H72     1.111   .     S
C69    H70     1.111   .     S
C69    H71     1.111   .     S
C73    O116    1.289   .     A
C73    O117    1.290   .     A
C73    C89     1.446   .     S
C74    C75     1.418   .     A
C74    C100    1.410   .     A
C74    C724    1.419   .     S
C75    C82     1.424   .     A
C75    C79     1.424   .     A
C76    C80     1.425   .     A
C76    C722    1.419   1_554 S
C76    C725    1.420   1_554 S
C77    C78     1.406   .     A
C77    C724    1.420   .     S
C77    C744    1.406   .     S
C78    C79     1.412   .     A
C78    N127    1.437   .     S
C79    N139    1.430   .     S
C80    C97     1.412   .     A
C80    N130    1.440   .     S
C81    C96     1.388   .     A
C81    C97     1.396   .     A
C81    H103    1.084   .     S
C82    C98     1.417   .     A
C82    C84     1.469   .     S
C83    H113    1.083   .     S
C83    C89     1.398   .     A
C83    C301    1.383   .     S
C84    O119    1.296   .     A
C84    O118    1.291   .     A
C85    H104    1.083   .     S
C85    C86     1.403   .     A
C85    C515    1.383   1_545 S
C86    C94     1.454   .     S
C86    C87     1.413   .     A
C87    N124    1.434   .     S
C87    C520    1.387   1_545 S
C88    H105    1.084   .     S
C88    C89     1.397   .     A
C88    C303    1.387   .     S
C90    H106    1.079   .     S
C90    N115    1.366   .     A
C90    C163    1.416   .     S
C91    N114    1.367   .     A
C91    H107    1.082   .     S
C92    N114    1.367   .     A
C92    H108    1.081   .     S
C93    H109    1.082   .     S
C93    N115    1.367   .     A
C93    C164    1.416   .     S
C94    O120    1.288   .     A
C94    O121    1.294   .     A
C95    O123    1.298   .     A
C95    C97     1.470   .     S
C95    O122    1.291   .     A
C96    C725    1.406   1_554 S
C96    H110    1.083   .     S
C98    C99     1.389   .     A
C98    N133    1.425   .     S
C99    H112    1.083   .     S
C99    C100    1.384   .     A
C100   H759    1.075   .     S
Cu101  O118    1.959   .     S
Cu101  Cu102   2.675   .     S
Cu101  O122    1.946   .     S
Cu101  O116    1.964   .     S
Cu101  N114    2.010   .     S
Cu101  O120    1.966   .     S
Cu102  N115    2.010   .     S
Cu102  O123    1.959   .     S
Cu102  O119    1.946   .     S
Cu102  O117    1.966   .     S
Cu102  O121    1.964   .     S
H111   C748    1.075   1_554 S
N124   H125    1.046   .     S
N124   H126    1.046   .     S
N127   H128    1.045   .     S
N127   H129    1.045   .     S
N130   H132    1.045   .     S
N130   H131    1.044   .     S
N133   H134    1.030   .     S
N133   C135    1.449   .     S
C135   H137    1.109   .     S
C135   H138    1.113   .     S
C135   H136    1.109   .     S
N139   H140    1.030   .     S
N139   C141    1.446   .     S
C141   H144    1.111   .     S
C141   H142    1.111   .     S
C141   H143    1.111   .     S
C145   O188    1.289   .     A
C145   O189    1.290   .     A
C145   C161    1.446   .     S
C146   C147    1.418   .     A
C146   C172    1.410   .     A
C146   C796    1.419   .     S
C147   C154    1.424   .     A
C147   C151    1.424   .     A
C148   C152    1.425   .     A
C148   C794    1.419   1_554 S
C148   C797    1.420   1_554 S
C149   C150    1.406   .     A
C149   C796    1.420   .     S
C149   C816    1.406   .     S
C150   C151    1.412   .     A
C150   N199    1.437   .     S
C151   N211    1.430   .     S
C152   C169    1.412   .     A
C152   N202    1.440   .     S
C153   C168    1.388   .     A
C153   C169    1.396   .     A
C153   H175    1.084   .     S
C154   C170    1.417   .     A
C154   C156    1.469   .     S
C155   H185    1.083   .     S
C155   C161    1.398   .     A
C155   C373    1.383   .     S
C156   O191    1.296   .     A
C156   O190    1.291   .     A
C157   H176    1.083   .     S
C157   C158    1.403   .     A
C157   C587    1.383   1_545 S
C158   C166    1.454   .     S
C158   C159    1.413   .     A
C159   N196    1.434   .     S
C159   C592    1.387   1_545 S
C160   H177    1.084   .     S
C160   C161    1.397   .     A
C160   C375    1.387   .     S
C162   H178    1.079   .     S
C162   N187    1.366   .     A
C162   C19     1.416   1_655 S
C163   N186    1.367   .     A
C163   H179    1.082   .     S
C164   N186    1.367   .     A
C164   H180    1.081   .     S
C165   H181    1.082   .     S
C165   N187    1.367   .     A
C165   C20     1.416   1_655 S
C166   O192    1.288   .     A
C166   O193    1.294   .     A
C167   O195    1.298   .     A
C167   C169    1.470   .     S
C167   O194    1.291   .     A
C168   C797    1.406   1_554 S
C168   H182    1.083   .     S
C170   C171    1.389   .     A
C170   N205    1.425   .     S
C171   H184    1.083   .     S
C171   C172    1.384   .     A
C172   H831    1.075   .     S
Cu173  O190    1.959   .     S
Cu173  Cu174   2.675   .     S
Cu173  O194    1.946   .     S
Cu173  O188    1.964   .     S
Cu173  N186    2.010   .     S
Cu173  O192    1.966   .     S
Cu174  N187    2.010   .     S
Cu174  O195    1.959   .     S
Cu174  O191    1.946   .     S
Cu174  O189    1.966   .     S
Cu174  O193    1.964   .     S
H183   C820    1.075   1_554 S
N196   H197    1.046   .     S
N196   H198    1.046   .     S
N199   H200    1.045   .     S
N199   H201    1.045   .     S
N202   H204    1.045   .     S
N202   H203    1.044   .     S
N205   H206    1.030   .     S
N205   C207    1.449   .     S
C207   H209    1.109   .     S
C207   H210    1.113   .     S
C207   H208    1.109   .     S
N211   H212    1.030   .     S
N211   C213    1.446   .     S
C213   H216    1.111   .     S
C213   H214    1.111   .     S
C213   H215    1.111   .     S
C217   O260    1.289   .     A
C217   O261    1.290   .     A
C217   C233    1.446   .     S
C218   C219    1.418   .     A
C218   C244    1.410   .     A
C218   C868    1.419   .     S
C219   C226    1.424   .     A
C219   C223    1.424   .     A
C220   C224    1.425   .     A
C220   C866    1.419   1_554 S
C220   C869    1.420   1_554 S
C221   C222    1.406   .     A
C221   C868    1.420   .     S
C221   C888    1.406   .     S
C222   C223    1.412   .     A
C222   N271    1.437   .     S
C223   N283    1.430   .     S
C224   C241    1.412   .     A
C224   N274    1.440   .     S
C225   C240    1.388   .     A
C225   C241    1.396   .     A
C225   H247    1.084   .     S
C226   C242    1.417   .     A
C226   C228    1.469   .     S
C227   H257    1.083   .     S
C227   C233    1.398   .     A
C227   C445    1.383   .     S
C228   O263    1.296   .     A
C228   O262    1.291   .     A
C229   H248    1.083   .     S
C229   C230    1.403   .     A
C230   C238    1.454   .     S
C230   C231    1.413   .     A
C231   N268    1.434   .     S
C232   H249    1.084   .     S
C232   C233    1.397   .     A
C232   C447    1.387   .     S
C234   H250    1.079   .     S
C234   N259    1.366   .     A
C234   C307    1.416   .     S
C235   N258    1.367   .     A
C235   H251    1.082   .     S
C235   C378    1.416   1_455 S
C236   N258    1.367   .     A
C236   H252    1.081   .     S
C236   C381    1.416   1_455 S
C237   H253    1.082   .     S
C237   N259    1.367   .     A
C237   C308    1.416   .     S
C238   O264    1.288   .     A
C238   O265    1.294   .     A
C239   O267    1.298   .     A
C239   C241    1.470   .     S
C239   O266    1.291   .     A
C240   C869    1.406   1_554 S
C240   H254    1.083   .     S
C242   C243    1.389   .     A
C242   N277    1.425   .     S
C243   H256    1.083   .     S
C243   C244    1.384   .     A
C244   H903    1.075   .     S
Cu245  O262    1.959   .     S
Cu245  Cu246   2.675   .     S
Cu245  O266    1.946   .     S
Cu245  O260    1.964   .     S
Cu245  N258    2.010   .     S
Cu245  O264    1.966   .     S
Cu246  N259    2.010   .     S
Cu246  O267    1.959   .     S
Cu246  O263    1.946   .     S
Cu246  O261    1.966   .     S
Cu246  O265    1.964   .     S
H255   C892    1.075   1_554 S
N268   H269    1.046   .     S
N268   H270    1.046   .     S
N271   H272    1.045   .     S
N271   H273    1.045   .     S
N274   H276    1.045   .     S
N274   H275    1.044   .     S
N277   H278    1.030   .     S
N277   C279    1.449   .     S
C279   H281    1.109   .     S
C279   H282    1.113   .     S
C279   H280    1.109   .     S
N283   H284    1.030   .     S
N283   C285    1.446   .     S
C285   H288    1.111   .     S
C285   H286    1.111   .     S
C285   H287    1.111   .     S
C289   O332    1.289   .     A
C289   O333    1.290   .     A
C289   C305    1.446   .     S
C290   C291    1.418   .     A
C290   C316    1.410   .     A
C290   C940    1.419   .     S
C291   C298    1.424   .     A
C291   C295    1.424   .     A
C292   C296    1.425   .     A
C292   C938    1.419   1_554 S
C292   C941    1.420   1_554 S
C293   C294    1.406   .     A
C293   C940    1.420   .     S
C293   C960    1.406   .     S
C294   C295    1.412   .     A
C294   N343    1.437   .     S
C295   N355    1.430   .     S
C296   C313    1.412   .     A
C296   N346    1.440   .     S
C297   C312    1.388   .     A
C297   C313    1.396   .     A
C297   H319    1.084   .     S
C298   C314    1.417   .     A
C298   C300    1.469   .     S
C299   H329    1.083   .     S
C299   C305    1.398   .     A
C299   C517    1.383   .     S
C300   O335    1.296   .     A
C300   O334    1.291   .     A
C301   H320    1.083   .     S
C301   C302    1.403   .     A
C302   C310    1.454   .     S
C302   C303    1.413   .     A
C303   N340    1.434   .     S
C304   H321    1.084   .     S
C304   C305    1.397   .     A
C304   C519    1.387   .     S
C306   H322    1.079   .     S
C306   N331    1.366   .     A
C306   C379    1.416   .     S
C307   N330    1.367   .     A
C307   H323    1.082   .     S
C308   N330    1.367   .     A
C308   H324    1.081   .     S
C309   H325    1.082   .     S
C309   N331    1.367   .     A
C309   C380    1.416   .     S
C310   O336    1.288   .     A
C310   O337    1.294   .     A
C311   O339    1.298   .     A
C311   C313    1.470   .     S
C311   O338    1.291   .     A
C312   C941    1.406   1_554 S
C312   H326    1.083   .     S
C314   C315    1.389   .     A
C314   N349    1.425   .     S
C315   H328    1.083   .     S
C315   C316    1.384   .     A
C316   H975    1.075   .     S
Cu317  O334    1.959   .     S
Cu317  Cu318   2.675   .     S
Cu317  O338    1.946   .     S
Cu317  O332    1.964   .     S
Cu317  N330    2.010   .     S
Cu317  O336    1.966   .     S
Cu318  N331    2.010   .     S
Cu318  O339    1.959   .     S
Cu318  O335    1.946   .     S
Cu318  O333    1.966   .     S
Cu318  O337    1.964   .     S
H327   C964    1.075   1_554 S
N340   H341    1.046   .     S
N340   H342    1.046   .     S
N343   H344    1.045   .     S
N343   H345    1.045   .     S
N346   H348    1.045   .     S
N346   H347    1.044   .     S
N349   H350    1.030   .     S
N349   C351    1.449   .     S
C351   H353    1.109   .     S
C351   H354    1.113   .     S
C351   H352    1.109   .     S
N355   H356    1.030   .     S
N355   C357    1.446   .     S
C357   H360    1.111   .     S
C357   H358    1.111   .     S
C357   H359    1.111   .     S
C361   O404    1.289   .     A
C361   O405    1.290   .     A
C361   C377    1.446   .     S
C362   C363    1.418   .     A
C362   C388    1.410   .     A
C362   C1012   1.419   .     S
C363   C370    1.424   .     A
C363   C367    1.424   .     A
C364   C368    1.425   .     A
C364   C1010   1.419   1_554 S
C364   C1013   1.420   1_554 S
C365   C366    1.406   .     A
C365   C1012   1.420   .     S
C365   C1032   1.406   .     S
C366   C367    1.412   .     A
C366   N415    1.437   .     S
C367   N427    1.430   .     S
C368   C385    1.412   .     A
C368   N418    1.440   .     S
C369   C384    1.388   .     A
C369   C385    1.396   .     A
C369   H391    1.084   .     S
C370   C386    1.417   .     A
C370   C372    1.469   .     S
C371   H401    1.083   .     S
C371   C377    1.398   .     A
C371   C589    1.383   .     S
C372   O407    1.296   .     A
C372   O406    1.291   .     A
C373   H392    1.083   .     S
C373   C374    1.403   .     A
C374   C382    1.454   .     S
C374   C375    1.413   .     A
C375   N412    1.434   .     S
C376   H393    1.084   .     S
C376   C377    1.397   .     A
C376   C591    1.387   .     S
C378   H394    1.079   .     S
C378   N403    1.366   .     A
C378   C235    1.416   1_655 S
C379   N402    1.367   .     A
C379   H395    1.082   .     S
C380   N402    1.367   .     A
C380   H396    1.081   .     S
C381   H397    1.082   .     S
C381   N403    1.367   .     A
C381   C236    1.416   1_655 S
C382   O408    1.288   .     A
C382   O409    1.294   .     A
C383   O411    1.298   .     A
C383   C385    1.470   .     S
C383   O410    1.291   .     A
C384   C1013   1.406   1_554 S
C384   H398    1.083   .     S
C386   C387    1.389   .     A
C386   N421    1.425   .     S
C387   H400    1.083   .     S
C387   C388    1.384   .     A
C388   H1047   1.075   .     S
Cu389  O406    1.959   .     S
Cu389  Cu390   2.675   .     S
Cu389  O410    1.946   .     S
Cu389  O404    1.964   .     S
Cu389  N402    2.010   .     S
Cu389  O408    1.966   .     S
Cu390  N403    2.010   .     S
Cu390  O411    1.959   .     S
Cu390  O407    1.946   .     S
Cu390  O405    1.966   .     S
Cu390  O409    1.964   .     S
H399   C1036   1.075   1_554 S
N412   H413    1.046   .     S
N412   H414    1.046   .     S
N415   H416    1.045   .     S
N415   H417    1.045   .     S
N418   H420    1.045   .     S
N418   H419    1.044   .     S
N421   H422    1.030   .     S
N421   C423    1.449   .     S
C423   H425    1.109   .     S
C423   H426    1.113   .     S
C423   H424    1.109   .     S
N427   H428    1.030   .     S
N427   C429    1.446   .     S
C429   H432    1.111   .     S
C429   H430    1.111   .     S
C429   H431    1.111   .     S
C433   O476    1.289   .     A
C433   O477    1.290   .     A
C433   C449    1.446   .     S
C434   C435    1.418   .     A
C434   C460    1.410   .     A
C434   C1084   1.419   .     S
C435   C442    1.424   .     A
C435   C439    1.424   .     A
C436   C440    1.425   .     A
C436   C1082   1.419   1_554 S
C436   C1085   1.420   1_554 S
C437   C438    1.406   .     A
C437   C1084   1.420   .     S
C437   C1104   1.406   .     S
C438   C439    1.412   .     A
C438   N487    1.437   .     S
C439   N499    1.430   .     S
C440   C457    1.412   .     A
C440   N490    1.440   .     S
C441   C456    1.388   .     A
C441   C457    1.396   .     A
C441   H463    1.084   .     S
C442   C458    1.417   .     A
C442   C444    1.469   .     S
C443   H473    1.083   .     S
C443   C449    1.398   .     A
C443   C13     1.383   1_565 S
C444   O479    1.296   .     A
C444   O478    1.291   .     A
C445   H464    1.083   .     S
C445   C446    1.403   .     A
C446   C454    1.454   .     S
C446   C447    1.413   .     A
C447   N484    1.434   .     S
C448   H465    1.084   .     S
C448   C449    1.397   .     A
C448   C15     1.387   1_565 S
C450   H466    1.079   .     S
C450   N475    1.366   .     A
C450   C523    1.416   .     S
C451   N474    1.367   .     A
C451   H467    1.082   .     S
C451   C594    1.416   1_455 S
C452   N474    1.367   .     A
C452   H468    1.081   .     S
C452   C597    1.416   1_455 S
C453   H469    1.082   .     S
C453   N475    1.367   .     A
C453   C524    1.416   .     S
C454   O480    1.288   .     A
C454   O481    1.294   .     A
C455   O483    1.298   .     A
C455   C457    1.470   .     S
C455   O482    1.291   .     A
C456   C1085   1.406   1_554 S
C456   H470    1.083   .     S
C458   C459    1.389   .     A
C458   N493    1.425   .     S
C459   H472    1.083   .     S
C459   C460    1.384   .     A
C460   H1119   1.075   .     S
Cu461  O478    1.959   .     S
Cu461  Cu462   2.675   .     S
Cu461  O482    1.946   .     S
Cu461  O476    1.964   .     S
Cu461  N474    2.010   .     S
Cu461  O480    1.966   .     S
Cu462  N475    2.010   .     S
Cu462  O483    1.959   .     S
Cu462  O479    1.946   .     S
Cu462  O477    1.966   .     S
Cu462  O481    1.964   .     S
H471   C1108   1.075   1_554 S
N484   H485    1.046   .     S
N484   H486    1.046   .     S
N487   H488    1.045   .     S
N487   H489    1.045   .     S
N490   H492    1.045   .     S
N490   H491    1.044   .     S
N493   H494    1.030   .     S
N493   C495    1.449   .     S
C495   H497    1.109   .     S
C495   H498    1.113   .     S
C495   H496    1.109   .     S
N499   H500    1.030   .     S
N499   C501    1.446   .     S
C501   H504    1.111   .     S
C501   H502    1.111   .     S
C501   H503    1.111   .     S
C505   O548    1.289   .     A
C505   O549    1.290   .     A
C505   C521    1.446   .     S
C506   C507    1.418   .     A
C506   C532    1.410   .     A
C506   C1156   1.419   .     S
C507   C514    1.424   .     A
C507   C511    1.424   .     A
C508   C512    1.425   .     A
C508   C1154   1.419   1_554 S
C508   C1157   1.420   1_554 S
C509   C510    1.406   .     A
C509   C1156   1.420   .     S
C509   C1176   1.406   .     S
C510   C511    1.412   .     A
C510   N559    1.437   .     S
C511   N571    1.430   .     S
C512   C529    1.412   .     A
C512   N562    1.440   .     S
C513   C528    1.388   .     A
C513   C529    1.396   .     A
C513   H535    1.084   .     S
C514   C530    1.417   .     A
C514   C516    1.469   .     S
C515   H545    1.083   .     S
C515   C521    1.398   .     A
C515   C85     1.383   1_565 S
C516   O551    1.296   .     A
C516   O550    1.291   .     A
C517   H536    1.083   .     S
C517   C518    1.403   .     A
C518   C526    1.454   .     S
C518   C519    1.413   .     A
C519   N556    1.434   .     S
C520   H537    1.084   .     S
C520   C521    1.397   .     A
C520   C87     1.387   1_565 S
C522   H538    1.079   .     S
C522   N547    1.366   .     A
C522   C595    1.416   .     S
C523   N546    1.367   .     A
C523   H539    1.082   .     S
C524   N546    1.367   .     A
C524   H540    1.081   .     S
C525   H541    1.082   .     S
C525   N547    1.367   .     A
C525   C596    1.416   .     S
C526   O552    1.288   .     A
C526   O553    1.294   .     A
C527   O555    1.298   .     A
C527   C529    1.470   .     S
C527   O554    1.291   .     A
C528   C1157   1.406   1_554 S
C528   H542    1.083   .     S
C530   C531    1.389   .     A
C530   N565    1.425   .     S
C531   H544    1.083   .     S
C531   C532    1.384   .     A
C532   H1191   1.075   .     S
Cu533  O550    1.959   .     S
Cu533  Cu534   2.675   .     S
Cu533  O554    1.946   .     S
Cu533  O548    1.964   .     S
Cu533  N546    2.010   .     S
Cu533  O552    1.966   .     S
Cu534  N547    2.010   .     S
Cu534  O555    1.959   .     S
Cu534  O551    1.946   .     S
Cu534  O549    1.966   .     S
Cu534  O553    1.964   .     S
H543   C1180   1.075   1_554 S
N556   H557    1.046   .     S
N556   H558    1.046   .     S
N559   H560    1.045   .     S
N559   H561    1.045   .     S
N562   H564    1.045   .     S
N562   H563    1.044   .     S
N565   H566    1.030   .     S
N565   C567    1.449   .     S
C567   H569    1.109   .     S
C567   H570    1.113   .     S
C567   H568    1.109   .     S
N571   H572    1.030   .     S
N571   C573    1.446   .     S
C573   H576    1.111   .     S
C573   H574    1.111   .     S
C573   H575    1.111   .     S
C577   O620    1.289   .     A
C577   O621    1.290   .     A
C577   C593    1.446   .     S
C578   C579    1.418   .     A
C578   C604    1.410   .     A
C578   C1228   1.419   .     S
C579   C586    1.424   .     A
C579   C583    1.424   .     A
C580   C584    1.425   .     A
C580   C1226   1.419   1_554 S
C580   C1229   1.420   1_554 S
C581   C582    1.406   .     A
C581   C1228   1.420   .     S
C581   C1248   1.406   .     S
C582   C583    1.412   .     A
C582   N631    1.437   .     S
C583   N643    1.430   .     S
C584   C601    1.412   .     A
C584   N634    1.440   .     S
C585   C600    1.388   .     A
C585   C601    1.396   .     A
C585   H607    1.084   .     S
C586   C602    1.417   .     A
C586   C588    1.469   .     S
C587   H617    1.083   .     S
C587   C593    1.398   .     A
C587   C157    1.383   1_565 S
C588   O623    1.296   .     A
C588   O622    1.291   .     A
C589   H608    1.083   .     S
C589   C590    1.403   .     A
C590   C598    1.454   .     S
C590   C591    1.413   .     A
C591   N628    1.434   .     S
C592   H609    1.084   .     S
C592   C593    1.397   .     A
C592   C159    1.387   1_565 S
C594   H610    1.079   .     S
C594   N619    1.366   .     A
C594   C451    1.416   1_655 S
C595   N618    1.367   .     A
C595   H611    1.082   .     S
C596   N618    1.367   .     A
C596   H612    1.081   .     S
C597   H613    1.082   .     S
C597   N619    1.367   .     A
C597   C452    1.416   1_655 S
C598   O624    1.288   .     A
C598   O625    1.294   .     A
C599   O627    1.298   .     A
C599   C601    1.470   .     S
C599   O626    1.291   .     A
C600   C1229   1.406   1_554 S
C600   H614    1.083   .     S
C602   C603    1.389   .     A
C602   N637    1.425   .     S
C603   H616    1.083   .     S
C603   C604    1.384   .     A
C604   H1263   1.075   .     S
Cu605  O622    1.959   .     S
Cu605  Cu606   2.675   .     S
Cu605  O626    1.946   .     S
Cu605  O620    1.964   .     S
Cu605  N618    2.010   .     S
Cu605  O624    1.966   .     S
Cu606  N619    2.010   .     S
Cu606  O627    1.959   .     S
Cu606  O623    1.946   .     S
Cu606  O621    1.966   .     S
Cu606  O625    1.964   .     S
H615   C1252   1.075   1_554 S
N628   H629    1.046   .     S
N628   H630    1.046   .     S
N631   H632    1.045   .     S
N631   H633    1.045   .     S
N634   H636    1.045   .     S
N634   H635    1.044   .     S
N637   H638    1.030   .     S
N637   C639    1.449   .     S
C639   H641    1.109   .     S
C639   H642    1.113   .     S
C639   H640    1.109   .     S
N643   H644    1.030   .     S
N643   C645    1.446   .     S
C645   H648    1.111   .     S
C645   H646    1.111   .     S
C645   H647    1.111   .     S
C649   O692    1.289   .     A
C649   O693    1.290   .     A
C649   C665    1.446   .     S
C650   C651    1.418   .     A
C650   C676    1.410   .     A
C650   C4      1.419   1_556 S
C651   C658    1.424   .     A
C651   C655    1.424   .     A
C652   C656    1.425   .     A
C653   C654    1.406   .     A
C653   C4      1.420   1_556 S
C653   C24     1.406   1_556 S
C654   C655    1.412   .     A
C654   N703    1.437   .     S
C655   N715    1.430   .     S
C656   C673    1.412   .     A
C656   N706    1.440   .     S
C657   C672    1.388   .     A
C657   C673    1.396   .     A
C657   H679    1.084   .     S
C658   C674    1.417   .     A
C658   C660    1.469   .     S
C659   H689    1.083   .     S
C659   C665    1.398   .     A
C659   C877    1.383   .     S
C660   O695    1.296   .     A
C660   O694    1.291   .     A
C661   H680    1.083   .     S
C661   C662    1.403   .     A
C661   C1091   1.383   1_545 S
C662   C670    1.454   .     S
C662   C663    1.413   .     A
C663   N700    1.434   .     S
C663   C1096   1.387   1_545 S
C664   H681    1.084   .     S
C664   C665    1.397   .     A
C664   C879    1.387   .     S
C666   H682    1.079   .     S
C666   N691    1.366   .     A
C666   C739    1.416   .     S
C667   N690    1.367   .     A
C667   H683    1.082   .     S
C667   C810    1.416   1_455 S
C668   N690    1.367   .     A
C668   H684    1.081   .     S
C668   C813    1.416   1_455 S
C669   H685    1.082   .     S
C669   N691    1.367   .     A
C669   C740    1.416   .     S
C670   O696    1.288   .     A
C670   O697    1.294   .     A
C671   O699    1.298   .     A
C671   C673    1.470   .     S
C671   O698    1.291   .     A
C672   H686    1.083   .     S
C674   C675    1.389   .     A
C674   N709    1.425   .     S
C675   H688    1.083   .     S
C675   C676    1.384   .     A
C676   H39     1.075   1_556 S
Cu677  O694    1.959   .     S
Cu677  Cu678   2.675   .     S
Cu677  O698    1.946   .     S
Cu677  O692    1.964   .     S
Cu677  N690    2.010   .     S
Cu677  O696    1.966   .     S
Cu678  N691    2.010   .     S
Cu678  O699    1.959   .     S
Cu678  O695    1.946   .     S
Cu678  O693    1.966   .     S
Cu678  O697    1.964   .     S
N700   H701    1.046   .     S
N700   H702    1.046   .     S
N703   H704    1.045   .     S
N703   H705    1.045   .     S
N706   H708    1.045   .     S
N706   H707    1.044   .     S
N709   H710    1.030   .     S
N709   C711    1.449   .     S
C711   H713    1.109   .     S
C711   H714    1.113   .     S
C711   H712    1.109   .     S
N715   H716    1.030   .     S
N715   C717    1.446   .     S
C717   H720    1.111   .     S
C717   H718    1.111   .     S
C717   H719    1.111   .     S
C721   O764    1.289   .     A
C721   O765    1.290   .     A
C721   C737    1.446   .     S
C722   C723    1.418   .     A
C722   C748    1.410   .     A
C722   C76     1.419   1_556 S
C723   C730    1.424   .     A
C723   C727    1.424   .     A
C724   C728    1.425   .     A
C725   C726    1.406   .     A
C725   C76     1.420   1_556 S
C725   C96     1.406   1_556 S
C726   C727    1.412   .     A
C726   N775    1.437   .     S
C727   N787    1.430   .     S
C728   C745    1.412   .     A
C728   N778    1.440   .     S
C729   C744    1.388   .     A
C729   C745    1.396   .     A
C729   H751    1.084   .     S
C730   C746    1.417   .     A
C730   C732    1.469   .     S
C731   H761    1.083   .     S
C731   C737    1.398   .     A
C731   C949    1.383   .     S
C732   O767    1.296   .     A
C732   O766    1.291   .     A
C733   H752    1.083   .     S
C733   C734    1.403   .     A
C733   C1163   1.383   1_545 S
C734   C742    1.454   .     S
C734   C735    1.413   .     A
C735   N772    1.434   .     S
C735   C1168   1.387   1_545 S
C736   H753    1.084   .     S
C736   C737    1.397   .     A
C736   C951    1.387   .     S
C738   H754    1.079   .     S
C738   N763    1.366   .     A
C738   C811    1.416   .     S
C739   N762    1.367   .     A
C739   H755    1.082   .     S
C740   N762    1.367   .     A
C740   H756    1.081   .     S
C741   H757    1.082   .     S
C741   N763    1.367   .     A
C741   C812    1.416   .     S
C742   O768    1.288   .     A
C742   O769    1.294   .     A
C743   O771    1.298   .     A
C743   C745    1.470   .     S
C743   O770    1.291   .     A
C744   H758    1.083   .     S
C746   C747    1.389   .     A
C746   N781    1.425   .     S
C747   H760    1.083   .     S
C747   C748    1.384   .     A
C748   H111    1.075   1_556 S
Cu749  O766    1.959   .     S
Cu749  Cu750   2.675   .     S
Cu749  O770    1.946   .     S
Cu749  O764    1.964   .     S
Cu749  N762    2.010   .     S
Cu749  O768    1.966   .     S
Cu750  N763    2.010   .     S
Cu750  O771    1.959   .     S
Cu750  O767    1.946   .     S
Cu750  O765    1.966   .     S
Cu750  O769    1.964   .     S
N772   H773    1.046   .     S
N772   H774    1.046   .     S
N775   H776    1.045   .     S
N775   H777    1.045   .     S
N778   H780    1.045   .     S
N778   H779    1.044   .     S
N781   H782    1.030   .     S
N781   C783    1.449   .     S
C783   H785    1.109   .     S
C783   H786    1.113   .     S
C783   H784    1.109   .     S
N787   H788    1.030   .     S
N787   C789    1.446   .     S
C789   H792    1.111   .     S
C789   H790    1.111   .     S
C789   H791    1.111   .     S
C793   O836    1.289   .     A
C793   O837    1.290   .     A
C793   C809    1.446   .     S
C794   C795    1.418   .     A
C794   C820    1.410   .     A
C794   C148    1.419   1_556 S
C795   C802    1.424   .     A
C795   C799    1.424   .     A
C796   C800    1.425   .     A
C797   C798    1.406   .     A
C797   C148    1.420   1_556 S
C797   C168    1.406   1_556 S
C798   C799    1.412   .     A
C798   N847    1.437   .     S
C799   N859    1.430   .     S
C800   C817    1.412   .     A
C800   N850    1.440   .     S
C801   C816    1.388   .     A
C801   C817    1.396   .     A
C801   H823    1.084   .     S
C802   C818    1.417   .     A
C802   C804    1.469   .     S
C803   H833    1.083   .     S
C803   C809    1.398   .     A
C803   C1021   1.383   .     S
C804   O839    1.296   .     A
C804   O838    1.291   .     A
C805   H824    1.083   .     S
C805   C806    1.403   .     A
C805   C1235   1.383   1_545 S
C806   C814    1.454   .     S
C806   C807    1.413   .     A
C807   N844    1.434   .     S
C807   C1240   1.387   1_545 S
C808   H825    1.084   .     S
C808   C809    1.397   .     A
C808   C1023   1.387   .     S
C810   H826    1.079   .     S
C810   N835    1.366   .     A
C810   C667    1.416   1_655 S
C811   N834    1.367   .     A
C811   H827    1.082   .     S
C812   N834    1.367   .     A
C812   H828    1.081   .     S
C813   H829    1.082   .     S
C813   N835    1.367   .     A
C813   C668    1.416   1_655 S
C814   O840    1.288   .     A
C814   O841    1.294   .     A
C815   O843    1.298   .     A
C815   C817    1.470   .     S
C815   O842    1.291   .     A
C816   H830    1.083   .     S
C818   C819    1.389   .     A
C818   N853    1.425   .     S
C819   H832    1.083   .     S
C819   C820    1.384   .     A
C820   H183    1.075   1_556 S
Cu821  O838    1.959   .     S
Cu821  Cu822   2.675   .     S
Cu821  O842    1.946   .     S
Cu821  O836    1.964   .     S
Cu821  N834    2.010   .     S
Cu821  O840    1.966   .     S
Cu822  N835    2.010   .     S
Cu822  O843    1.959   .     S
Cu822  O839    1.946   .     S
Cu822  O837    1.966   .     S
Cu822  O841    1.964   .     S
N844   H845    1.046   .     S
N844   H846    1.046   .     S
N847   H848    1.045   .     S
N847   H849    1.045   .     S
N850   H852    1.045   .     S
N850   H851    1.044   .     S
N853   H854    1.030   .     S
N853   C855    1.449   .     S
C855   H857    1.109   .     S
C855   H858    1.113   .     S
C855   H856    1.109   .     S
N859   H860    1.030   .     S
N859   C861    1.446   .     S
C861   H864    1.111   .     S
C861   H862    1.111   .     S
C861   H863    1.111   .     S
C865   O908    1.289   .     A
C865   O909    1.290   .     A
C865   C881    1.446   .     S
C866   C867    1.418   .     A
C866   C892    1.410   .     A
C866   C220    1.419   1_556 S
C867   C874    1.424   .     A
C867   C871    1.424   .     A
C868   C872    1.425   .     A
C869   C870    1.406   .     A
C869   C220    1.420   1_556 S
C869   C240    1.406   1_556 S
C870   C871    1.412   .     A
C870   N919    1.437   .     S
C871   N931    1.430   .     S
C872   C889    1.412   .     A
C872   N922    1.440   .     S
C873   C888    1.388   .     A
C873   C889    1.396   .     A
C873   H895    1.084   .     S
C874   C890    1.417   .     A
C874   C876    1.469   .     S
C875   H905    1.083   .     S
C875   C881    1.398   .     A
C875   C1093   1.383   .     S
C876   O911    1.296   .     A
C876   O910    1.291   .     A
C877   H896    1.083   .     S
C877   C878    1.403   .     A
C878   C886    1.454   .     S
C878   C879    1.413   .     A
C879   N916    1.434   .     S
C880   H897    1.084   .     S
C880   C881    1.397   .     A
C880   C1095   1.387   .     S
C882   H898    1.079   .     S
C882   N907    1.366   .     A
C882   C955    1.416   .     S
C883   N906    1.367   .     A
C883   H899    1.082   .     S
C883   C1026   1.416   1_455 S
C884   N906    1.367   .     A
C884   H900    1.081   .     S
C884   C1029   1.416   1_455 S
C885   H901    1.082   .     S
C885   N907    1.367   .     A
C885   C956    1.416   .     S
C886   O912    1.288   .     A
C886   O913    1.294   .     A
C887   O915    1.298   .     A
C887   C889    1.470   .     S
C887   O914    1.291   .     A
C888   H902    1.083   .     S
C890   C891    1.389   .     A
C890   N925    1.425   .     S
C891   H904    1.083   .     S
C891   C892    1.384   .     A
C892   H255    1.075   1_556 S
Cu893  O910    1.959   .     S
Cu893  Cu894   2.675   .     S
Cu893  O914    1.946   .     S
Cu893  O908    1.964   .     S
Cu893  N906    2.010   .     S
Cu893  O912    1.966   .     S
Cu894  N907    2.010   .     S
Cu894  O915    1.959   .     S
Cu894  O911    1.946   .     S
Cu894  O909    1.966   .     S
Cu894  O913    1.964   .     S
N916   H917    1.046   .     S
N916   H918    1.046   .     S
N919   H920    1.045   .     S
N919   H921    1.045   .     S
N922   H924    1.045   .     S
N922   H923    1.044   .     S
N925   H926    1.030   .     S
N925   C927    1.449   .     S
C927   H929    1.109   .     S
C927   H930    1.113   .     S
C927   H928    1.109   .     S
N931   H932    1.030   .     S
N931   C933    1.446   .     S
C933   H936    1.111   .     S
C933   H934    1.111   .     S
C933   H935    1.111   .     S
C937   O980    1.289   .     A
C937   O981    1.290   .     A
C937   C953    1.446   .     S
C938   C939    1.418   .     A
C938   C964    1.410   .     A
C938   C292    1.419   1_556 S
C939   C946    1.424   .     A
C939   C943    1.424   .     A
C940   C944    1.425   .     A
C941   C942    1.406   .     A
C941   C292    1.420   1_556 S
C941   C312    1.406   1_556 S
C942   C943    1.412   .     A
C942   N991    1.437   .     S
C943   N1003   1.430   .     S
C944   C961    1.412   .     A
C944   N994    1.440   .     S
C945   C960    1.388   .     A
C945   C961    1.396   .     A
C945   H967    1.084   .     S
C946   C962    1.417   .     A
C946   C948    1.469   .     S
C947   H977    1.083   .     S
C947   C953    1.398   .     A
C947   C1165   1.383   .     S
C948   O983    1.296   .     A
C948   O982    1.291   .     A
C949   H968    1.083   .     S
C949   C950    1.403   .     A
C950   C958    1.454   .     S
C950   C951    1.413   .     A
C951   N988    1.434   .     S
C952   H969    1.084   .     S
C952   C953    1.397   .     A
C952   C1167   1.387   .     S
C954   H970    1.079   .     S
C954   N979    1.366   .     A
C954   C1027   1.416   .     S
C955   N978    1.367   .     A
C955   H971    1.082   .     S
C956   N978    1.367   .     A
C956   H972    1.081   .     S
C957   H973    1.082   .     S
C957   N979    1.367   .     A
C957   C1028   1.416   .     S
C958   O984    1.288   .     A
C958   O985    1.294   .     A
C959   O987    1.298   .     A
C959   C961    1.470   .     S
C959   O986    1.291   .     A
C960   H974    1.083   .     S
C962   C963    1.389   .     A
C962   N997    1.425   .     S
C963   H976    1.083   .     S
C963   C964    1.384   .     A
C964   H327    1.075   1_556 S
Cu965  O982    1.959   .     S
Cu965  Cu966   2.675   .     S
Cu965  O986    1.946   .     S
Cu965  O980    1.964   .     S
Cu965  N978    2.010   .     S
Cu965  O984    1.966   .     S
Cu966  N979    2.010   .     S
Cu966  O987    1.959   .     S
Cu966  O983    1.946   .     S
Cu966  O981    1.966   .     S
Cu966  O985    1.964   .     S
N988   H989    1.046   .     S
N988   H990    1.046   .     S
N991   H992    1.045   .     S
N991   H993    1.045   .     S
N994   H996    1.045   .     S
N994   H995    1.044   .     S
N997   H998    1.030   .     S
N997   C999    1.449   .     S
C999   H1001   1.109   .     S
C999   H1002   1.113   .     S
C999   H1000   1.109   .     S
N1003  H1004   1.030   .     S
N1003  C1005   1.446   .     S
C1005  H1008   1.111   .     S
C1005  H1006   1.111   .     S
C1005  H1007   1.111   .     S
C1009  O1052   1.289   .     A
C1009  O1053   1.290   .     A
C1009  C1025   1.446   .     S
C1010  C1011   1.418   .     A
C1010  C1036   1.410   .     A
C1010  C364    1.419   1_556 S
C1011  C1018   1.424   .     A
C1011  C1015   1.424   .     A
C1012  C1016   1.425   .     A
C1013  C1014   1.406   .     A
C1013  C364    1.420   1_556 S
C1013  C384    1.406   1_556 S
C1014  C1015   1.412   .     A
C1014  N1063   1.437   .     S
C1015  N1075   1.430   .     S
C1016  C1033   1.412   .     A
C1016  N1066   1.440   .     S
C1017  C1032   1.388   .     A
C1017  C1033   1.396   .     A
C1017  H1039   1.084   .     S
C1018  C1034   1.417   .     A
C1018  C1020   1.469   .     S
C1019  H1049   1.083   .     S
C1019  C1025   1.398   .     A
C1019  C1237   1.383   .     S
C1020  O1055   1.296   .     A
C1020  O1054   1.291   .     A
C1021  H1040   1.083   .     S
C1021  C1022   1.403   .     A
C1022  C1030   1.454   .     S
C1022  C1023   1.413   .     A
C1023  N1060   1.434   .     S
C1024  H1041   1.084   .     S
C1024  C1025   1.397   .     A
C1024  C1239   1.387   .     S
C1026  H1042   1.079   .     S
C1026  N1051   1.366   .     A
C1026  C883    1.416   1_655 S
C1027  N1050   1.367   .     A
C1027  H1043   1.082   .     S
C1028  N1050   1.367   .     A
C1028  H1044   1.081   .     S
C1029  H1045   1.082   .     S
C1029  N1051   1.367   .     A
C1029  C884    1.416   1_655 S
C1030  O1056   1.288   .     A
C1030  O1057   1.294   .     A
C1031  O1059   1.298   .     A
C1031  C1033   1.470   .     S
C1031  O1058   1.291   .     A
C1032  H1046   1.083   .     S
C1034  C1035   1.389   .     A
C1034  N1069   1.425   .     S
C1035  H1048   1.083   .     S
C1035  C1036   1.384   .     A
C1036  H399    1.075   1_556 S
Cu1037 O1054   1.959   .     S
Cu1037 Cu1038  2.675   .     S
Cu1037 O1058   1.946   .     S
Cu1037 O1052   1.964   .     S
Cu1037 N1050   2.010   .     S
Cu1037 O1056   1.966   .     S
Cu1038 N1051   2.010   .     S
Cu1038 O1059   1.959   .     S
Cu1038 O1055   1.946   .     S
Cu1038 O1053   1.966   .     S
Cu1038 O1057   1.964   .     S
N1060  H1061   1.046   .     S
N1060  H1062   1.046   .     S
N1063  H1064   1.045   .     S
N1063  H1065   1.045   .     S
N1066  H1068   1.045   .     S
N1066  H1067   1.044   .     S
N1069  H1070   1.030   .     S
N1069  C1071   1.449   .     S
C1071  H1073   1.109   .     S
C1071  H1074   1.113   .     S
C1071  H1072   1.109   .     S
N1075  H1076   1.030   .     S
N1075  C1077   1.446   .     S
C1077  H1080   1.111   .     S
C1077  H1078   1.111   .     S
C1077  H1079   1.111   .     S
C1081  O1124   1.289   .     A
C1081  O1125   1.290   .     A
C1081  C1097   1.446   .     S
C1082  C1083   1.418   .     A
C1082  C1108   1.410   .     A
C1082  C436    1.419   1_556 S
C1083  C1090   1.424   .     A
C1083  C1087   1.424   .     A
C1084  C1088   1.425   .     A
C1085  C1086   1.406   .     A
C1085  C436    1.420   1_556 S
C1085  C456    1.406   1_556 S
C1086  C1087   1.412   .     A
C1086  N1135   1.437   .     S
C1087  N1147   1.430   .     S
C1088  C1105   1.412   .     A
C1088  N1138   1.440   .     S
C1089  C1104   1.388   .     A
C1089  C1105   1.396   .     A
C1089  H1111   1.084   .     S
C1090  C1106   1.417   .     A
C1090  C1092   1.469   .     S
C1091  H1121   1.083   .     S
C1091  C1097   1.398   .     A
C1091  C661    1.383   1_565 S
C1092  O1127   1.296   .     A
C1092  O1126   1.291   .     A
C1093  H1112   1.083   .     S
C1093  C1094   1.403   .     A
C1094  C1102   1.454   .     S
C1094  C1095   1.413   .     A
C1095  N1132   1.434   .     S
C1096  H1113   1.084   .     S
C1096  C1097   1.397   .     A
C1096  C663    1.387   1_565 S
C1098  H1114   1.079   .     S
C1098  N1123   1.366   .     A
C1098  C1171   1.416   .     S
C1099  N1122   1.367   .     A
C1099  H1115   1.082   .     S
C1099  C1242   1.416   1_455 S
C1100  N1122   1.367   .     A
C1100  H1116   1.081   .     S
C1100  C1245   1.416   1_455 S
C1101  H1117   1.082   .     S
C1101  N1123   1.367   .     A
C1101  C1172   1.416   .     S
C1102  O1128   1.288   .     A
C1102  O1129   1.294   .     A
C1103  O1131   1.298   .     A
C1103  C1105   1.470   .     S
C1103  O1130   1.291   .     A
C1104  H1118   1.083   .     S
C1106  C1107   1.389   .     A
C1106  N1141   1.425   .     S
C1107  H1120   1.083   .     S
C1107  C1108   1.384   .     A
C1108  H471    1.075   1_556 S
Cu1109 O1126   1.959   .     S
Cu1109 Cu1110  2.675   .     S
Cu1109 O1130   1.946   .     S
Cu1109 O1124   1.964   .     S
Cu1109 N1122   2.010   .     S
Cu1109 O1128   1.966   .     S
Cu1110 N1123   2.010   .     S
Cu1110 O1131   1.959   .     S
Cu1110 O1127   1.946   .     S
Cu1110 O1125   1.966   .     S
Cu1110 O1129   1.964   .     S
N1132  H1133   1.046   .     S
N1132  H1134   1.046   .     S
N1135  H1136   1.045   .     S
N1135  H1137   1.045   .     S
N1138  H1140   1.045   .     S
N1138  H1139   1.044   .     S
N1141  H1142   1.030   .     S
N1141  C1143   1.449   .     S
C1143  H1145   1.109   .     S
C1143  H1146   1.113   .     S
C1143  H1144   1.109   .     S
N1147  H1148   1.030   .     S
N1147  C1149   1.446   .     S
C1149  H1152   1.111   .     S
C1149  H1150   1.111   .     S
C1149  H1151   1.111   .     S
C1153  O1196   1.289   .     A
C1153  O1197   1.290   .     A
C1153  C1169   1.446   .     S
C1154  C1155   1.418   .     A
C1154  C1180   1.410   .     A
C1154  C508    1.419   1_556 S
C1155  C1162   1.424   .     A
C1155  C1159   1.424   .     A
C1156  C1160   1.425   .     A
C1157  C1158   1.406   .     A
C1157  C508    1.420   1_556 S
C1157  C528    1.406   1_556 S
C1158  C1159   1.412   .     A
C1158  N1207   1.437   .     S
C1159  N1219   1.430   .     S
C1160  C1177   1.412   .     A
C1160  N1210   1.440   .     S
C1161  C1176   1.388   .     A
C1161  C1177   1.396   .     A
C1161  H1183   1.084   .     S
C1162  C1178   1.417   .     A
C1162  C1164   1.469   .     S
C1163  H1193   1.083   .     S
C1163  C1169   1.398   .     A
C1163  C733    1.383   1_565 S
C1164  O1199   1.296   .     A
C1164  O1198   1.291   .     A
C1165  H1184   1.083   .     S
C1165  C1166   1.403   .     A
C1166  C1174   1.454   .     S
C1166  C1167   1.413   .     A
C1167  N1204   1.434   .     S
C1168  H1185   1.084   .     S
C1168  C1169   1.397   .     A
C1168  C735    1.387   1_565 S
C1170  H1186   1.079   .     S
C1170  N1195   1.366   .     A
C1170  C1243   1.416   .     S
C1171  N1194   1.367   .     A
C1171  H1187   1.082   .     S
C1172  N1194   1.367   .     A
C1172  H1188   1.081   .     S
C1173  H1189   1.082   .     S
C1173  N1195   1.367   .     A
C1173  C1244   1.416   .     S
C1174  O1200   1.288   .     A
C1174  O1201   1.294   .     A
C1175  O1203   1.298   .     A
C1175  C1177   1.470   .     S
C1175  O1202   1.291   .     A
C1176  H1190   1.083   .     S
C1178  C1179   1.389   .     A
C1178  N1213   1.425   .     S
C1179  H1192   1.083   .     S
C1179  C1180   1.384   .     A
C1180  H543    1.075   1_556 S
Cu1181 O1198   1.959   .     S
Cu1181 Cu1182  2.675   .     S
Cu1181 O1202   1.946   .     S
Cu1181 O1196   1.964   .     S
Cu1181 N1194   2.010   .     S
Cu1181 O1200   1.966   .     S
Cu1182 N1195   2.010   .     S
Cu1182 O1203   1.959   .     S
Cu1182 O1199   1.946   .     S
Cu1182 O1197   1.966   .     S
Cu1182 O1201   1.964   .     S
N1204  H1205   1.046   .     S
N1204  H1206   1.046   .     S
N1207  H1208   1.045   .     S
N1207  H1209   1.045   .     S
N1210  H1212   1.045   .     S
N1210  H1211   1.044   .     S
N1213  H1214   1.030   .     S
N1213  C1215   1.449   .     S
C1215  H1217   1.109   .     S
C1215  H1218   1.113   .     S
C1215  H1216   1.109   .     S
N1219  H1220   1.030   .     S
N1219  C1221   1.446   .     S
C1221  H1224   1.111   .     S
C1221  H1222   1.111   .     S
C1221  H1223   1.111   .     S
C1225  O1268   1.289   .     A
C1225  O1269   1.290   .     A
C1225  C1241   1.446   .     S
C1226  C1227   1.418   .     A
C1226  C1252   1.410   .     A
C1226  C580    1.419   1_556 S
C1227  C1234   1.424   .     A
C1227  C1231   1.424   .     A
C1228  C1232   1.425   .     A
C1229  C1230   1.406   .     A
C1229  C580    1.420   1_556 S
C1229  C600    1.406   1_556 S
C1230  C1231   1.412   .     A
C1230  N1279   1.437   .     S
C1231  N1291   1.430   .     S
C1232  C1249   1.412   .     A
C1232  N1282   1.440   .     S
C1233  C1248   1.388   .     A
C1233  C1249   1.396   .     A
C1233  H1255   1.084   .     S
C1234  C1250   1.417   .     A
C1234  C1236   1.469   .     S
C1235  H1265   1.083   .     S
C1235  C1241   1.398   .     A
C1235  C805    1.383   1_565 S
C1236  O1271   1.296   .     A
C1236  O1270   1.291   .     A
C1237  H1256   1.083   .     S
C1237  C1238   1.403   .     A
C1238  C1246   1.454   .     S
C1238  C1239   1.413   .     A
C1239  N1276   1.434   .     S
C1240  H1257   1.084   .     S
C1240  C1241   1.397   .     A
C1240  C807    1.387   1_565 S
C1242  H1258   1.079   .     S
C1242  N1267   1.366   .     A
C1242  C1099   1.416   1_655 S
C1243  N1266   1.367   .     A
C1243  H1259   1.082   .     S
C1244  N1266   1.367   .     A
C1244  H1260   1.081   .     S
C1245  H1261   1.082   .     S
C1245  N1267   1.367   .     A
C1245  C1100   1.416   1_655 S
C1246  O1272   1.288   .     A
C1246  O1273   1.294   .     A
C1247  O1275   1.298   .     A
C1247  C1249   1.470   .     S
C1247  O1274   1.291   .     A
C1248  H1262   1.083   .     S
C1250  C1251   1.389   .     A
C1250  N1285   1.425   .     S
C1251  H1264   1.083   .     S
C1251  C1252   1.384   .     A
C1252  H615    1.075   1_556 S
Cu1253 O1270   1.959   .     S
Cu1253 Cu1254  2.675   .     S
Cu1253 O1274   1.946   .     S
Cu1253 O1268   1.964   .     S
Cu1253 N1266   2.010   .     S
Cu1253 O1272   1.966   .     S
Cu1254 N1267   2.010   .     S
Cu1254 O1275   1.959   .     S
Cu1254 O1271   1.946   .     S
Cu1254 O1269   1.966   .     S
Cu1254 O1273   1.964   .     S
N1276  H1277   1.046   .     S
N1276  H1278   1.046   .     S
N1279  H1280   1.045   .     S
N1279  H1281   1.045   .     S
N1282  H1284   1.045   .     S
N1282  H1283   1.044   .     S
N1285  H1286   1.030   .     S
N1285  C1287   1.449   .     S
C1287  H1289   1.109   .     S
C1287  H1290   1.113   .     S
C1287  H1288   1.109   .     S
N1291  H1292   1.030   .     S
N1291  C1293   1.446   .     S
C1293  H1296   1.111   .     S
C1293  H1294   1.111   .     S
C1293  H1295   1.111   .     S
