data_str_m2_o2_o10_pcu_sym.15
_audit_creation_date              2020-01-03
_audit_creation_method            'Materials Studio'
_symmetry_space_group_name_H-M    'P1'
_symmetry_Int_Tables_number       1
_symmetry_cell_setting            triclinic
loop_
_symmetry_equiv_pos_as_xyz
  x,y,z
_cell_length_a                    26.4410
_cell_length_b                    30.4002
_cell_length_c                    27.6180
_cell_angle_alpha                 90.0850
_cell_angle_beta                  97.8036
_cell_angle_gamma                 90.4253
loop_
_atom_site_label
_atom_site_type_symbol
_atom_site_fract_x
_atom_site_fract_y
_atom_site_fract_z
_atom_site_U_iso_or_equiv
_atom_site_adp_type
_atom_site_occupancy
C1     C     0.16686   0.16493   0.24997   0.00000  Uiso   1.00
C2     C     0.20349   0.27694   0.45066   0.00000  Uiso   1.00
C3     C     0.16535   0.25133   0.02706   0.00000  Uiso   1.00
C4     C     0.16766   0.25126   0.47285   0.00000  Uiso   1.00
C5     C     0.06807   0.24873   0.23782   0.00000  Uiso   1.00
C6     C     0.26532   0.24939   0.26244   0.00000  Uiso   1.00
C7     C     0.01353   0.24216   0.23243   0.00000  Uiso   1.00
C8     C     0.32009   0.25422   0.26910   0.00000  Uiso   1.00
C9     C     0.19274   0.04756   0.28998   0.00000  Uiso   1.00
C10    C     0.12355   0.45226   0.22859   0.00000  Uiso   1.00
C11    C     0.19523   0.09341   0.28933   0.00000  Uiso   1.00
C12    C     0.16567   0.33490   0.24985   0.00000  Uiso   1.00
C13    C     0.12275   0.40633   0.22705   0.00000  Uiso   1.00
C14    C     0.16732   0.11658   0.24988   0.00000  Uiso   1.00
C15    C     0.16578   0.38301   0.24975   0.00000  Uiso   1.00
C16    C     0.13990   0.09272   0.21035   0.00000  Uiso   1.00
C17    C     0.20942   0.40633   0.27208   0.00000  Uiso   1.00
C18    C     0.14216   0.04693   0.21021   0.00000  Uiso   1.00
C19    C     0.20927   0.45221   0.27205   0.00000  Uiso   1.00
C20    C     0.16713   0.02403   0.25032   0.00000  Uiso   1.00
C21    C     0.16656   0.47545   0.25058   0.00000  Uiso   1.00
C22    C     0.32498   0.21381   0.19062   0.00000  Uiso   1.00
C23    C     0.19389   0.22011   0.05646   0.00000  Uiso   1.00
C24    C     0.00907   0.27808   0.31455   0.00000  Uiso   1.00
C25    C     0.22945   0.11535   0.32946   0.00000  Uiso   1.00
C26    C     0.07599   0.38433   0.20190   0.00000  Uiso   1.00
C27    C     0.10650   0.11377   0.16945   0.00000  Uiso   1.00
C28    C     0.25695   0.38417   0.29359   0.00000  Uiso   1.00
C29    C     0.10389   0.31644   0.02295   0.00000  Uiso   1.00
C30    C     0.24318   0.30536   0.47920   0.00000  Uiso   1.00
C31    C     0.13252   0.22512   0.44237   0.00000  Uiso   1.00
C32    C     0.19400   0.21995   0.10734   0.00000  Uiso   1.00
C33    C     0.13263   0.22491   0.39152   0.00000  Uiso   1.00
C34    C     0.13794   0.28036   0.10184   0.00000  Uiso   1.00
C35    C     0.20151   0.27551   0.39912   0.00000  Uiso   1.00
C36    C     0.13618   0.28214   0.05033   0.00000  Uiso   1.00
Cu37   Cu    0.16667   0.24999   0.29821   0.00000  Uiso   1.00
Cu38   Cu    0.16667   0.25000   0.20178   0.00000  Uiso   1.00
H39    H     0.21210   0.03011   0.32123   0.00000  Uiso   1.00
H40    H     0.22797   0.29498   0.38131   0.00000  Uiso   1.00
H41    H     0.28808   0.15733   0.16886   0.00000  Uiso   1.00
H42    H     0.01655   0.28144   0.38815   0.00000  Uiso   1.00
H43    H     0.25715   0.11658   0.40121   0.00000  Uiso   1.00
H44    H     0.02668   0.33335   0.19878   0.00000  Uiso   1.00
H45    H     0.08088   0.11428   0.09724   0.00000  Uiso   1.00
H46    H     0.31876   0.38485   0.34527   0.00000  Uiso   1.00
H47    H     0.05898   0.36954   0.02625   0.00000  Uiso   1.00
H48    H     0.30273   0.34719   0.47793   0.00000  Uiso   1.00
H49    H     0.08975   0.47001   0.21329   0.00000  Uiso   1.00
H50    H     0.12299   0.02903   0.17896   0.00000  Uiso   1.00
H51    H     0.24352   0.46984   0.28730   0.00000  Uiso   1.00
H52    H     0.21639   0.19605   0.04004   0.00000  Uiso   1.00
H53    H     0.10476   0.20514   0.45795   0.00000  Uiso   1.00
H54    H     0.21600   0.19562   0.12926   0.00000  Uiso   1.00
H55    H     0.10521   0.20469   0.36865   0.00000  Uiso   1.00
H56    H     0.11599   0.30330   0.12034   0.00000  Uiso   1.00
N57    N     0.16667   0.25001   0.12934   0.00000  Uiso   1.00
N58    N     0.16667   0.24999   0.37065   0.00000  Uiso   1.00
O59    O     0.16667   0.18572   0.29071   0.00000  Uiso   1.00
O60    O     0.29845   0.17534   0.19956   0.00000  Uiso   1.00
O61    O     0.03416   0.31175   0.31193   0.00000  Uiso   1.00
O62    O     0.33324   0.26241   0.36016   0.00000  Uiso   1.00
O63    O     0.25666   0.14623   0.32068   0.00000  Uiso   1.00
O64    O     0.23218   0.09929   0.37716   0.00000  Uiso   1.00
O65    O     0.05083   0.40221   0.16705   0.00000  Uiso   1.00
O66    O     0.05960   0.34410   0.21853   0.00000  Uiso   1.00
O67    O     0.07850   0.14400   0.17742   0.00000  Uiso   1.00
O68    O     0.10544   0.09761   0.12189   0.00000  Uiso   1.00
O69    O     0.27064   0.35056   0.27510   0.00000  Uiso   1.00
O70    O     0.16666   0.31427   0.20928   0.00000  Uiso   1.00
O71    O     0.28717   0.40276   0.33406   0.00000  Uiso   1.00
O72    O     0.09794   0.31738   0.47829   0.00000  Uiso   1.00
O73    O     0.07973   0.34796   0.04862   0.00000  Uiso   1.00
O74    O     0.24643   0.30804   0.02368   0.00000  Uiso   1.00
O75    O     0.27746   0.32925   0.45484   0.00000  Uiso   1.00
O76    O     0.16667   0.18573   0.20928   0.00000  Uiso   1.00
O77    O     0.16666   0.31427   0.29072   0.00000  Uiso   1.00
O78    O     0.09161   0.24999   0.28132   0.00000  Uiso   1.00
O79    O     0.24172   0.25000   0.21868   0.00000  Uiso   1.00
O80    O     0.09161   0.25000   0.19988   0.00000  Uiso   1.00
O81    O     0.24172   0.25000   0.30011   0.00000  Uiso   1.00
O82    O     0.33178   0.22327   0.14895   0.00000  Uiso   1.00
C83    C     0.50019   0.16493   0.24997   0.00000  Uiso   1.00
C84    C     0.53682   0.27694   0.45066   0.00000  Uiso   1.00
C85    C     0.49869   0.25133   0.02706   0.00000  Uiso   1.00
C86    C     0.50100   0.25126   0.47285   0.00000  Uiso   1.00
C87    C     0.40140   0.24873   0.23782   0.00000  Uiso   1.00
C88    C     0.59866   0.24939   0.26244   0.00000  Uiso   1.00
C89    C     0.34687   0.24216   0.23243   0.00000  Uiso   1.00
C90    C     0.65343   0.25422   0.26910   0.00000  Uiso   1.00
C91    C     0.52608   0.04756   0.28998   0.00000  Uiso   1.00
C92    C     0.45688   0.45226   0.22859   0.00000  Uiso   1.00
C93    C     0.52857   0.09341   0.28933   0.00000  Uiso   1.00
C94    C     0.49900   0.33490   0.24985   0.00000  Uiso   1.00
C95    C     0.45608   0.40633   0.22705   0.00000  Uiso   1.00
C96    C     0.50065   0.11658   0.24988   0.00000  Uiso   1.00
C97    C     0.49911   0.38301   0.24975   0.00000  Uiso   1.00
C98    C     0.47324   0.09272   0.21035   0.00000  Uiso   1.00
C99    C     0.54276   0.40633   0.27208   0.00000  Uiso   1.00
C100   C     0.47549   0.04693   0.21021   0.00000  Uiso   1.00
C101   C     0.54260   0.45221   0.27205   0.00000  Uiso   1.00
C102   C     0.50047   0.02403   0.25032   0.00000  Uiso   1.00
C103   C     0.49990   0.47545   0.25058   0.00000  Uiso   1.00
C104   C     0.65832   0.21381   0.19062   0.00000  Uiso   1.00
C105   C     0.52723   0.22011   0.05646   0.00000  Uiso   1.00
C106   C     0.34240   0.27808   0.31455   0.00000  Uiso   1.00
C107   C     0.56278   0.11535   0.32946   0.00000  Uiso   1.00
C108   C     0.40933   0.38433   0.20190   0.00000  Uiso   1.00
C109   C     0.43983   0.11377   0.16945   0.00000  Uiso   1.00
C110   C     0.59028   0.38417   0.29359   0.00000  Uiso   1.00
C111   C     0.43722   0.31644   0.02295   0.00000  Uiso   1.00
C112   C     0.57652   0.30536   0.47920   0.00000  Uiso   1.00
C113   C     0.46586   0.22512   0.44237   0.00000  Uiso   1.00
C114   C     0.52733   0.21995   0.10734   0.00000  Uiso   1.00
C115   C     0.46596   0.22491   0.39152   0.00000  Uiso   1.00
C116   C     0.47127   0.28036   0.10184   0.00000  Uiso   1.00
C117   C     0.53484   0.27551   0.39912   0.00000  Uiso   1.00
C118   C     0.46952   0.28214   0.05033   0.00000  Uiso   1.00
Cu119  Cu    0.50000   0.24999   0.29821   0.00000  Uiso   1.00
Cu120  Cu    0.50000   0.25000   0.20178   0.00000  Uiso   1.00
H121   H     0.54543   0.03011   0.32123   0.00000  Uiso   1.00
H122   H     0.56131   0.29498   0.38131   0.00000  Uiso   1.00
H123   H     0.62141   0.15733   0.16886   0.00000  Uiso   1.00
H124   H     0.34988   0.28144   0.38815   0.00000  Uiso   1.00
H125   H     0.59049   0.11658   0.40121   0.00000  Uiso   1.00
H126   H     0.36001   0.33335   0.19878   0.00000  Uiso   1.00
H127   H     0.41421   0.11428   0.09724   0.00000  Uiso   1.00
H128   H     0.65210   0.38485   0.34527   0.00000  Uiso   1.00
H129   H     0.39231   0.36954   0.02625   0.00000  Uiso   1.00
H130   H     0.63606   0.34719   0.47793   0.00000  Uiso   1.00
H131   H     0.42309   0.47001   0.21329   0.00000  Uiso   1.00
H132   H     0.45633   0.02903   0.17896   0.00000  Uiso   1.00
H133   H     0.57685   0.46984   0.28730   0.00000  Uiso   1.00
H134   H     0.54972   0.19605   0.04004   0.00000  Uiso   1.00
H135   H     0.43809   0.20514   0.45795   0.00000  Uiso   1.00
H136   H     0.54933   0.19562   0.12926   0.00000  Uiso   1.00
H137   H     0.43855   0.20469   0.36865   0.00000  Uiso   1.00
H138   H     0.44932   0.30330   0.12034   0.00000  Uiso   1.00
N139   N     0.50000   0.25001   0.12934   0.00000  Uiso   1.00
N140   N     0.50000   0.24999   0.37065   0.00000  Uiso   1.00
O141   O     0.50000   0.18572   0.29071   0.00000  Uiso   1.00
O142   O     0.63178   0.17534   0.19956   0.00000  Uiso   1.00
O143   O     0.36749   0.31175   0.31193   0.00000  Uiso   1.00
O144   O     0.66657   0.26241   0.36016   0.00000  Uiso   1.00
O145   O     0.59000   0.14623   0.32068   0.00000  Uiso   1.00
O146   O     0.56551   0.09929   0.37716   0.00000  Uiso   1.00
O147   O     0.38416   0.40221   0.16705   0.00000  Uiso   1.00
O148   O     0.39293   0.34410   0.21853   0.00000  Uiso   1.00
O149   O     0.41183   0.14400   0.17742   0.00000  Uiso   1.00
O150   O     0.43877   0.09761   0.12189   0.00000  Uiso   1.00
O151   O     0.60397   0.35056   0.27510   0.00000  Uiso   1.00
O152   O     0.50000   0.31427   0.20928   0.00000  Uiso   1.00
O153   O     0.62050   0.40276   0.33406   0.00000  Uiso   1.00
O154   O     0.43127   0.31738   0.47829   0.00000  Uiso   1.00
O155   O     0.41307   0.34796   0.04862   0.00000  Uiso   1.00
O156   O     0.57976   0.30804   0.02368   0.00000  Uiso   1.00
O157   O     0.61080   0.32925   0.45484   0.00000  Uiso   1.00
O158   O     0.50000   0.18573   0.20928   0.00000  Uiso   1.00
O159   O     0.50000   0.31427   0.29072   0.00000  Uiso   1.00
O160   O     0.42495   0.24999   0.28132   0.00000  Uiso   1.00
O161   O     0.57505   0.25000   0.21868   0.00000  Uiso   1.00
O162   O     0.42495   0.25000   0.19988   0.00000  Uiso   1.00
O163   O     0.57505   0.25000   0.30011   0.00000  Uiso   1.00
O164   O     0.66511   0.22327   0.14895   0.00000  Uiso   1.00
C165   C     0.83353   0.16493   0.24997   0.00000  Uiso   1.00
C166   C     0.87015   0.27694   0.45066   0.00000  Uiso   1.00
C167   C     0.83202   0.25133   0.02706   0.00000  Uiso   1.00
C168   C     0.83433   0.25126   0.47285   0.00000  Uiso   1.00
C169   C     0.73474   0.24873   0.23782   0.00000  Uiso   1.00
C170   C     0.93199   0.24939   0.26244   0.00000  Uiso   1.00
C171   C     0.68020   0.24216   0.23243   0.00000  Uiso   1.00
C172   C     0.98676   0.25422   0.26910   0.00000  Uiso   1.00
C173   C     0.85941   0.04756   0.28998   0.00000  Uiso   1.00
C174   C     0.79021   0.45226   0.22859   0.00000  Uiso   1.00
C175   C     0.86190   0.09341   0.28933   0.00000  Uiso   1.00
C176   C     0.83234   0.33490   0.24985   0.00000  Uiso   1.00
C177   C     0.78941   0.40633   0.22705   0.00000  Uiso   1.00
C178   C     0.83399   0.11658   0.24988   0.00000  Uiso   1.00
C179   C     0.83245   0.38301   0.24975   0.00000  Uiso   1.00
C180   C     0.80657   0.09272   0.21035   0.00000  Uiso   1.00
C181   C     0.87609   0.40633   0.27208   0.00000  Uiso   1.00
C182   C     0.80882   0.04693   0.21021   0.00000  Uiso   1.00
C183   C     0.87593   0.45221   0.27205   0.00000  Uiso   1.00
C184   C     0.83380   0.02403   0.25032   0.00000  Uiso   1.00
C185   C     0.83323   0.47545   0.25058   0.00000  Uiso   1.00
C186   C     0.99165   0.21381   0.19062   0.00000  Uiso   1.00
C187   C     0.86056   0.22011   0.05646   0.00000  Uiso   1.00
C188   C     0.67573   0.27808   0.31455   0.00000  Uiso   1.00
C189   C     0.89611   0.11535   0.32946   0.00000  Uiso   1.00
C190   C     0.74266   0.38433   0.20190   0.00000  Uiso   1.00
C191   C     0.77316   0.11377   0.16945   0.00000  Uiso   1.00
C192   C     0.92362   0.38417   0.29359   0.00000  Uiso   1.00
C193   C     0.77056   0.31644   0.02295   0.00000  Uiso   1.00
C194   C     0.90985   0.30536   0.47920   0.00000  Uiso   1.00
C195   C     0.79919   0.22512   0.44237   0.00000  Uiso   1.00
C196   C     0.86066   0.21995   0.10734   0.00000  Uiso   1.00
C197   C     0.79930   0.22491   0.39152   0.00000  Uiso   1.00
C198   C     0.80460   0.28036   0.10184   0.00000  Uiso   1.00
C199   C     0.86817   0.27551   0.39912   0.00000  Uiso   1.00
C200   C     0.80285   0.28214   0.05033   0.00000  Uiso   1.00
Cu201  Cu    0.83333   0.24999   0.29821   0.00000  Uiso   1.00
Cu202  Cu    0.83333   0.25000   0.20178   0.00000  Uiso   1.00
H203   H     0.87876   0.03011   0.32123   0.00000  Uiso   1.00
H204   H     0.89464   0.29498   0.38131   0.00000  Uiso   1.00
H205   H     0.95474   0.15733   0.16886   0.00000  Uiso   1.00
H206   H     0.68321   0.28144   0.38815   0.00000  Uiso   1.00
H207   H     0.92382   0.11658   0.40121   0.00000  Uiso   1.00
H208   H     0.69334   0.33335   0.19878   0.00000  Uiso   1.00
H209   H     0.74754   0.11428   0.09724   0.00000  Uiso   1.00
H210   H     0.98543   0.38485   0.34527   0.00000  Uiso   1.00
H211   H     0.72564   0.36954   0.02625   0.00000  Uiso   1.00
H212   H     0.96939   0.34719   0.47793   0.00000  Uiso   1.00
H213   H     0.75642   0.47001   0.21329   0.00000  Uiso   1.00
H214   H     0.78966   0.02903   0.17896   0.00000  Uiso   1.00
H215   H     0.91018   0.46984   0.28730   0.00000  Uiso   1.00
H216   H     0.88306   0.19605   0.04004   0.00000  Uiso   1.00
H217   H     0.77142   0.20514   0.45795   0.00000  Uiso   1.00
H218   H     0.88266   0.19562   0.12926   0.00000  Uiso   1.00
H219   H     0.77188   0.20469   0.36865   0.00000  Uiso   1.00
H220   H     0.78265   0.30330   0.12034   0.00000  Uiso   1.00
N221   N     0.83333   0.25001   0.12934   0.00000  Uiso   1.00
N222   N     0.83333   0.24999   0.37065   0.00000  Uiso   1.00
O223   O     0.83334   0.18572   0.29071   0.00000  Uiso   1.00
O224   O     0.96512   0.17534   0.19956   0.00000  Uiso   1.00
O225   O     0.70083   0.31175   0.31193   0.00000  Uiso   1.00
O226   O     0.99991   0.26241   0.36016   0.00000  Uiso   1.00
O227   O     0.92333   0.14623   0.32068   0.00000  Uiso   1.00
O228   O     0.89885   0.09929   0.37716   0.00000  Uiso   1.00
O229   O     0.71750   0.40221   0.16705   0.00000  Uiso   1.00
O230   O     0.72626   0.34410   0.21853   0.00000  Uiso   1.00
O231   O     0.74517   0.14400   0.17742   0.00000  Uiso   1.00
O232   O     0.77210   0.09761   0.12189   0.00000  Uiso   1.00
O233   O     0.93730   0.35056   0.27510   0.00000  Uiso   1.00
O234   O     0.83333   0.31427   0.20928   0.00000  Uiso   1.00
O235   O     0.95383   0.40276   0.33406   0.00000  Uiso   1.00
O236   O     0.76461   0.31738   0.47829   0.00000  Uiso   1.00
O237   O     0.74640   0.34796   0.04862   0.00000  Uiso   1.00
O238   O     0.91309   0.30804   0.02368   0.00000  Uiso   1.00
O239   O     0.94413   0.32925   0.45484   0.00000  Uiso   1.00
O240   O     0.83334   0.18573   0.20928   0.00000  Uiso   1.00
O241   O     0.83333   0.31427   0.29072   0.00000  Uiso   1.00
O242   O     0.75828   0.24999   0.28132   0.00000  Uiso   1.00
O243   O     0.90839   0.25000   0.21868   0.00000  Uiso   1.00
O244   O     0.75828   0.25000   0.19988   0.00000  Uiso   1.00
O245   O     0.90839   0.25000   0.30011   0.00000  Uiso   1.00
O246   O     0.99844   0.22327   0.14895   0.00000  Uiso   1.00
C247   C     0.16686   0.66493   0.24997   0.00000  Uiso   1.00
C248   C     0.20349   0.77694   0.45066   0.00000  Uiso   1.00
C249   C     0.16535   0.75133   0.02706   0.00000  Uiso   1.00
C250   C     0.16766   0.75126   0.47285   0.00000  Uiso   1.00
C251   C     0.06807   0.74873   0.23782   0.00000  Uiso   1.00
C252   C     0.26532   0.74939   0.26244   0.00000  Uiso   1.00
C253   C     0.01353   0.74216   0.23243   0.00000  Uiso   1.00
C254   C     0.32009   0.75422   0.26910   0.00000  Uiso   1.00
C255   C     0.19274   0.54756   0.28998   0.00000  Uiso   1.00
C256   C     0.12355   0.95226   0.22859   0.00000  Uiso   1.00
C257   C     0.19523   0.59341   0.28933   0.00000  Uiso   1.00
C258   C     0.16567   0.83490   0.24985   0.00000  Uiso   1.00
C259   C     0.12275   0.90633   0.22705   0.00000  Uiso   1.00
C260   C     0.16732   0.61658   0.24988   0.00000  Uiso   1.00
C261   C     0.16578   0.88301   0.24975   0.00000  Uiso   1.00
C262   C     0.13990   0.59272   0.21035   0.00000  Uiso   1.00
C263   C     0.20942   0.90633   0.27208   0.00000  Uiso   1.00
C264   C     0.14216   0.54693   0.21021   0.00000  Uiso   1.00
C265   C     0.20927   0.95221   0.27205   0.00000  Uiso   1.00
C266   C     0.16713   0.52403   0.25032   0.00000  Uiso   1.00
C267   C     0.16656   0.97545   0.25058   0.00000  Uiso   1.00
C268   C     0.32498   0.71381   0.19062   0.00000  Uiso   1.00
C269   C     0.19389   0.72011   0.05646   0.00000  Uiso   1.00
C270   C     0.00907   0.77808   0.31455   0.00000  Uiso   1.00
C271   C     0.22945   0.61535   0.32946   0.00000  Uiso   1.00
C272   C     0.07599   0.88433   0.20190   0.00000  Uiso   1.00
C273   C     0.10650   0.61377   0.16945   0.00000  Uiso   1.00
C274   C     0.25695   0.88417   0.29359   0.00000  Uiso   1.00
C275   C     0.10389   0.81644   0.02295   0.00000  Uiso   1.00
C276   C     0.24318   0.80536   0.47920   0.00000  Uiso   1.00
C277   C     0.13252   0.72512   0.44237   0.00000  Uiso   1.00
C278   C     0.19400   0.71995   0.10734   0.00000  Uiso   1.00
C279   C     0.13263   0.72491   0.39152   0.00000  Uiso   1.00
C280   C     0.13794   0.78036   0.10184   0.00000  Uiso   1.00
C281   C     0.20151   0.77551   0.39912   0.00000  Uiso   1.00
C282   C     0.13618   0.78214   0.05033   0.00000  Uiso   1.00
Cu283  Cu    0.16667   0.74999   0.29821   0.00000  Uiso   1.00
Cu284  Cu    0.16667   0.75000   0.20178   0.00000  Uiso   1.00
H285   H     0.21210   0.53011   0.32123   0.00000  Uiso   1.00
H286   H     0.22797   0.79498   0.38131   0.00000  Uiso   1.00
H287   H     0.28808   0.65733   0.16886   0.00000  Uiso   1.00
H288   H     0.01655   0.78144   0.38815   0.00000  Uiso   1.00
H289   H     0.25715   0.61658   0.40121   0.00000  Uiso   1.00
H290   H     0.02668   0.83335   0.19878   0.00000  Uiso   1.00
H291   H     0.08088   0.61428   0.09724   0.00000  Uiso   1.00
H292   H     0.31876   0.88485   0.34527   0.00000  Uiso   1.00
H293   H     0.05898   0.86954   0.02625   0.00000  Uiso   1.00
H294   H     0.30273   0.84719   0.47793   0.00000  Uiso   1.00
H295   H     0.08975   0.97001   0.21329   0.00000  Uiso   1.00
H296   H     0.12299   0.52903   0.17896   0.00000  Uiso   1.00
H297   H     0.24352   0.96984   0.28730   0.00000  Uiso   1.00
H298   H     0.21639   0.69605   0.04004   0.00000  Uiso   1.00
H299   H     0.10476   0.70514   0.45795   0.00000  Uiso   1.00
H300   H     0.21600   0.69562   0.12926   0.00000  Uiso   1.00
H301   H     0.10521   0.70469   0.36865   0.00000  Uiso   1.00
H302   H     0.11599   0.80330   0.12034   0.00000  Uiso   1.00
N303   N     0.16667   0.75001   0.12934   0.00000  Uiso   1.00
N304   N     0.16667   0.74999   0.37065   0.00000  Uiso   1.00
O305   O     0.16667   0.68572   0.29071   0.00000  Uiso   1.00
O306   O     0.29845   0.67534   0.19956   0.00000  Uiso   1.00
O307   O     0.03416   0.81175   0.31193   0.00000  Uiso   1.00
O308   O     0.33324   0.76241   0.36016   0.00000  Uiso   1.00
O309   O     0.25666   0.64623   0.32068   0.00000  Uiso   1.00
O310   O     0.23218   0.59929   0.37716   0.00000  Uiso   1.00
O311   O     0.05083   0.90221   0.16705   0.00000  Uiso   1.00
O312   O     0.05960   0.84410   0.21853   0.00000  Uiso   1.00
O313   O     0.07850   0.64400   0.17742   0.00000  Uiso   1.00
O314   O     0.10544   0.59761   0.12189   0.00000  Uiso   1.00
O315   O     0.27064   0.85056   0.27510   0.00000  Uiso   1.00
O316   O     0.16666   0.81427   0.20928   0.00000  Uiso   1.00
O317   O     0.28717   0.90276   0.33406   0.00000  Uiso   1.00
O318   O     0.09794   0.81738   0.47829   0.00000  Uiso   1.00
O319   O     0.07973   0.84796   0.04862   0.00000  Uiso   1.00
O320   O     0.24643   0.80804   0.02368   0.00000  Uiso   1.00
O321   O     0.27746   0.82925   0.45484   0.00000  Uiso   1.00
O322   O     0.16667   0.68573   0.20928   0.00000  Uiso   1.00
O323   O     0.16666   0.81427   0.29072   0.00000  Uiso   1.00
O324   O     0.09161   0.74999   0.28132   0.00000  Uiso   1.00
O325   O     0.24172   0.75000   0.21868   0.00000  Uiso   1.00
O326   O     0.09161   0.75000   0.19988   0.00000  Uiso   1.00
O327   O     0.24172   0.75000   0.30011   0.00000  Uiso   1.00
O328   O     0.33178   0.72327   0.14895   0.00000  Uiso   1.00
C329   C     0.50019   0.66493   0.24997   0.00000  Uiso   1.00
C330   C     0.53682   0.77694   0.45066   0.00000  Uiso   1.00
C331   C     0.49869   0.75133   0.02706   0.00000  Uiso   1.00
C332   C     0.50100   0.75126   0.47285   0.00000  Uiso   1.00
C333   C     0.40140   0.74873   0.23782   0.00000  Uiso   1.00
C334   C     0.59866   0.74939   0.26244   0.00000  Uiso   1.00
C335   C     0.34687   0.74216   0.23243   0.00000  Uiso   1.00
C336   C     0.65343   0.75422   0.26910   0.00000  Uiso   1.00
C337   C     0.52608   0.54756   0.28998   0.00000  Uiso   1.00
C338   C     0.45688   0.95226   0.22859   0.00000  Uiso   1.00
C339   C     0.52857   0.59341   0.28933   0.00000  Uiso   1.00
C340   C     0.49900   0.83490   0.24985   0.00000  Uiso   1.00
C341   C     0.45608   0.90633   0.22705   0.00000  Uiso   1.00
C342   C     0.50065   0.61658   0.24988   0.00000  Uiso   1.00
C343   C     0.49911   0.88301   0.24975   0.00000  Uiso   1.00
C344   C     0.47324   0.59272   0.21035   0.00000  Uiso   1.00
C345   C     0.54276   0.90633   0.27208   0.00000  Uiso   1.00
C346   C     0.47549   0.54693   0.21021   0.00000  Uiso   1.00
C347   C     0.54260   0.95221   0.27205   0.00000  Uiso   1.00
C348   C     0.50047   0.52403   0.25032   0.00000  Uiso   1.00
C349   C     0.49990   0.97545   0.25058   0.00000  Uiso   1.00
C350   C     0.65832   0.71381   0.19062   0.00000  Uiso   1.00
C351   C     0.52723   0.72011   0.05646   0.00000  Uiso   1.00
C352   C     0.34240   0.77808   0.31455   0.00000  Uiso   1.00
C353   C     0.56278   0.61535   0.32946   0.00000  Uiso   1.00
C354   C     0.40933   0.88433   0.20190   0.00000  Uiso   1.00
C355   C     0.43983   0.61377   0.16945   0.00000  Uiso   1.00
C356   C     0.59028   0.88417   0.29359   0.00000  Uiso   1.00
C357   C     0.43722   0.81644   0.02295   0.00000  Uiso   1.00
C358   C     0.57652   0.80536   0.47920   0.00000  Uiso   1.00
C359   C     0.46586   0.72512   0.44237   0.00000  Uiso   1.00
C360   C     0.52733   0.71995   0.10734   0.00000  Uiso   1.00
C361   C     0.46596   0.72491   0.39152   0.00000  Uiso   1.00
C362   C     0.47127   0.78036   0.10184   0.00000  Uiso   1.00
C363   C     0.53484   0.77551   0.39912   0.00000  Uiso   1.00
C364   C     0.46952   0.78214   0.05033   0.00000  Uiso   1.00
Cu365  Cu    0.50000   0.74999   0.29821   0.00000  Uiso   1.00
Cu366  Cu    0.50000   0.75000   0.20178   0.00000  Uiso   1.00
H367   H     0.54543   0.53011   0.32123   0.00000  Uiso   1.00
H368   H     0.56131   0.79498   0.38131   0.00000  Uiso   1.00
H369   H     0.62141   0.65733   0.16886   0.00000  Uiso   1.00
H370   H     0.34988   0.78144   0.38815   0.00000  Uiso   1.00
H371   H     0.59049   0.61658   0.40121   0.00000  Uiso   1.00
H372   H     0.36001   0.83335   0.19878   0.00000  Uiso   1.00
H373   H     0.41421   0.61428   0.09724   0.00000  Uiso   1.00
H374   H     0.65210   0.88485   0.34527   0.00000  Uiso   1.00
H375   H     0.39231   0.86954   0.02625   0.00000  Uiso   1.00
H376   H     0.63606   0.84719   0.47793   0.00000  Uiso   1.00
H377   H     0.42309   0.97001   0.21329   0.00000  Uiso   1.00
H378   H     0.45633   0.52903   0.17896   0.00000  Uiso   1.00
H379   H     0.57685   0.96984   0.28730   0.00000  Uiso   1.00
H380   H     0.54972   0.69605   0.04004   0.00000  Uiso   1.00
H381   H     0.43809   0.70514   0.45795   0.00000  Uiso   1.00
H382   H     0.54933   0.69562   0.12926   0.00000  Uiso   1.00
H383   H     0.43855   0.70469   0.36865   0.00000  Uiso   1.00
H384   H     0.44932   0.80330   0.12034   0.00000  Uiso   1.00
N385   N     0.50000   0.75001   0.12934   0.00000  Uiso   1.00
N386   N     0.50000   0.74999   0.37065   0.00000  Uiso   1.00
O387   O     0.50000   0.68572   0.29071   0.00000  Uiso   1.00
O388   O     0.63178   0.67534   0.19956   0.00000  Uiso   1.00
O389   O     0.36749   0.81175   0.31193   0.00000  Uiso   1.00
O390   O     0.66657   0.76241   0.36016   0.00000  Uiso   1.00
O391   O     0.59000   0.64623   0.32068   0.00000  Uiso   1.00
O392   O     0.56551   0.59929   0.37716   0.00000  Uiso   1.00
O393   O     0.38416   0.90221   0.16705   0.00000  Uiso   1.00
O394   O     0.39293   0.84410   0.21853   0.00000  Uiso   1.00
O395   O     0.41183   0.64400   0.17742   0.00000  Uiso   1.00
O396   O     0.43877   0.59761   0.12189   0.00000  Uiso   1.00
O397   O     0.60397   0.85056   0.27510   0.00000  Uiso   1.00
O398   O     0.50000   0.81427   0.20928   0.00000  Uiso   1.00
O399   O     0.62050   0.90276   0.33406   0.00000  Uiso   1.00
O400   O     0.43127   0.81738   0.47829   0.00000  Uiso   1.00
O401   O     0.41307   0.84796   0.04862   0.00000  Uiso   1.00
O402   O     0.57976   0.80804   0.02368   0.00000  Uiso   1.00
O403   O     0.61080   0.82925   0.45484   0.00000  Uiso   1.00
O404   O     0.50000   0.68573   0.20928   0.00000  Uiso   1.00
O405   O     0.50000   0.81427   0.29072   0.00000  Uiso   1.00
O406   O     0.42495   0.74999   0.28132   0.00000  Uiso   1.00
O407   O     0.57505   0.75000   0.21868   0.00000  Uiso   1.00
O408   O     0.42495   0.75000   0.19988   0.00000  Uiso   1.00
O409   O     0.57505   0.75000   0.30011   0.00000  Uiso   1.00
O410   O     0.66511   0.72327   0.14895   0.00000  Uiso   1.00
C411   C     0.83353   0.66493   0.24997   0.00000  Uiso   1.00
C412   C     0.87015   0.77694   0.45066   0.00000  Uiso   1.00
C413   C     0.83202   0.75133   0.02706   0.00000  Uiso   1.00
C414   C     0.83433   0.75126   0.47285   0.00000  Uiso   1.00
C415   C     0.73474   0.74873   0.23782   0.00000  Uiso   1.00
C416   C     0.93199   0.74939   0.26244   0.00000  Uiso   1.00
C417   C     0.68020   0.74216   0.23243   0.00000  Uiso   1.00
C418   C     0.98676   0.75422   0.26910   0.00000  Uiso   1.00
C419   C     0.85941   0.54756   0.28998   0.00000  Uiso   1.00
C420   C     0.79021   0.95226   0.22859   0.00000  Uiso   1.00
C421   C     0.86190   0.59341   0.28933   0.00000  Uiso   1.00
C422   C     0.83234   0.83490   0.24985   0.00000  Uiso   1.00
C423   C     0.78941   0.90633   0.22705   0.00000  Uiso   1.00
C424   C     0.83399   0.61658   0.24988   0.00000  Uiso   1.00
C425   C     0.83245   0.88301   0.24975   0.00000  Uiso   1.00
C426   C     0.80657   0.59272   0.21035   0.00000  Uiso   1.00
C427   C     0.87609   0.90633   0.27208   0.00000  Uiso   1.00
C428   C     0.80882   0.54693   0.21021   0.00000  Uiso   1.00
C429   C     0.87593   0.95221   0.27205   0.00000  Uiso   1.00
C430   C     0.83380   0.52403   0.25032   0.00000  Uiso   1.00
C431   C     0.83323   0.97545   0.25058   0.00000  Uiso   1.00
C432   C     0.99165   0.71381   0.19062   0.00000  Uiso   1.00
C433   C     0.86056   0.72011   0.05646   0.00000  Uiso   1.00
C434   C     0.67573   0.77808   0.31455   0.00000  Uiso   1.00
C435   C     0.89611   0.61535   0.32946   0.00000  Uiso   1.00
C436   C     0.74266   0.88433   0.20190   0.00000  Uiso   1.00
C437   C     0.77316   0.61377   0.16945   0.00000  Uiso   1.00
C438   C     0.92362   0.88417   0.29359   0.00000  Uiso   1.00
C439   C     0.77056   0.81644   0.02295   0.00000  Uiso   1.00
C440   C     0.90985   0.80536   0.47920   0.00000  Uiso   1.00
C441   C     0.79919   0.72512   0.44237   0.00000  Uiso   1.00
C442   C     0.86066   0.71995   0.10734   0.00000  Uiso   1.00
C443   C     0.79930   0.72491   0.39152   0.00000  Uiso   1.00
C444   C     0.80460   0.78036   0.10184   0.00000  Uiso   1.00
C445   C     0.86817   0.77551   0.39912   0.00000  Uiso   1.00
C446   C     0.80285   0.78214   0.05033   0.00000  Uiso   1.00
Cu447  Cu    0.83333   0.74999   0.29821   0.00000  Uiso   1.00
Cu448  Cu    0.83333   0.75000   0.20178   0.00000  Uiso   1.00
H449   H     0.87876   0.53011   0.32123   0.00000  Uiso   1.00
H450   H     0.89464   0.79498   0.38131   0.00000  Uiso   1.00
H451   H     0.95474   0.65733   0.16886   0.00000  Uiso   1.00
H452   H     0.68321   0.78144   0.38815   0.00000  Uiso   1.00
H453   H     0.92382   0.61658   0.40121   0.00000  Uiso   1.00
H454   H     0.69334   0.83335   0.19878   0.00000  Uiso   1.00
H455   H     0.74754   0.61428   0.09724   0.00000  Uiso   1.00
H456   H     0.98543   0.88485   0.34527   0.00000  Uiso   1.00
H457   H     0.72564   0.86954   0.02625   0.00000  Uiso   1.00
H458   H     0.96939   0.84719   0.47793   0.00000  Uiso   1.00
H459   H     0.75642   0.97001   0.21329   0.00000  Uiso   1.00
H460   H     0.78966   0.52903   0.17896   0.00000  Uiso   1.00
H461   H     0.91018   0.96984   0.28730   0.00000  Uiso   1.00
H462   H     0.88306   0.69605   0.04004   0.00000  Uiso   1.00
H463   H     0.77142   0.70514   0.45795   0.00000  Uiso   1.00
H464   H     0.88266   0.69562   0.12926   0.00000  Uiso   1.00
H465   H     0.77188   0.70469   0.36865   0.00000  Uiso   1.00
H466   H     0.78265   0.80330   0.12034   0.00000  Uiso   1.00
N467   N     0.83333   0.75001   0.12934   0.00000  Uiso   1.00
N468   N     0.83333   0.74999   0.37065   0.00000  Uiso   1.00
O469   O     0.83334   0.68572   0.29071   0.00000  Uiso   1.00
O470   O     0.96512   0.67534   0.19956   0.00000  Uiso   1.00
O471   O     0.70083   0.81175   0.31193   0.00000  Uiso   1.00
O472   O     0.99991   0.76241   0.36016   0.00000  Uiso   1.00
O473   O     0.92333   0.64623   0.32068   0.00000  Uiso   1.00
O474   O     0.89885   0.59929   0.37716   0.00000  Uiso   1.00
O475   O     0.71750   0.90221   0.16705   0.00000  Uiso   1.00
O476   O     0.72626   0.84410   0.21853   0.00000  Uiso   1.00
O477   O     0.74517   0.64400   0.17742   0.00000  Uiso   1.00
O478   O     0.77210   0.59761   0.12189   0.00000  Uiso   1.00
O479   O     0.93730   0.85056   0.27510   0.00000  Uiso   1.00
O480   O     0.83333   0.81427   0.20928   0.00000  Uiso   1.00
O481   O     0.95383   0.90276   0.33406   0.00000  Uiso   1.00
O482   O     0.76461   0.81738   0.47829   0.00000  Uiso   1.00
O483   O     0.74640   0.84796   0.04862   0.00000  Uiso   1.00
O484   O     0.91309   0.80804   0.02368   0.00000  Uiso   1.00
O485   O     0.94413   0.82925   0.45484   0.00000  Uiso   1.00
O486   O     0.83334   0.68573   0.20928   0.00000  Uiso   1.00
O487   O     0.83333   0.81427   0.29072   0.00000  Uiso   1.00
O488   O     0.75828   0.74999   0.28132   0.00000  Uiso   1.00
O489   O     0.90839   0.75000   0.21868   0.00000  Uiso   1.00
O490   O     0.75828   0.75000   0.19988   0.00000  Uiso   1.00
O491   O     0.90839   0.75000   0.30011   0.00000  Uiso   1.00
O492   O     0.99844   0.72327   0.14895   0.00000  Uiso   1.00
C493   C     0.16686   0.16493   0.74997   0.00000  Uiso   1.00
C494   C     0.20349   0.27694   0.95066   0.00000  Uiso   1.00
C495   C     0.16535   0.25133   0.52706   0.00000  Uiso   1.00
C496   C     0.16766   0.25126   0.97285   0.00000  Uiso   1.00
C497   C     0.06807   0.24873   0.73782   0.00000  Uiso   1.00
C498   C     0.26532   0.24939   0.76244   0.00000  Uiso   1.00
C499   C     0.01353   0.24216   0.73243   0.00000  Uiso   1.00
C500   C     0.32009   0.25422   0.76910   0.00000  Uiso   1.00
C501   C     0.19274   0.04756   0.78998   0.00000  Uiso   1.00
C502   C     0.12355   0.45226   0.72859   0.00000  Uiso   1.00
C503   C     0.19523   0.09341   0.78933   0.00000  Uiso   1.00
C504   C     0.16567   0.33490   0.74985   0.00000  Uiso   1.00
C505   C     0.12275   0.40633   0.72705   0.00000  Uiso   1.00
C506   C     0.16732   0.11658   0.74988   0.00000  Uiso   1.00
C507   C     0.16578   0.38301   0.74975   0.00000  Uiso   1.00
C508   C     0.13990   0.09272   0.71035   0.00000  Uiso   1.00
C509   C     0.20942   0.40633   0.77208   0.00000  Uiso   1.00
C510   C     0.14216   0.04693   0.71021   0.00000  Uiso   1.00
C511   C     0.20927   0.45221   0.77205   0.00000  Uiso   1.00
C512   C     0.16713   0.02403   0.75032   0.00000  Uiso   1.00
C513   C     0.16656   0.47545   0.75058   0.00000  Uiso   1.00
C514   C     0.32498   0.21381   0.69062   0.00000  Uiso   1.00
C515   C     0.19389   0.22011   0.55646   0.00000  Uiso   1.00
C516   C     0.00907   0.27808   0.81455   0.00000  Uiso   1.00
C517   C     0.22945   0.11535   0.82946   0.00000  Uiso   1.00
C518   C     0.07599   0.38433   0.70190   0.00000  Uiso   1.00
C519   C     0.10650   0.11377   0.66945   0.00000  Uiso   1.00
C520   C     0.25695   0.38417   0.79359   0.00000  Uiso   1.00
C521   C     0.10389   0.31644   0.52295   0.00000  Uiso   1.00
C522   C     0.24318   0.30536   0.97920   0.00000  Uiso   1.00
C523   C     0.13252   0.22512   0.94237   0.00000  Uiso   1.00
C524   C     0.19400   0.21995   0.60734   0.00000  Uiso   1.00
C525   C     0.13263   0.22491   0.89152   0.00000  Uiso   1.00
C526   C     0.13794   0.28036   0.60184   0.00000  Uiso   1.00
C527   C     0.20151   0.27551   0.89912   0.00000  Uiso   1.00
C528   C     0.13618   0.28214   0.55033   0.00000  Uiso   1.00
Cu529  Cu    0.16667   0.24999   0.79821   0.00000  Uiso   1.00
Cu530  Cu    0.16667   0.25000   0.70178   0.00000  Uiso   1.00
H531   H     0.21210   0.03011   0.82123   0.00000  Uiso   1.00
H532   H     0.22797   0.29498   0.88131   0.00000  Uiso   1.00
H533   H     0.28808   0.15733   0.66886   0.00000  Uiso   1.00
H534   H     0.01655   0.28144   0.88815   0.00000  Uiso   1.00
H535   H     0.25715   0.11658   0.90121   0.00000  Uiso   1.00
H536   H     0.02668   0.33335   0.69878   0.00000  Uiso   1.00
H537   H     0.08088   0.11428   0.59724   0.00000  Uiso   1.00
H538   H     0.31876   0.38485   0.84527   0.00000  Uiso   1.00
H539   H     0.05898   0.36954   0.52625   0.00000  Uiso   1.00
H540   H     0.30273   0.34719   0.97793   0.00000  Uiso   1.00
H541   H     0.08975   0.47001   0.71329   0.00000  Uiso   1.00
H542   H     0.12299   0.02903   0.67896   0.00000  Uiso   1.00
H543   H     0.24352   0.46984   0.78730   0.00000  Uiso   1.00
H544   H     0.21639   0.19605   0.54004   0.00000  Uiso   1.00
H545   H     0.10476   0.20514   0.95795   0.00000  Uiso   1.00
H546   H     0.21600   0.19562   0.62926   0.00000  Uiso   1.00
H547   H     0.10521   0.20469   0.86865   0.00000  Uiso   1.00
H548   H     0.11599   0.30330   0.62034   0.00000  Uiso   1.00
N549   N     0.16667   0.25001   0.62934   0.00000  Uiso   1.00
N550   N     0.16667   0.24999   0.87065   0.00000  Uiso   1.00
O551   O     0.16667   0.18572   0.79071   0.00000  Uiso   1.00
O552   O     0.29845   0.17534   0.69956   0.00000  Uiso   1.00
O553   O     0.03416   0.31175   0.81193   0.00000  Uiso   1.00
O554   O     0.33324   0.26241   0.86016   0.00000  Uiso   1.00
O555   O     0.25666   0.14623   0.82068   0.00000  Uiso   1.00
O556   O     0.23218   0.09929   0.87716   0.00000  Uiso   1.00
O557   O     0.05083   0.40221   0.66705   0.00000  Uiso   1.00
O558   O     0.05960   0.34410   0.71853   0.00000  Uiso   1.00
O559   O     0.07850   0.14400   0.67742   0.00000  Uiso   1.00
O560   O     0.10544   0.09761   0.62189   0.00000  Uiso   1.00
O561   O     0.27064   0.35056   0.77510   0.00000  Uiso   1.00
O562   O     0.16666   0.31427   0.70928   0.00000  Uiso   1.00
O563   O     0.28717   0.40276   0.83406   0.00000  Uiso   1.00
O564   O     0.09794   0.31738   0.97829   0.00000  Uiso   1.00
O565   O     0.07973   0.34796   0.54862   0.00000  Uiso   1.00
O566   O     0.24643   0.30804   0.52368   0.00000  Uiso   1.00
O567   O     0.27746   0.32925   0.95484   0.00000  Uiso   1.00
O568   O     0.16667   0.18573   0.70928   0.00000  Uiso   1.00
O569   O     0.16666   0.31427   0.79072   0.00000  Uiso   1.00
O570   O     0.09161   0.24999   0.78132   0.00000  Uiso   1.00
O571   O     0.24172   0.25000   0.71868   0.00000  Uiso   1.00
O572   O     0.09161   0.25000   0.69988   0.00000  Uiso   1.00
O573   O     0.24172   0.25000   0.80011   0.00000  Uiso   1.00
O574   O     0.33178   0.22327   0.64895   0.00000  Uiso   1.00
C575   C     0.50019   0.16493   0.74997   0.00000  Uiso   1.00
C576   C     0.53682   0.27694   0.95066   0.00000  Uiso   1.00
C577   C     0.49869   0.25133   0.52706   0.00000  Uiso   1.00
C578   C     0.50100   0.25126   0.97285   0.00000  Uiso   1.00
C579   C     0.40140   0.24873   0.73782   0.00000  Uiso   1.00
C580   C     0.59866   0.24939   0.76244   0.00000  Uiso   1.00
C581   C     0.34687   0.24216   0.73243   0.00000  Uiso   1.00
C582   C     0.65343   0.25422   0.76910   0.00000  Uiso   1.00
C583   C     0.52608   0.04756   0.78998   0.00000  Uiso   1.00
C584   C     0.45688   0.45226   0.72859   0.00000  Uiso   1.00
C585   C     0.52857   0.09341   0.78933   0.00000  Uiso   1.00
C586   C     0.49900   0.33490   0.74985   0.00000  Uiso   1.00
C587   C     0.45608   0.40633   0.72705   0.00000  Uiso   1.00
C588   C     0.50065   0.11658   0.74988   0.00000  Uiso   1.00
C589   C     0.49911   0.38301   0.74975   0.00000  Uiso   1.00
C590   C     0.47324   0.09272   0.71035   0.00000  Uiso   1.00
C591   C     0.54276   0.40633   0.77208   0.00000  Uiso   1.00
C592   C     0.47549   0.04693   0.71021   0.00000  Uiso   1.00
C593   C     0.54260   0.45221   0.77205   0.00000  Uiso   1.00
C594   C     0.50047   0.02403   0.75032   0.00000  Uiso   1.00
C595   C     0.49990   0.47545   0.75058   0.00000  Uiso   1.00
C596   C     0.65832   0.21381   0.69062   0.00000  Uiso   1.00
C597   C     0.52723   0.22011   0.55646   0.00000  Uiso   1.00
C598   C     0.34240   0.27808   0.81455   0.00000  Uiso   1.00
C599   C     0.56278   0.11535   0.82946   0.00000  Uiso   1.00
C600   C     0.40933   0.38433   0.70190   0.00000  Uiso   1.00
C601   C     0.43983   0.11377   0.66945   0.00000  Uiso   1.00
C602   C     0.59028   0.38417   0.79359   0.00000  Uiso   1.00
C603   C     0.43722   0.31644   0.52295   0.00000  Uiso   1.00
C604   C     0.57652   0.30536   0.97920   0.00000  Uiso   1.00
C605   C     0.46586   0.22512   0.94237   0.00000  Uiso   1.00
C606   C     0.52733   0.21995   0.60734   0.00000  Uiso   1.00
C607   C     0.46596   0.22491   0.89152   0.00000  Uiso   1.00
C608   C     0.47127   0.28036   0.60184   0.00000  Uiso   1.00
C609   C     0.53484   0.27551   0.89912   0.00000  Uiso   1.00
C610   C     0.46952   0.28214   0.55033   0.00000  Uiso   1.00
Cu611  Cu    0.50000   0.24999   0.79821   0.00000  Uiso   1.00
Cu612  Cu    0.50000   0.25000   0.70178   0.00000  Uiso   1.00
H613   H     0.54543   0.03011   0.82123   0.00000  Uiso   1.00
H614   H     0.56131   0.29498   0.88131   0.00000  Uiso   1.00
H615   H     0.62141   0.15733   0.66886   0.00000  Uiso   1.00
H616   H     0.34988   0.28144   0.88815   0.00000  Uiso   1.00
H617   H     0.59049   0.11658   0.90121   0.00000  Uiso   1.00
H618   H     0.36001   0.33335   0.69878   0.00000  Uiso   1.00
H619   H     0.41421   0.11428   0.59724   0.00000  Uiso   1.00
H620   H     0.65210   0.38485   0.84527   0.00000  Uiso   1.00
H621   H     0.39231   0.36954   0.52625   0.00000  Uiso   1.00
H622   H     0.63606   0.34719   0.97793   0.00000  Uiso   1.00
H623   H     0.42309   0.47001   0.71329   0.00000  Uiso   1.00
H624   H     0.45633   0.02903   0.67896   0.00000  Uiso   1.00
H625   H     0.57685   0.46984   0.78730   0.00000  Uiso   1.00
H626   H     0.54972   0.19605   0.54004   0.00000  Uiso   1.00
H627   H     0.43809   0.20514   0.95795   0.00000  Uiso   1.00
H628   H     0.54933   0.19562   0.62926   0.00000  Uiso   1.00
H629   H     0.43855   0.20469   0.86865   0.00000  Uiso   1.00
H630   H     0.44932   0.30330   0.62034   0.00000  Uiso   1.00
N631   N     0.50000   0.25001   0.62934   0.00000  Uiso   1.00
N632   N     0.50000   0.24999   0.87065   0.00000  Uiso   1.00
O633   O     0.50000   0.18572   0.79071   0.00000  Uiso   1.00
O634   O     0.63178   0.17534   0.69956   0.00000  Uiso   1.00
O635   O     0.36749   0.31175   0.81193   0.00000  Uiso   1.00
O636   O     0.66657   0.26241   0.86016   0.00000  Uiso   1.00
O637   O     0.59000   0.14623   0.82068   0.00000  Uiso   1.00
O638   O     0.56551   0.09929   0.87716   0.00000  Uiso   1.00
O639   O     0.38416   0.40221   0.66705   0.00000  Uiso   1.00
O640   O     0.39293   0.34410   0.71853   0.00000  Uiso   1.00
O641   O     0.41183   0.14400   0.67742   0.00000  Uiso   1.00
O642   O     0.43877   0.09761   0.62189   0.00000  Uiso   1.00
O643   O     0.60397   0.35056   0.77510   0.00000  Uiso   1.00
O644   O     0.50000   0.31427   0.70928   0.00000  Uiso   1.00
O645   O     0.62050   0.40276   0.83406   0.00000  Uiso   1.00
O646   O     0.43127   0.31738   0.97829   0.00000  Uiso   1.00
O647   O     0.41307   0.34796   0.54862   0.00000  Uiso   1.00
O648   O     0.57976   0.30804   0.52368   0.00000  Uiso   1.00
O649   O     0.61080   0.32925   0.95484   0.00000  Uiso   1.00
O650   O     0.50000   0.18573   0.70928   0.00000  Uiso   1.00
O651   O     0.50000   0.31427   0.79072   0.00000  Uiso   1.00
O652   O     0.42495   0.24999   0.78132   0.00000  Uiso   1.00
O653   O     0.57505   0.25000   0.71868   0.00000  Uiso   1.00
O654   O     0.42495   0.25000   0.69988   0.00000  Uiso   1.00
O655   O     0.57505   0.25000   0.80011   0.00000  Uiso   1.00
O656   O     0.66511   0.22327   0.64895   0.00000  Uiso   1.00
C657   C     0.83353   0.16493   0.74997   0.00000  Uiso   1.00
C658   C     0.87015   0.27694   0.95066   0.00000  Uiso   1.00
C659   C     0.83202   0.25133   0.52706   0.00000  Uiso   1.00
C660   C     0.83433   0.25126   0.97285   0.00000  Uiso   1.00
C661   C     0.73474   0.24873   0.73782   0.00000  Uiso   1.00
C662   C     0.93199   0.24939   0.76244   0.00000  Uiso   1.00
C663   C     0.68020   0.24216   0.73243   0.00000  Uiso   1.00
C664   C     0.98676   0.25422   0.76910   0.00000  Uiso   1.00
C665   C     0.85941   0.04756   0.78998   0.00000  Uiso   1.00
C666   C     0.79021   0.45226   0.72859   0.00000  Uiso   1.00
C667   C     0.86190   0.09341   0.78933   0.00000  Uiso   1.00
C668   C     0.83234   0.33490   0.74985   0.00000  Uiso   1.00
C669   C     0.78941   0.40633   0.72705   0.00000  Uiso   1.00
C670   C     0.83399   0.11658   0.74988   0.00000  Uiso   1.00
C671   C     0.83245   0.38301   0.74975   0.00000  Uiso   1.00
C672   C     0.80657   0.09272   0.71035   0.00000  Uiso   1.00
C673   C     0.87609   0.40633   0.77208   0.00000  Uiso   1.00
C674   C     0.80882   0.04693   0.71021   0.00000  Uiso   1.00
C675   C     0.87593   0.45221   0.77205   0.00000  Uiso   1.00
C676   C     0.83380   0.02403   0.75032   0.00000  Uiso   1.00
C677   C     0.83323   0.47545   0.75058   0.00000  Uiso   1.00
C678   C     0.99165   0.21381   0.69062   0.00000  Uiso   1.00
C679   C     0.86056   0.22011   0.55646   0.00000  Uiso   1.00
C680   C     0.67573   0.27808   0.81455   0.00000  Uiso   1.00
C681   C     0.89611   0.11535   0.82946   0.00000  Uiso   1.00
C682   C     0.74266   0.38433   0.70190   0.00000  Uiso   1.00
C683   C     0.77316   0.11377   0.66945   0.00000  Uiso   1.00
C684   C     0.92362   0.38417   0.79359   0.00000  Uiso   1.00
C685   C     0.77056   0.31644   0.52295   0.00000  Uiso   1.00
C686   C     0.90985   0.30536   0.97920   0.00000  Uiso   1.00
C687   C     0.79919   0.22512   0.94237   0.00000  Uiso   1.00
C688   C     0.86066   0.21995   0.60734   0.00000  Uiso   1.00
C689   C     0.79930   0.22491   0.89152   0.00000  Uiso   1.00
C690   C     0.80460   0.28036   0.60184   0.00000  Uiso   1.00
C691   C     0.86817   0.27551   0.89912   0.00000  Uiso   1.00
C692   C     0.80285   0.28214   0.55033   0.00000  Uiso   1.00
Cu693  Cu    0.83333   0.24999   0.79821   0.00000  Uiso   1.00
Cu694  Cu    0.83333   0.25000   0.70178   0.00000  Uiso   1.00
H695   H     0.87876   0.03011   0.82123   0.00000  Uiso   1.00
H696   H     0.89464   0.29498   0.88131   0.00000  Uiso   1.00
H697   H     0.95474   0.15733   0.66886   0.00000  Uiso   1.00
H698   H     0.68321   0.28144   0.88815   0.00000  Uiso   1.00
H699   H     0.92382   0.11658   0.90121   0.00000  Uiso   1.00
H700   H     0.69334   0.33335   0.69878   0.00000  Uiso   1.00
H701   H     0.74754   0.11428   0.59724   0.00000  Uiso   1.00
H702   H     0.98543   0.38485   0.84527   0.00000  Uiso   1.00
H703   H     0.72564   0.36954   0.52625   0.00000  Uiso   1.00
H704   H     0.96939   0.34719   0.97793   0.00000  Uiso   1.00
H705   H     0.75642   0.47001   0.71329   0.00000  Uiso   1.00
H706   H     0.78966   0.02903   0.67896   0.00000  Uiso   1.00
H707   H     0.91018   0.46984   0.78730   0.00000  Uiso   1.00
H708   H     0.88306   0.19605   0.54004   0.00000  Uiso   1.00
H709   H     0.77142   0.20514   0.95795   0.00000  Uiso   1.00
H710   H     0.88266   0.19562   0.62926   0.00000  Uiso   1.00
H711   H     0.77188   0.20469   0.86865   0.00000  Uiso   1.00
H712   H     0.78265   0.30330   0.62034   0.00000  Uiso   1.00
N713   N     0.83333   0.25001   0.62934   0.00000  Uiso   1.00
N714   N     0.83333   0.24999   0.87065   0.00000  Uiso   1.00
O715   O     0.83334   0.18572   0.79071   0.00000  Uiso   1.00
O716   O     0.96512   0.17534   0.69956   0.00000  Uiso   1.00
O717   O     0.70083   0.31175   0.81193   0.00000  Uiso   1.00
O718   O     0.99991   0.26241   0.86016   0.00000  Uiso   1.00
O719   O     0.92333   0.14623   0.82068   0.00000  Uiso   1.00
O720   O     0.89885   0.09929   0.87716   0.00000  Uiso   1.00
O721   O     0.71750   0.40221   0.66705   0.00000  Uiso   1.00
O722   O     0.72626   0.34410   0.71853   0.00000  Uiso   1.00
O723   O     0.74517   0.14400   0.67742   0.00000  Uiso   1.00
O724   O     0.77210   0.09761   0.62189   0.00000  Uiso   1.00
O725   O     0.93730   0.35056   0.77510   0.00000  Uiso   1.00
O726   O     0.83333   0.31427   0.70928   0.00000  Uiso   1.00
O727   O     0.95383   0.40276   0.83406   0.00000  Uiso   1.00
O728   O     0.76461   0.31738   0.97829   0.00000  Uiso   1.00
O729   O     0.74640   0.34796   0.54862   0.00000  Uiso   1.00
O730   O     0.91309   0.30804   0.52368   0.00000  Uiso   1.00
O731   O     0.94413   0.32925   0.95484   0.00000  Uiso   1.00
O732   O     0.83334   0.18573   0.70928   0.00000  Uiso   1.00
O733   O     0.83333   0.31427   0.79072   0.00000  Uiso   1.00
O734   O     0.75828   0.24999   0.78132   0.00000  Uiso   1.00
O735   O     0.90839   0.25000   0.71868   0.00000  Uiso   1.00
O736   O     0.75828   0.25000   0.69988   0.00000  Uiso   1.00
O737   O     0.90839   0.25000   0.80011   0.00000  Uiso   1.00
O738   O     0.99844   0.22327   0.64895   0.00000  Uiso   1.00
C739   C     0.16686   0.66493   0.74997   0.00000  Uiso   1.00
C740   C     0.20349   0.77694   0.95066   0.00000  Uiso   1.00
C741   C     0.16535   0.75133   0.52706   0.00000  Uiso   1.00
C742   C     0.16766   0.75126   0.97285   0.00000  Uiso   1.00
C743   C     0.06807   0.74873   0.73782   0.00000  Uiso   1.00
C744   C     0.26532   0.74939   0.76244   0.00000  Uiso   1.00
C745   C     0.01353   0.74216   0.73243   0.00000  Uiso   1.00
C746   C     0.32009   0.75422   0.76910   0.00000  Uiso   1.00
C747   C     0.19274   0.54756   0.78998   0.00000  Uiso   1.00
C748   C     0.12355   0.95226   0.72859   0.00000  Uiso   1.00
C749   C     0.19523   0.59341   0.78933   0.00000  Uiso   1.00
C750   C     0.16567   0.83490   0.74985   0.00000  Uiso   1.00
C751   C     0.12275   0.90633   0.72705   0.00000  Uiso   1.00
C752   C     0.16732   0.61658   0.74988   0.00000  Uiso   1.00
C753   C     0.16578   0.88301   0.74975   0.00000  Uiso   1.00
C754   C     0.13990   0.59272   0.71035   0.00000  Uiso   1.00
C755   C     0.20942   0.90633   0.77208   0.00000  Uiso   1.00
C756   C     0.14216   0.54693   0.71021   0.00000  Uiso   1.00
C757   C     0.20927   0.95221   0.77205   0.00000  Uiso   1.00
C758   C     0.16713   0.52403   0.75032   0.00000  Uiso   1.00
C759   C     0.16656   0.97545   0.75058   0.00000  Uiso   1.00
C760   C     0.32498   0.71381   0.69062   0.00000  Uiso   1.00
C761   C     0.19389   0.72011   0.55646   0.00000  Uiso   1.00
C762   C     0.00907   0.77808   0.81455   0.00000  Uiso   1.00
C763   C     0.22945   0.61535   0.82946   0.00000  Uiso   1.00
C764   C     0.07599   0.88433   0.70190   0.00000  Uiso   1.00
C765   C     0.10650   0.61377   0.66945   0.00000  Uiso   1.00
C766   C     0.25695   0.88417   0.79359   0.00000  Uiso   1.00
C767   C     0.10389   0.81644   0.52295   0.00000  Uiso   1.00
C768   C     0.24318   0.80536   0.97920   0.00000  Uiso   1.00
C769   C     0.13252   0.72512   0.94237   0.00000  Uiso   1.00
C770   C     0.19400   0.71995   0.60734   0.00000  Uiso   1.00
C771   C     0.13263   0.72491   0.89152   0.00000  Uiso   1.00
C772   C     0.13794   0.78036   0.60184   0.00000  Uiso   1.00
C773   C     0.20151   0.77551   0.89912   0.00000  Uiso   1.00
C774   C     0.13618   0.78214   0.55033   0.00000  Uiso   1.00
Cu775  Cu    0.16667   0.74999   0.79821   0.00000  Uiso   1.00
Cu776  Cu    0.16667   0.75000   0.70178   0.00000  Uiso   1.00
H777   H     0.21210   0.53011   0.82123   0.00000  Uiso   1.00
H778   H     0.22797   0.79498   0.88131   0.00000  Uiso   1.00
H779   H     0.28808   0.65733   0.66886   0.00000  Uiso   1.00
H780   H     0.01655   0.78144   0.88815   0.00000  Uiso   1.00
H781   H     0.25715   0.61658   0.90121   0.00000  Uiso   1.00
H782   H     0.02668   0.83335   0.69878   0.00000  Uiso   1.00
H783   H     0.08088   0.61428   0.59724   0.00000  Uiso   1.00
H784   H     0.31876   0.88485   0.84527   0.00000  Uiso   1.00
H785   H     0.05898   0.86954   0.52625   0.00000  Uiso   1.00
H786   H     0.30273   0.84719   0.97793   0.00000  Uiso   1.00
H787   H     0.08975   0.97001   0.71329   0.00000  Uiso   1.00
H788   H     0.12299   0.52903   0.67896   0.00000  Uiso   1.00
H789   H     0.24352   0.96984   0.78730   0.00000  Uiso   1.00
H790   H     0.21639   0.69605   0.54004   0.00000  Uiso   1.00
H791   H     0.10476   0.70514   0.95795   0.00000  Uiso   1.00
H792   H     0.21600   0.69562   0.62926   0.00000  Uiso   1.00
H793   H     0.10521   0.70469   0.86865   0.00000  Uiso   1.00
H794   H     0.11599   0.80330   0.62034   0.00000  Uiso   1.00
N795   N     0.16667   0.75001   0.62934   0.00000  Uiso   1.00
N796   N     0.16667   0.74999   0.87065   0.00000  Uiso   1.00
O797   O     0.16667   0.68572   0.79071   0.00000  Uiso   1.00
O798   O     0.29845   0.67534   0.69956   0.00000  Uiso   1.00
O799   O     0.03416   0.81175   0.81193   0.00000  Uiso   1.00
O800   O     0.33324   0.76241   0.86016   0.00000  Uiso   1.00
O801   O     0.25666   0.64623   0.82068   0.00000  Uiso   1.00
O802   O     0.23218   0.59929   0.87716   0.00000  Uiso   1.00
O803   O     0.05083   0.90221   0.66705   0.00000  Uiso   1.00
O804   O     0.05960   0.84410   0.71853   0.00000  Uiso   1.00
O805   O     0.07850   0.64400   0.67742   0.00000  Uiso   1.00
O806   O     0.10544   0.59761   0.62189   0.00000  Uiso   1.00
O807   O     0.27064   0.85056   0.77510   0.00000  Uiso   1.00
O808   O     0.16666   0.81427   0.70928   0.00000  Uiso   1.00
O809   O     0.28717   0.90276   0.83406   0.00000  Uiso   1.00
O810   O     0.09794   0.81738   0.97829   0.00000  Uiso   1.00
O811   O     0.07973   0.84796   0.54862   0.00000  Uiso   1.00
O812   O     0.24643   0.80804   0.52368   0.00000  Uiso   1.00
O813   O     0.27746   0.82925   0.95484   0.00000  Uiso   1.00
O814   O     0.16667   0.68573   0.70928   0.00000  Uiso   1.00
O815   O     0.16666   0.81427   0.79072   0.00000  Uiso   1.00
O816   O     0.09161   0.74999   0.78132   0.00000  Uiso   1.00
O817   O     0.24172   0.75000   0.71868   0.00000  Uiso   1.00
O818   O     0.09161   0.75000   0.69988   0.00000  Uiso   1.00
O819   O     0.24172   0.75000   0.80011   0.00000  Uiso   1.00
O820   O     0.33178   0.72327   0.64895   0.00000  Uiso   1.00
C821   C     0.50019   0.66493   0.74997   0.00000  Uiso   1.00
C822   C     0.53682   0.77694   0.95066   0.00000  Uiso   1.00
C823   C     0.49869   0.75133   0.52706   0.00000  Uiso   1.00
C824   C     0.50100   0.75126   0.97285   0.00000  Uiso   1.00
C825   C     0.40140   0.74873   0.73782   0.00000  Uiso   1.00
C826   C     0.59866   0.74939   0.76244   0.00000  Uiso   1.00
C827   C     0.34687   0.74216   0.73243   0.00000  Uiso   1.00
C828   C     0.65343   0.75422   0.76910   0.00000  Uiso   1.00
C829   C     0.52608   0.54756   0.78998   0.00000  Uiso   1.00
C830   C     0.45688   0.95226   0.72859   0.00000  Uiso   1.00
C831   C     0.52857   0.59341   0.78933   0.00000  Uiso   1.00
C832   C     0.49900   0.83490   0.74985   0.00000  Uiso   1.00
C833   C     0.45608   0.90633   0.72705   0.00000  Uiso   1.00
C834   C     0.50065   0.61658   0.74988   0.00000  Uiso   1.00
C835   C     0.49911   0.88301   0.74975   0.00000  Uiso   1.00
C836   C     0.47324   0.59272   0.71035   0.00000  Uiso   1.00
C837   C     0.54276   0.90633   0.77208   0.00000  Uiso   1.00
C838   C     0.47549   0.54693   0.71021   0.00000  Uiso   1.00
C839   C     0.54260   0.95221   0.77205   0.00000  Uiso   1.00
C840   C     0.50047   0.52403   0.75032   0.00000  Uiso   1.00
C841   C     0.49990   0.97545   0.75058   0.00000  Uiso   1.00
C842   C     0.65832   0.71381   0.69062   0.00000  Uiso   1.00
C843   C     0.52723   0.72011   0.55646   0.00000  Uiso   1.00
C844   C     0.34240   0.77808   0.81455   0.00000  Uiso   1.00
C845   C     0.56278   0.61535   0.82946   0.00000  Uiso   1.00
C846   C     0.40933   0.88433   0.70190   0.00000  Uiso   1.00
C847   C     0.43983   0.61377   0.66945   0.00000  Uiso   1.00
C848   C     0.59028   0.88417   0.79359   0.00000  Uiso   1.00
C849   C     0.43722   0.81644   0.52295   0.00000  Uiso   1.00
C850   C     0.57652   0.80536   0.97920   0.00000  Uiso   1.00
C851   C     0.46586   0.72512   0.94237   0.00000  Uiso   1.00
C852   C     0.52733   0.71995   0.60734   0.00000  Uiso   1.00
C853   C     0.46596   0.72491   0.89152   0.00000  Uiso   1.00
C854   C     0.47127   0.78036   0.60184   0.00000  Uiso   1.00
C855   C     0.53484   0.77551   0.89912   0.00000  Uiso   1.00
C856   C     0.46952   0.78214   0.55033   0.00000  Uiso   1.00
Cu857  Cu    0.50000   0.74999   0.79821   0.00000  Uiso   1.00
Cu858  Cu    0.50000   0.75000   0.70178   0.00000  Uiso   1.00
H859   H     0.54543   0.53011   0.82123   0.00000  Uiso   1.00
H860   H     0.56131   0.79498   0.88131   0.00000  Uiso   1.00
H861   H     0.62141   0.65733   0.66886   0.00000  Uiso   1.00
H862   H     0.34988   0.78144   0.88815   0.00000  Uiso   1.00
H863   H     0.59049   0.61658   0.90121   0.00000  Uiso   1.00
H864   H     0.36001   0.83335   0.69878   0.00000  Uiso   1.00
H865   H     0.41421   0.61428   0.59724   0.00000  Uiso   1.00
H866   H     0.65210   0.88485   0.84527   0.00000  Uiso   1.00
H867   H     0.39231   0.86954   0.52625   0.00000  Uiso   1.00
H868   H     0.63606   0.84719   0.97793   0.00000  Uiso   1.00
H869   H     0.42309   0.97001   0.71329   0.00000  Uiso   1.00
H870   H     0.45633   0.52903   0.67896   0.00000  Uiso   1.00
H871   H     0.57685   0.96984   0.78730   0.00000  Uiso   1.00
H872   H     0.54972   0.69605   0.54004   0.00000  Uiso   1.00
H873   H     0.43809   0.70514   0.95795   0.00000  Uiso   1.00
H874   H     0.54933   0.69562   0.62926   0.00000  Uiso   1.00
H875   H     0.43855   0.70469   0.86865   0.00000  Uiso   1.00
H876   H     0.44932   0.80330   0.62034   0.00000  Uiso   1.00
N877   N     0.50000   0.75001   0.62934   0.00000  Uiso   1.00
N878   N     0.50000   0.74999   0.87065   0.00000  Uiso   1.00
O879   O     0.50000   0.68572   0.79071   0.00000  Uiso   1.00
O880   O     0.63178   0.67534   0.69956   0.00000  Uiso   1.00
O881   O     0.36749   0.81175   0.81193   0.00000  Uiso   1.00
O882   O     0.66657   0.76241   0.86016   0.00000  Uiso   1.00
O883   O     0.59000   0.64623   0.82068   0.00000  Uiso   1.00
O884   O     0.56551   0.59929   0.87716   0.00000  Uiso   1.00
O885   O     0.38416   0.90221   0.66705   0.00000  Uiso   1.00
O886   O     0.39293   0.84410   0.71853   0.00000  Uiso   1.00
O887   O     0.41183   0.64400   0.67742   0.00000  Uiso   1.00
O888   O     0.43877   0.59761   0.62189   0.00000  Uiso   1.00
O889   O     0.60397   0.85056   0.77510   0.00000  Uiso   1.00
O890   O     0.50000   0.81427   0.70928   0.00000  Uiso   1.00
O891   O     0.62050   0.90276   0.83406   0.00000  Uiso   1.00
O892   O     0.43127   0.81738   0.97829   0.00000  Uiso   1.00
O893   O     0.41307   0.84796   0.54862   0.00000  Uiso   1.00
O894   O     0.57976   0.80804   0.52368   0.00000  Uiso   1.00
O895   O     0.61080   0.82925   0.95484   0.00000  Uiso   1.00
O896   O     0.50000   0.68573   0.70928   0.00000  Uiso   1.00
O897   O     0.50000   0.81427   0.79072   0.00000  Uiso   1.00
O898   O     0.42495   0.74999   0.78132   0.00000  Uiso   1.00
O899   O     0.57505   0.75000   0.71868   0.00000  Uiso   1.00
O900   O     0.42495   0.75000   0.69988   0.00000  Uiso   1.00
O901   O     0.57505   0.75000   0.80011   0.00000  Uiso   1.00
O902   O     0.66511   0.72327   0.64895   0.00000  Uiso   1.00
C903   C     0.83353   0.66493   0.74997   0.00000  Uiso   1.00
C904   C     0.87015   0.77694   0.95066   0.00000  Uiso   1.00
C905   C     0.83202   0.75133   0.52706   0.00000  Uiso   1.00
C906   C     0.83433   0.75126   0.97285   0.00000  Uiso   1.00
C907   C     0.73474   0.74873   0.73782   0.00000  Uiso   1.00
C908   C     0.93199   0.74939   0.76244   0.00000  Uiso   1.00
C909   C     0.68020   0.74216   0.73243   0.00000  Uiso   1.00
C910   C     0.98676   0.75422   0.76910   0.00000  Uiso   1.00
C911   C     0.85941   0.54756   0.78998   0.00000  Uiso   1.00
C912   C     0.79021   0.95226   0.72859   0.00000  Uiso   1.00
C913   C     0.86190   0.59341   0.78933   0.00000  Uiso   1.00
C914   C     0.83234   0.83490   0.74985   0.00000  Uiso   1.00
C915   C     0.78941   0.90633   0.72705   0.00000  Uiso   1.00
C916   C     0.83399   0.61658   0.74988   0.00000  Uiso   1.00
C917   C     0.83245   0.88301   0.74975   0.00000  Uiso   1.00
C918   C     0.80657   0.59272   0.71035   0.00000  Uiso   1.00
C919   C     0.87609   0.90633   0.77208   0.00000  Uiso   1.00
C920   C     0.80882   0.54693   0.71021   0.00000  Uiso   1.00
C921   C     0.87593   0.95221   0.77205   0.00000  Uiso   1.00
C922   C     0.83380   0.52403   0.75032   0.00000  Uiso   1.00
C923   C     0.83323   0.97545   0.75058   0.00000  Uiso   1.00
C924   C     0.99165   0.71381   0.69062   0.00000  Uiso   1.00
C925   C     0.86056   0.72011   0.55646   0.00000  Uiso   1.00
C926   C     0.67573   0.77808   0.81455   0.00000  Uiso   1.00
C927   C     0.89611   0.61535   0.82946   0.00000  Uiso   1.00
C928   C     0.74266   0.88433   0.70190   0.00000  Uiso   1.00
C929   C     0.77316   0.61377   0.66945   0.00000  Uiso   1.00
C930   C     0.92362   0.88417   0.79359   0.00000  Uiso   1.00
C931   C     0.77056   0.81644   0.52295   0.00000  Uiso   1.00
C932   C     0.90985   0.80536   0.97920   0.00000  Uiso   1.00
C933   C     0.79919   0.72512   0.94237   0.00000  Uiso   1.00
C934   C     0.86066   0.71995   0.60734   0.00000  Uiso   1.00
C935   C     0.79930   0.72491   0.89152   0.00000  Uiso   1.00
C936   C     0.80460   0.78036   0.60184   0.00000  Uiso   1.00
C937   C     0.86817   0.77551   0.89912   0.00000  Uiso   1.00
C938   C     0.80285   0.78214   0.55033   0.00000  Uiso   1.00
Cu939  Cu    0.83333   0.74999   0.79821   0.00000  Uiso   1.00
Cu940  Cu    0.83333   0.75000   0.70178   0.00000  Uiso   1.00
H941   H     0.87876   0.53011   0.82123   0.00000  Uiso   1.00
H942   H     0.89464   0.79498   0.88131   0.00000  Uiso   1.00
H943   H     0.95474   0.65733   0.66886   0.00000  Uiso   1.00
H944   H     0.68321   0.78144   0.88815   0.00000  Uiso   1.00
H945   H     0.92382   0.61658   0.90121   0.00000  Uiso   1.00
H946   H     0.69334   0.83335   0.69878   0.00000  Uiso   1.00
H947   H     0.74754   0.61428   0.59724   0.00000  Uiso   1.00
H948   H     0.98543   0.88485   0.84527   0.00000  Uiso   1.00
H949   H     0.72564   0.86954   0.52625   0.00000  Uiso   1.00
H950   H     0.96939   0.84719   0.97793   0.00000  Uiso   1.00
H951   H     0.75642   0.97001   0.71329   0.00000  Uiso   1.00
H952   H     0.78966   0.52903   0.67896   0.00000  Uiso   1.00
H953   H     0.91018   0.96984   0.78730   0.00000  Uiso   1.00
H954   H     0.88306   0.69605   0.54004   0.00000  Uiso   1.00
H955   H     0.77142   0.70514   0.95795   0.00000  Uiso   1.00
H956   H     0.88266   0.69562   0.62926   0.00000  Uiso   1.00
H957   H     0.77188   0.70469   0.86865   0.00000  Uiso   1.00
H958   H     0.78265   0.80330   0.62034   0.00000  Uiso   1.00
N959   N     0.83333   0.75001   0.62934   0.00000  Uiso   1.00
N960   N     0.83333   0.74999   0.87065   0.00000  Uiso   1.00
O961   O     0.83334   0.68572   0.79071   0.00000  Uiso   1.00
O962   O     0.96512   0.67534   0.69956   0.00000  Uiso   1.00
O963   O     0.70083   0.81175   0.81193   0.00000  Uiso   1.00
O964   O     0.99991   0.76241   0.86016   0.00000  Uiso   1.00
O965   O     0.92333   0.64623   0.82068   0.00000  Uiso   1.00
O966   O     0.89885   0.59929   0.87716   0.00000  Uiso   1.00
O967   O     0.71750   0.90221   0.66705   0.00000  Uiso   1.00
O968   O     0.72626   0.84410   0.71853   0.00000  Uiso   1.00
O969   O     0.74517   0.64400   0.67742   0.00000  Uiso   1.00
O970   O     0.77210   0.59761   0.62189   0.00000  Uiso   1.00
O971   O     0.93730   0.85056   0.77510   0.00000  Uiso   1.00
O972   O     0.83333   0.81427   0.70928   0.00000  Uiso   1.00
O973   O     0.95383   0.90276   0.83406   0.00000  Uiso   1.00
O974   O     0.76461   0.81738   0.97829   0.00000  Uiso   1.00
O975   O     0.74640   0.84796   0.54862   0.00000  Uiso   1.00
O976   O     0.91309   0.80804   0.52368   0.00000  Uiso   1.00
O977   O     0.94413   0.82925   0.95484   0.00000  Uiso   1.00
O978   O     0.83334   0.68573   0.70928   0.00000  Uiso   1.00
O979   O     0.83333   0.81427   0.79072   0.00000  Uiso   1.00
O980   O     0.75828   0.74999   0.78132   0.00000  Uiso   1.00
O981   O     0.90839   0.75000   0.71868   0.00000  Uiso   1.00
O982   O     0.75828   0.75000   0.69988   0.00000  Uiso   1.00
O983   O     0.90839   0.75000   0.80011   0.00000  Uiso   1.00
O984   O     0.99844   0.72327   0.64895   0.00000  Uiso   1.00
loop_
_geom_bond_atom_site_label_1
_geom_bond_atom_site_label_2
_geom_bond_distance
_geom_bond_site_symmetry_2
_ccdc_geom_bond_type
C1     O59     1.290   .     A
C1     O76     1.290   .     A
C1     C14     1.470   .     S
C2     C35     1.418   .     A
C2     C4      1.425   .     A
C2     C30     1.493   .     S
C3     C23     1.406   .     A
C3     C36     1.424   .     A
C3     C496    1.507   1_554 S
C4     C31     1.406   .     A
C4     C495    1.507   .     S
C5     C7      1.442   .     S
C5     O80     1.290   .     A
C5     O78     1.276   .     A
C6     O81     1.284   .     A
C6     C8      1.441   .     S
C6     O79     1.283   .     A
C7     C172    1.363   1_455 S
C7     C186    1.490   1_455 S
C8     C89     1.363   .     S
C8     C106    1.496   .     S
C9     H39     1.083   .     S
C9     C20     1.400   .     A
C9     C11     1.395   .     A
C10    C21     1.400   .     A
C10    C13     1.397   .     A
C10    H49     1.083   .     S
C11    C14     1.421   .     A
C11    C25     1.486   .     S
C12    C15     1.462   .     S
C12    O77     1.289   .     A
C12    O70     1.287   .     A
C13    C15     1.418   .     A
C13    C26     1.487   .     S
C14    C16     1.421   .     A
C15    C17     1.417   .     A
C16    C27     1.485   .     S
C16    C18     1.394   .     A
C17    C19     1.395   .     A
C17    C28     1.482   .     S
C18    H50     1.083   .     S
C18    C20     1.399   .     A
C19    C21     1.399   .     A
C19    H51     1.083   .     S
C20    C267    1.477   1_545 S
C21    C266    1.477   .     S
C22    O82     1.223   .     D
C22    O60     1.399   .     S
C22    C89     1.490   .     S
C23    H52     1.083   .     S
C23    C32     1.405   .     A
C24    O61     1.223   .     D
C24    C172    1.496   1_455 S
C24    O226    1.398   1_455 S
C25    O63     1.223   .     D
C25    O64     1.398   .     S
C26    O66     1.394   .     S
C26    O65     1.224   .     D
C27    O68     1.398   .     S
C27    O67     1.222   .     D
C28    O69     1.220   .     D
C28    O71     1.399   .     S
C29    C36     1.493   .     S
C29    O73     1.399   .     S
C29    O564    1.222   1_554 S
C30    O75     1.400   .     S
C30    O566    1.222   .     S
C31    C33     1.405   .     A
C31    H53     1.083   .     S
C32    N57     1.362   .     A
C32    H54     1.079   .     S
C33    H55     1.082   .     S
C33    N58     1.362   .     A
C34    H56     1.082   .     S
C34    N57     1.364   .     A
C34    C36     1.418   .     A
C35    N58     1.364   .     A
C35    H40     1.082   .     S
Cu37   N58     2.001   .     S
Cu37   O81     1.978   .     S
Cu37   O77     1.965   .     S
Cu37   Cu38    2.663   .     S
Cu37   O59     1.964   .     S
Cu37   O78     1.976   .     S
Cu38   O70     1.964   .     S
Cu38   O76     1.965   .     S
Cu38   O79     1.976   .     S
Cu38   N57     2.001   .     S
Cu38   O80     1.978   .     S
H41    O60     1.013   .     S
H42    O226    1.014   1_455 S
H43    O64     1.014   .     S
H44    O66     1.014   .     S
H45    O68     1.014   .     S
H46    O71     1.014   .     S
H47    O73     1.014   .     S
H48    O75     1.014   .     S
O62    H124    1.014   .     S
O62    C106    1.398   .     S
O72    C521    1.222   .     S
O74    C522    1.222   1_554 S
C83    O141    1.290   .     A
C83    O158    1.290   .     A
C83    C96     1.470   .     S
C84    C117    1.418   .     A
C84    C86     1.425   .     A
C84    C112    1.493   .     S
C85    C105    1.406   .     A
C85    C118    1.424   .     A
C85    C578    1.507   1_554 S
C86    C113    1.406   .     A
C86    C577    1.507   .     S
C87    C89     1.442   .     S
C87    O162    1.290   .     A
C87    O160    1.276   .     A
C88    O163    1.284   .     A
C88    C90     1.441   .     S
C88    O161    1.283   .     A
C90    C171    1.363   .     S
C90    C188    1.496   .     S
C91    H121    1.083   .     S
C91    C102    1.400   .     A
C91    C93     1.395   .     A
C92    C103    1.400   .     A
C92    C95     1.397   .     A
C92    H131    1.083   .     S
C93    C96     1.421   .     A
C93    C107    1.486   .     S
C94    C97     1.462   .     S
C94    O159    1.289   .     A
C94    O152    1.287   .     A
C95    C97     1.418   .     A
C95    C108    1.487   .     S
C96    C98     1.421   .     A
C97    C99     1.417   .     A
C98    C109    1.485   .     S
C98    C100    1.394   .     A
C99    C101    1.395   .     A
C99    C110    1.482   .     S
C100   H132    1.083   .     S
C100   C102    1.399   .     A
C101   C103    1.399   .     A
C101   H133    1.083   .     S
C102   C349    1.477   1_545 S
C103   C348    1.477   .     S
C104   O164    1.223   .     D
C104   O142    1.399   .     S
C104   C171    1.490   .     S
C105   H134    1.083   .     S
C105   C114    1.405   .     A
C106   O143    1.223   .     D
C107   O145    1.223   .     D
C107   O146    1.398   .     S
C108   O148    1.394   .     S
C108   O147    1.224   .     D
C109   O150    1.398   .     S
C109   O149    1.222   .     D
C110   O151    1.220   .     D
C110   O153    1.399   .     S
C111   C118    1.493   .     S
C111   O155    1.399   .     S
C111   O646    1.222   1_554 S
C112   O157    1.400   .     S
C112   O648    1.222   .     S
C113   C115    1.405   .     A
C113   H135    1.083   .     S
C114   N139    1.362   .     A
C114   H136    1.079   .     S
C115   H137    1.082   .     S
C115   N140    1.362   .     A
C116   H138    1.082   .     S
C116   N139    1.364   .     A
C116   C118    1.418   .     A
C117   N140    1.364   .     A
C117   H122    1.082   .     S
Cu119  N140    2.001   .     S
Cu119  O163    1.978   .     S
Cu119  O159    1.965   .     S
Cu119  Cu120   2.663   .     S
Cu119  O141    1.964   .     S
Cu119  O160    1.976   .     S
Cu120  O152    1.964   .     S
Cu120  O158    1.965   .     S
Cu120  O161    1.976   .     S
Cu120  N139    2.001   .     S
Cu120  O162    1.978   .     S
H123   O142    1.013   .     S
H125   O146    1.014   .     S
H126   O148    1.014   .     S
H127   O150    1.014   .     S
H128   O153    1.014   .     S
H129   O155    1.014   .     S
H130   O157    1.014   .     S
O144   H206    1.014   .     S
O144   C188    1.398   .     S
O154   C603    1.222   .     S
O156   C604    1.222   1_554 S
C165   O223    1.290   .     A
C165   O240    1.290   .     A
C165   C178    1.470   .     S
C166   C199    1.418   .     A
C166   C168    1.425   .     A
C166   C194    1.493   .     S
C167   C187    1.406   .     A
C167   C200    1.424   .     A
C167   C660    1.507   1_554 S
C168   C195    1.406   .     A
C168   C659    1.507   .     S
C169   C171    1.442   .     S
C169   O244    1.290   .     A
C169   O242    1.276   .     A
C170   O245    1.284   .     A
C170   C172    1.441   .     S
C170   O243    1.283   .     A
C172   C7      1.363   1_655 S
C172   C24     1.496   1_655 S
C173   H203    1.083   .     S
C173   C184    1.400   .     A
C173   C175    1.395   .     A
C174   C185    1.400   .     A
C174   C177    1.397   .     A
C174   H213    1.083   .     S
C175   C178    1.421   .     A
C175   C189    1.486   .     S
C176   C179    1.462   .     S
C176   O241    1.289   .     A
C176   O234    1.287   .     A
C177   C179    1.418   .     A
C177   C190    1.487   .     S
C178   C180    1.421   .     A
C179   C181    1.417   .     A
C180   C191    1.485   .     S
C180   C182    1.394   .     A
C181   C183    1.395   .     A
C181   C192    1.482   .     S
C182   H214    1.083   .     S
C182   C184    1.399   .     A
C183   C185    1.399   .     A
C183   H215    1.083   .     S
C184   C431    1.477   1_545 S
C185   C430    1.477   .     S
C186   O246    1.223   .     D
C186   O224    1.399   .     S
C186   C7      1.490   1_655 S
C187   H216    1.083   .     S
C187   C196    1.405   .     A
C188   O225    1.223   .     D
C189   O227    1.223   .     D
C189   O228    1.398   .     S
C190   O230    1.394   .     S
C190   O229    1.224   .     D
C191   O232    1.398   .     S
C191   O231    1.222   .     D
C192   O233    1.220   .     D
C192   O235    1.399   .     S
C193   C200    1.493   .     S
C193   O237    1.399   .     S
C193   O728    1.222   1_554 S
C194   O239    1.400   .     S
C194   O730    1.222   .     S
C195   C197    1.405   .     A
C195   H217    1.083   .     S
C196   N221    1.362   .     A
C196   H218    1.079   .     S
C197   H219    1.082   .     S
C197   N222    1.362   .     A
C198   H220    1.082   .     S
C198   N221    1.364   .     A
C198   C200    1.418   .     A
C199   N222    1.364   .     A
C199   H204    1.082   .     S
Cu201  N222    2.001   .     S
Cu201  O245    1.978   .     S
Cu201  O241    1.965   .     S
Cu201  Cu202   2.663   .     S
Cu201  O223    1.964   .     S
Cu201  O242    1.976   .     S
Cu202  O234    1.964   .     S
Cu202  O240    1.965   .     S
Cu202  O243    1.976   .     S
Cu202  N221    2.001   .     S
Cu202  O244    1.978   .     S
H205   O224    1.013   .     S
H207   O228    1.014   .     S
H208   O230    1.014   .     S
H209   O232    1.014   .     S
H210   O235    1.014   .     S
H211   O237    1.014   .     S
H212   O239    1.014   .     S
O226   H42     1.014   1_655 S
O226   C24     1.398   1_655 S
O236   C685    1.222   .     S
O238   C686    1.222   1_554 S
C247   O305    1.290   .     A
C247   O322    1.290   .     A
C247   C260    1.470   .     S
C248   C281    1.418   .     A
C248   C250    1.425   .     A
C248   C276    1.493   .     S
C249   C269    1.406   .     A
C249   C282    1.424   .     A
C249   C742    1.507   1_554 S
C250   C277    1.406   .     A
C250   C741    1.507   .     S
C251   C253    1.442   .     S
C251   O326    1.290   .     A
C251   O324    1.276   .     A
C252   O327    1.284   .     A
C252   C254    1.441   .     S
C252   O325    1.283   .     A
C253   C418    1.363   1_455 S
C253   C432    1.490   1_455 S
C254   C335    1.363   .     S
C254   C352    1.496   .     S
C255   H285    1.083   .     S
C255   C266    1.400   .     A
C255   C257    1.395   .     A
C256   C267    1.400   .     A
C256   C259    1.397   .     A
C256   H295    1.083   .     S
C257   C260    1.421   .     A
C257   C271    1.486   .     S
C258   C261    1.462   .     S
C258   O323    1.289   .     A
C258   O316    1.287   .     A
C259   C261    1.418   .     A
C259   C272    1.487   .     S
C260   C262    1.421   .     A
C261   C263    1.417   .     A
C262   C273    1.485   .     S
C262   C264    1.394   .     A
C263   C265    1.395   .     A
C263   C274    1.482   .     S
C264   H296    1.083   .     S
C264   C266    1.399   .     A
C265   C267    1.399   .     A
C265   H297    1.083   .     S
C267   C20     1.477   1_565 S
C268   O328    1.223   .     D
C268   O306    1.399   .     S
C268   C335    1.490   .     S
C269   H298    1.083   .     S
C269   C278    1.405   .     A
C270   O307    1.223   .     D
C270   C418    1.496   1_455 S
C270   O472    1.398   1_455 S
C271   O309    1.223   .     D
C271   O310    1.398   .     S
C272   O312    1.394   .     S
C272   O311    1.224   .     D
C273   O314    1.398   .     S
C273   O313    1.222   .     D
C274   O315    1.220   .     D
C274   O317    1.399   .     S
C275   C282    1.493   .     S
C275   O319    1.399   .     S
C275   O810    1.222   1_554 S
C276   O321    1.400   .     S
C276   O812    1.222   .     S
C277   C279    1.405   .     A
C277   H299    1.083   .     S
C278   N303    1.362   .     A
C278   H300    1.079   .     S
C279   H301    1.082   .     S
C279   N304    1.362   .     A
C280   H302    1.082   .     S
C280   N303    1.364   .     A
C280   C282    1.418   .     A
C281   N304    1.364   .     A
C281   H286    1.082   .     S
Cu283  N304    2.001   .     S
Cu283  O327    1.978   .     S
Cu283  O323    1.965   .     S
Cu283  Cu284   2.663   .     S
Cu283  O305    1.964   .     S
Cu283  O324    1.976   .     S
Cu284  O316    1.964   .     S
Cu284  O322    1.965   .     S
Cu284  O325    1.976   .     S
Cu284  N303    2.001   .     S
Cu284  O326    1.978   .     S
H287   O306    1.013   .     S
H288   O472    1.014   1_455 S
H289   O310    1.014   .     S
H290   O312    1.014   .     S
H291   O314    1.014   .     S
H292   O317    1.014   .     S
H293   O319    1.014   .     S
H294   O321    1.014   .     S
O308   H370    1.014   .     S
O308   C352    1.398   .     S
O318   C767    1.222   .     S
O320   C768    1.222   1_554 S
C329   O387    1.290   .     A
C329   O404    1.290   .     A
C329   C342    1.470   .     S
C330   C363    1.418   .     A
C330   C332    1.425   .     A
C330   C358    1.493   .     S
C331   C351    1.406   .     A
C331   C364    1.424   .     A
C331   C824    1.507   1_554 S
C332   C359    1.406   .     A
C332   C823    1.507   .     S
C333   C335    1.442   .     S
C333   O408    1.290   .     A
C333   O406    1.276   .     A
C334   O409    1.284   .     A
C334   C336    1.441   .     S
C334   O407    1.283   .     A
C336   C417    1.363   .     S
C336   C434    1.496   .     S
C337   H367    1.083   .     S
C337   C348    1.400   .     A
C337   C339    1.395   .     A
C338   C349    1.400   .     A
C338   C341    1.397   .     A
C338   H377    1.083   .     S
C339   C342    1.421   .     A
C339   C353    1.486   .     S
C340   C343    1.462   .     S
C340   O405    1.289   .     A
C340   O398    1.287   .     A
C341   C343    1.418   .     A
C341   C354    1.487   .     S
C342   C344    1.421   .     A
C343   C345    1.417   .     A
C344   C355    1.485   .     S
C344   C346    1.394   .     A
C345   C347    1.395   .     A
C345   C356    1.482   .     S
C346   H378    1.083   .     S
C346   C348    1.399   .     A
C347   C349    1.399   .     A
C347   H379    1.083   .     S
C349   C102    1.477   1_565 S
C350   O410    1.223   .     D
C350   O388    1.399   .     S
C350   C417    1.490   .     S
C351   H380    1.083   .     S
C351   C360    1.405   .     A
C352   O389    1.223   .     D
C353   O391    1.223   .     D
C353   O392    1.398   .     S
C354   O394    1.394   .     S
C354   O393    1.224   .     D
C355   O396    1.398   .     S
C355   O395    1.222   .     D
C356   O397    1.220   .     D
C356   O399    1.399   .     S
C357   C364    1.493   .     S
C357   O401    1.399   .     S
C357   O892    1.222   1_554 S
C358   O403    1.400   .     S
C358   O894    1.222   .     S
C359   C361    1.405   .     A
C359   H381    1.083   .     S
C360   N385    1.362   .     A
C360   H382    1.079   .     S
C361   H383    1.082   .     S
C361   N386    1.362   .     A
C362   H384    1.082   .     S
C362   N385    1.364   .     A
C362   C364    1.418   .     A
C363   N386    1.364   .     A
C363   H368    1.082   .     S
Cu365  N386    2.001   .     S
Cu365  O409    1.978   .     S
Cu365  O405    1.965   .     S
Cu365  Cu366   2.663   .     S
Cu365  O387    1.964   .     S
Cu365  O406    1.976   .     S
Cu366  O398    1.964   .     S
Cu366  O404    1.965   .     S
Cu366  O407    1.976   .     S
Cu366  N385    2.001   .     S
Cu366  O408    1.978   .     S
H369   O388    1.013   .     S
H371   O392    1.014   .     S
H372   O394    1.014   .     S
H373   O396    1.014   .     S
H374   O399    1.014   .     S
H375   O401    1.014   .     S
H376   O403    1.014   .     S
O390   H452    1.014   .     S
O390   C434    1.398   .     S
O400   C849    1.222   .     S
O402   C850    1.222   1_554 S
C411   O469    1.290   .     A
C411   O486    1.290   .     A
C411   C424    1.470   .     S
C412   C445    1.418   .     A
C412   C414    1.425   .     A
C412   C440    1.493   .     S
C413   C433    1.406   .     A
C413   C446    1.424   .     A
C413   C906    1.507   1_554 S
C414   C441    1.406   .     A
C414   C905    1.507   .     S
C415   C417    1.442   .     S
C415   O490    1.290   .     A
C415   O488    1.276   .     A
C416   O491    1.284   .     A
C416   C418    1.441   .     S
C416   O489    1.283   .     A
C418   C253    1.363   1_655 S
C418   C270    1.496   1_655 S
C419   H449    1.083   .     S
C419   C430    1.400   .     A
C419   C421    1.395   .     A
C420   C431    1.400   .     A
C420   C423    1.397   .     A
C420   H459    1.083   .     S
C421   C424    1.421   .     A
C421   C435    1.486   .     S
C422   C425    1.462   .     S
C422   O487    1.289   .     A
C422   O480    1.287   .     A
C423   C425    1.418   .     A
C423   C436    1.487   .     S
C424   C426    1.421   .     A
C425   C427    1.417   .     A
C426   C437    1.485   .     S
C426   C428    1.394   .     A
C427   C429    1.395   .     A
C427   C438    1.482   .     S
C428   H460    1.083   .     S
C428   C430    1.399   .     A
C429   C431    1.399   .     A
C429   H461    1.083   .     S
C431   C184    1.477   1_565 S
C432   O492    1.223   .     D
C432   O470    1.399   .     S
C432   C253    1.490   1_655 S
C433   H462    1.083   .     S
C433   C442    1.405   .     A
C434   O471    1.223   .     D
C435   O473    1.223   .     D
C435   O474    1.398   .     S
C436   O476    1.394   .     S
C436   O475    1.224   .     D
C437   O478    1.398   .     S
C437   O477    1.222   .     D
C438   O479    1.220   .     D
C438   O481    1.399   .     S
C439   C446    1.493   .     S
C439   O483    1.399   .     S
C439   O974    1.222   1_554 S
C440   O485    1.400   .     S
C440   O976    1.222   .     S
C441   C443    1.405   .     A
C441   H463    1.083   .     S
C442   N467    1.362   .     A
C442   H464    1.079   .     S
C443   H465    1.082   .     S
C443   N468    1.362   .     A
C444   H466    1.082   .     S
C444   N467    1.364   .     A
C444   C446    1.418   .     A
C445   N468    1.364   .     A
C445   H450    1.082   .     S
Cu447  N468    2.001   .     S
Cu447  O491    1.978   .     S
Cu447  O487    1.965   .     S
Cu447  Cu448   2.663   .     S
Cu447  O469    1.964   .     S
Cu447  O488    1.976   .     S
Cu448  O480    1.964   .     S
Cu448  O486    1.965   .     S
Cu448  O489    1.976   .     S
Cu448  N467    2.001   .     S
Cu448  O490    1.978   .     S
H451   O470    1.013   .     S
H453   O474    1.014   .     S
H454   O476    1.014   .     S
H455   O478    1.014   .     S
H456   O481    1.014   .     S
H457   O483    1.014   .     S
H458   O485    1.014   .     S
O472   H288    1.014   1_655 S
O472   C270    1.398   1_655 S
O482   C931    1.222   .     S
O484   C932    1.222   1_554 S
C493   O551    1.290   .     A
C493   O568    1.290   .     A
C493   C506    1.470   .     S
C494   C527    1.418   .     A
C494   C496    1.425   .     A
C494   C522    1.493   .     S
C495   C515    1.406   .     A
C495   C528    1.424   .     A
C496   C523    1.406   .     A
C496   C3      1.507   1_556 S
C497   C499    1.442   .     S
C497   O572    1.290   .     A
C497   O570    1.276   .     A
C498   O573    1.284   .     A
C498   C500    1.441   .     S
C498   O571    1.283   .     A
C499   C664    1.363   1_455 S
C499   C678    1.490   1_455 S
C500   C581    1.363   .     S
C500   C598    1.496   .     S
C501   H531    1.083   .     S
C501   C512    1.400   .     A
C501   C503    1.395   .     A
C502   C513    1.400   .     A
C502   C505    1.397   .     A
C502   H541    1.083   .     S
C503   C506    1.421   .     A
C503   C517    1.486   .     S
C504   C507    1.462   .     S
C504   O569    1.289   .     A
C504   O562    1.287   .     A
C505   C507    1.418   .     A
C505   C518    1.487   .     S
C506   C508    1.421   .     A
C507   C509    1.417   .     A
C508   C519    1.485   .     S
C508   C510    1.394   .     A
C509   C511    1.395   .     A
C509   C520    1.482   .     S
C510   H542    1.083   .     S
C510   C512    1.399   .     A
C511   C513    1.399   .     A
C511   H543    1.083   .     S
C512   C759    1.477   1_545 S
C513   C758    1.477   .     S
C514   O574    1.223   .     D
C514   O552    1.399   .     S
C514   C581    1.490   .     S
C515   H544    1.083   .     S
C515   C524    1.405   .     A
C516   O553    1.223   .     D
C516   C664    1.496   1_455 S
C516   O718    1.398   1_455 S
C517   O555    1.223   .     D
C517   O556    1.398   .     S
C518   O558    1.394   .     S
C518   O557    1.224   .     D
C519   O560    1.398   .     S
C519   O559    1.222   .     D
C520   O561    1.220   .     D
C520   O563    1.399   .     S
C521   C528    1.493   .     S
C521   O565    1.399   .     S
C522   O567    1.400   .     S
C522   O74     1.222   1_556 S
C523   C525    1.405   .     A
C523   H545    1.083   .     S
C524   N549    1.362   .     A
C524   H546    1.079   .     S
C525   H547    1.082   .     S
C525   N550    1.362   .     A
C526   H548    1.082   .     S
C526   N549    1.364   .     A
C526   C528    1.418   .     A
C527   N550    1.364   .     A
C527   H532    1.082   .     S
Cu529  N550    2.001   .     S
Cu529  O573    1.978   .     S
Cu529  O569    1.965   .     S
Cu529  Cu530   2.663   .     S
Cu529  O551    1.964   .     S
Cu529  O570    1.976   .     S
Cu530  O562    1.964   .     S
Cu530  O568    1.965   .     S
Cu530  O571    1.976   .     S
Cu530  N549    2.001   .     S
Cu530  O572    1.978   .     S
H533   O552    1.013   .     S
H534   O718    1.014   1_455 S
H535   O556    1.014   .     S
H536   O558    1.014   .     S
H537   O560    1.014   .     S
H538   O563    1.014   .     S
H539   O565    1.014   .     S
H540   O567    1.014   .     S
O554   H616    1.014   .     S
O554   C598    1.398   .     S
O564   C29     1.222   1_556 S
C575   O633    1.290   .     A
C575   O650    1.290   .     A
C575   C588    1.470   .     S
C576   C609    1.418   .     A
C576   C578    1.425   .     A
C576   C604    1.493   .     S
C577   C597    1.406   .     A
C577   C610    1.424   .     A
C578   C605    1.406   .     A
C578   C85     1.507   1_556 S
C579   C581    1.442   .     S
C579   O654    1.290   .     A
C579   O652    1.276   .     A
C580   O655    1.284   .     A
C580   C582    1.441   .     S
C580   O653    1.283   .     A
C582   C663    1.363   .     S
C582   C680    1.496   .     S
C583   H613    1.083   .     S
C583   C594    1.400   .     A
C583   C585    1.395   .     A
C584   C595    1.400   .     A
C584   C587    1.397   .     A
C584   H623    1.083   .     S
C585   C588    1.421   .     A
C585   C599    1.486   .     S
C586   C589    1.462   .     S
C586   O651    1.289   .     A
C586   O644    1.287   .     A
C587   C589    1.418   .     A
C587   C600    1.487   .     S
C588   C590    1.421   .     A
C589   C591    1.417   .     A
C590   C601    1.485   .     S
C590   C592    1.394   .     A
C591   C593    1.395   .     A
C591   C602    1.482   .     S
C592   H624    1.083   .     S
C592   C594    1.399   .     A
C593   C595    1.399   .     A
C593   H625    1.083   .     S
C594   C841    1.477   1_545 S
C595   C840    1.477   .     S
C596   O656    1.223   .     D
C596   O634    1.399   .     S
C596   C663    1.490   .     S
C597   H626    1.083   .     S
C597   C606    1.405   .     A
C598   O635    1.223   .     D
C599   O637    1.223   .     D
C599   O638    1.398   .     S
C600   O640    1.394   .     S
C600   O639    1.224   .     D
C601   O642    1.398   .     S
C601   O641    1.222   .     D
C602   O643    1.220   .     D
C602   O645    1.399   .     S
C603   C610    1.493   .     S
C603   O647    1.399   .     S
C604   O649    1.400   .     S
C604   O156    1.222   1_556 S
C605   C607    1.405   .     A
C605   H627    1.083   .     S
C606   N631    1.362   .     A
C606   H628    1.079   .     S
C607   H629    1.082   .     S
C607   N632    1.362   .     A
C608   H630    1.082   .     S
C608   N631    1.364   .     A
C608   C610    1.418   .     A
C609   N632    1.364   .     A
C609   H614    1.082   .     S
Cu611  N632    2.001   .     S
Cu611  O655    1.978   .     S
Cu611  O651    1.965   .     S
Cu611  Cu612   2.663   .     S
Cu611  O633    1.964   .     S
Cu611  O652    1.976   .     S
Cu612  O644    1.964   .     S
Cu612  O650    1.965   .     S
Cu612  O653    1.976   .     S
Cu612  N631    2.001   .     S
Cu612  O654    1.978   .     S
H615   O634    1.013   .     S
H617   O638    1.014   .     S
H618   O640    1.014   .     S
H619   O642    1.014   .     S
H620   O645    1.014   .     S
H621   O647    1.014   .     S
H622   O649    1.014   .     S
O636   H698    1.014   .     S
O636   C680    1.398   .     S
O646   C111    1.222   1_556 S
C657   O715    1.290   .     A
C657   O732    1.290   .     A
C657   C670    1.470   .     S
C658   C691    1.418   .     A
C658   C660    1.425   .     A
C658   C686    1.493   .     S
C659   C679    1.406   .     A
C659   C692    1.424   .     A
C660   C687    1.406   .     A
C660   C167    1.507   1_556 S
C661   C663    1.442   .     S
C661   O736    1.290   .     A
C661   O734    1.276   .     A
C662   O737    1.284   .     A
C662   C664    1.441   .     S
C662   O735    1.283   .     A
C664   C499    1.363   1_655 S
C664   C516    1.496   1_655 S
C665   H695    1.083   .     S
C665   C676    1.400   .     A
C665   C667    1.395   .     A
C666   C677    1.400   .     A
C666   C669    1.397   .     A
C666   H705    1.083   .     S
C667   C670    1.421   .     A
C667   C681    1.486   .     S
C668   C671    1.462   .     S
C668   O733    1.289   .     A
C668   O726    1.287   .     A
C669   C671    1.418   .     A
C669   C682    1.487   .     S
C670   C672    1.421   .     A
C671   C673    1.417   .     A
C672   C683    1.485   .     S
C672   C674    1.394   .     A
C673   C675    1.395   .     A
C673   C684    1.482   .     S
C674   H706    1.083   .     S
C674   C676    1.399   .     A
C675   C677    1.399   .     A
C675   H707    1.083   .     S
C676   C923    1.477   1_545 S
C677   C922    1.477   .     S
C678   O738    1.223   .     D
C678   O716    1.399   .     S
C678   C499    1.490   1_655 S
C679   H708    1.083   .     S
C679   C688    1.405   .     A
C680   O717    1.223   .     D
C681   O719    1.223   .     D
C681   O720    1.398   .     S
C682   O722    1.394   .     S
C682   O721    1.224   .     D
C683   O724    1.398   .     S
C683   O723    1.222   .     D
C684   O725    1.220   .     D
C684   O727    1.399   .     S
C685   C692    1.493   .     S
C685   O729    1.399   .     S
C686   O731    1.400   .     S
C686   O238    1.222   1_556 S
C687   C689    1.405   .     A
C687   H709    1.083   .     S
C688   N713    1.362   .     A
C688   H710    1.079   .     S
C689   H711    1.082   .     S
C689   N714    1.362   .     A
C690   H712    1.082   .     S
C690   N713    1.364   .     A
C690   C692    1.418   .     A
C691   N714    1.364   .     A
C691   H696    1.082   .     S
Cu693  N714    2.001   .     S
Cu693  O737    1.978   .     S
Cu693  O733    1.965   .     S
Cu693  Cu694   2.663   .     S
Cu693  O715    1.964   .     S
Cu693  O734    1.976   .     S
Cu694  O726    1.964   .     S
Cu694  O732    1.965   .     S
Cu694  O735    1.976   .     S
Cu694  N713    2.001   .     S
Cu694  O736    1.978   .     S
H697   O716    1.013   .     S
H699   O720    1.014   .     S
H700   O722    1.014   .     S
H701   O724    1.014   .     S
H702   O727    1.014   .     S
H703   O729    1.014   .     S
H704   O731    1.014   .     S
O718   H534    1.014   1_655 S
O718   C516    1.398   1_655 S
O728   C193    1.222   1_556 S
C739   O797    1.290   .     A
C739   O814    1.290   .     A
C739   C752    1.470   .     S
C740   C773    1.418   .     A
C740   C742    1.425   .     A
C740   C768    1.493   .     S
C741   C761    1.406   .     A
C741   C774    1.424   .     A
C742   C769    1.406   .     A
C742   C249    1.507   1_556 S
C743   C745    1.442   .     S
C743   O818    1.290   .     A
C743   O816    1.276   .     A
C744   O819    1.284   .     A
C744   C746    1.441   .     S
C744   O817    1.283   .     A
C745   C910    1.363   1_455 S
C745   C924    1.490   1_455 S
C746   C827    1.363   .     S
C746   C844    1.496   .     S
C747   H777    1.083   .     S
C747   C758    1.400   .     A
C747   C749    1.395   .     A
C748   C759    1.400   .     A
C748   C751    1.397   .     A
C748   H787    1.083   .     S
C749   C752    1.421   .     A
C749   C763    1.486   .     S
C750   C753    1.462   .     S
C750   O815    1.289   .     A
C750   O808    1.287   .     A
C751   C753    1.418   .     A
C751   C764    1.487   .     S
C752   C754    1.421   .     A
C753   C755    1.417   .     A
C754   C765    1.485   .     S
C754   C756    1.394   .     A
C755   C757    1.395   .     A
C755   C766    1.482   .     S
C756   H788    1.083   .     S
C756   C758    1.399   .     A
C757   C759    1.399   .     A
C757   H789    1.083   .     S
C759   C512    1.477   1_565 S
C760   O820    1.223   .     D
C760   O798    1.399   .     S
C760   C827    1.490   .     S
C761   H790    1.083   .     S
C761   C770    1.405   .     A
C762   O799    1.223   .     D
C762   C910    1.496   1_455 S
C762   O964    1.398   1_455 S
C763   O801    1.223   .     D
C763   O802    1.398   .     S
C764   O804    1.394   .     S
C764   O803    1.224   .     D
C765   O806    1.398   .     S
C765   O805    1.222   .     D
C766   O807    1.220   .     D
C766   O809    1.399   .     S
C767   C774    1.493   .     S
C767   O811    1.399   .     S
C768   O813    1.400   .     S
C768   O320    1.222   1_556 S
C769   C771    1.405   .     A
C769   H791    1.083   .     S
C770   N795    1.362   .     A
C770   H792    1.079   .     S
C771   H793    1.082   .     S
C771   N796    1.362   .     A
C772   H794    1.082   .     S
C772   N795    1.364   .     A
C772   C774    1.418   .     A
C773   N796    1.364   .     A
C773   H778    1.082   .     S
Cu775  N796    2.001   .     S
Cu775  O819    1.978   .     S
Cu775  O815    1.965   .     S
Cu775  Cu776   2.663   .     S
Cu775  O797    1.964   .     S
Cu775  O816    1.976   .     S
Cu776  O808    1.964   .     S
Cu776  O814    1.965   .     S
Cu776  O817    1.976   .     S
Cu776  N795    2.001   .     S
Cu776  O818    1.978   .     S
H779   O798    1.013   .     S
H780   O964    1.014   1_455 S
H781   O802    1.014   .     S
H782   O804    1.014   .     S
H783   O806    1.014   .     S
H784   O809    1.014   .     S
H785   O811    1.014   .     S
H786   O813    1.014   .     S
O800   H862    1.014   .     S
O800   C844    1.398   .     S
O810   C275    1.222   1_556 S
C821   O879    1.290   .     A
C821   O896    1.290   .     A
C821   C834    1.470   .     S
C822   C855    1.418   .     A
C822   C824    1.425   .     A
C822   C850    1.493   .     S
C823   C843    1.406   .     A
C823   C856    1.424   .     A
C824   C851    1.406   .     A
C824   C331    1.507   1_556 S
C825   C827    1.442   .     S
C825   O900    1.290   .     A
C825   O898    1.276   .     A
C826   O901    1.284   .     A
C826   C828    1.441   .     S
C826   O899    1.283   .     A
C828   C909    1.363   .     S
C828   C926    1.496   .     S
C829   H859    1.083   .     S
C829   C840    1.400   .     A
C829   C831    1.395   .     A
C830   C841    1.400   .     A
C830   C833    1.397   .     A
C830   H869    1.083   .     S
C831   C834    1.421   .     A
C831   C845    1.486   .     S
C832   C835    1.462   .     S
C832   O897    1.289   .     A
C832   O890    1.287   .     A
C833   C835    1.418   .     A
C833   C846    1.487   .     S
C834   C836    1.421   .     A
C835   C837    1.417   .     A
C836   C847    1.485   .     S
C836   C838    1.394   .     A
C837   C839    1.395   .     A
C837   C848    1.482   .     S
C838   H870    1.083   .     S
C838   C840    1.399   .     A
C839   C841    1.399   .     A
C839   H871    1.083   .     S
C841   C594    1.477   1_565 S
C842   O902    1.223   .     D
C842   O880    1.399   .     S
C842   C909    1.490   .     S
C843   H872    1.083   .     S
C843   C852    1.405   .     A
C844   O881    1.223   .     D
C845   O883    1.223   .     D
C845   O884    1.398   .     S
C846   O886    1.394   .     S
C846   O885    1.224   .     D
C847   O888    1.398   .     S
C847   O887    1.222   .     D
C848   O889    1.220   .     D
C848   O891    1.399   .     S
C849   C856    1.493   .     S
C849   O893    1.399   .     S
C850   O895    1.400   .     S
C850   O402    1.222   1_556 S
C851   C853    1.405   .     A
C851   H873    1.083   .     S
C852   N877    1.362   .     A
C852   H874    1.079   .     S
C853   H875    1.082   .     S
C853   N878    1.362   .     A
C854   H876    1.082   .     S
C854   N877    1.364   .     A
C854   C856    1.418   .     A
C855   N878    1.364   .     A
C855   H860    1.082   .     S
Cu857  N878    2.001   .     S
Cu857  O901    1.978   .     S
Cu857  O897    1.965   .     S
Cu857  Cu858   2.663   .     S
Cu857  O879    1.964   .     S
Cu857  O898    1.976   .     S
Cu858  O890    1.964   .     S
Cu858  O896    1.965   .     S
Cu858  O899    1.976   .     S
Cu858  N877    2.001   .     S
Cu858  O900    1.978   .     S
H861   O880    1.013   .     S
H863   O884    1.014   .     S
H864   O886    1.014   .     S
H865   O888    1.014   .     S
H866   O891    1.014   .     S
H867   O893    1.014   .     S
H868   O895    1.014   .     S
O882   H944    1.014   .     S
O882   C926    1.398   .     S
O892   C357    1.222   1_556 S
C903   O961    1.290   .     A
C903   O978    1.290   .     A
C903   C916    1.470   .     S
C904   C937    1.418   .     A
C904   C906    1.425   .     A
C904   C932    1.493   .     S
C905   C925    1.406   .     A
C905   C938    1.424   .     A
C906   C933    1.406   .     A
C906   C413    1.507   1_556 S
C907   C909    1.442   .     S
C907   O982    1.290   .     A
C907   O980    1.276   .     A
C908   O983    1.284   .     A
C908   C910    1.441   .     S
C908   O981    1.283   .     A
C910   C745    1.363   1_655 S
C910   C762    1.496   1_655 S
C911   H941    1.083   .     S
C911   C922    1.400   .     A
C911   C913    1.395   .     A
C912   C923    1.400   .     A
C912   C915    1.397   .     A
C912   H951    1.083   .     S
C913   C916    1.421   .     A
C913   C927    1.486   .     S
C914   C917    1.462   .     S
C914   O979    1.289   .     A
C914   O972    1.287   .     A
C915   C917    1.418   .     A
C915   C928    1.487   .     S
C916   C918    1.421   .     A
C917   C919    1.417   .     A
C918   C929    1.485   .     S
C918   C920    1.394   .     A
C919   C921    1.395   .     A
C919   C930    1.482   .     S
C920   H952    1.083   .     S
C920   C922    1.399   .     A
C921   C923    1.399   .     A
C921   H953    1.083   .     S
C923   C676    1.477   1_565 S
C924   O984    1.223   .     D
C924   O962    1.399   .     S
C924   C745    1.490   1_655 S
C925   H954    1.083   .     S
C925   C934    1.405   .     A
C926   O963    1.223   .     D
C927   O965    1.223   .     D
C927   O966    1.398   .     S
C928   O968    1.394   .     S
C928   O967    1.224   .     D
C929   O970    1.398   .     S
C929   O969    1.222   .     D
C930   O971    1.220   .     D
C930   O973    1.399   .     S
C931   C938    1.493   .     S
C931   O975    1.399   .     S
C932   O977    1.400   .     S
C932   O484    1.222   1_556 S
C933   C935    1.405   .     A
C933   H955    1.083   .     S
C934   N959    1.362   .     A
C934   H956    1.079   .     S
C935   H957    1.082   .     S
C935   N960    1.362   .     A
C936   H958    1.082   .     S
C936   N959    1.364   .     A
C936   C938    1.418   .     A
C937   N960    1.364   .     A
C937   H942    1.082   .     S
Cu939  N960    2.001   .     S
Cu939  O983    1.978   .     S
Cu939  O979    1.965   .     S
Cu939  Cu940   2.663   .     S
Cu939  O961    1.964   .     S
Cu939  O980    1.976   .     S
Cu940  O972    1.964   .     S
Cu940  O978    1.965   .     S
Cu940  O981    1.976   .     S
Cu940  N959    2.001   .     S
Cu940  O982    1.978   .     S
H943   O962    1.013   .     S
H945   O966    1.014   .     S
H946   O968    1.014   .     S
H947   O970    1.014   .     S
H948   O973    1.014   .     S
H949   O975    1.014   .     S
H950   O977    1.014   .     S
O964   H780    1.014   1_655 S
O964   C762    1.398   1_655 S
O974   C439    1.222   1_556 S
