data_str_m2_o10_o16_pcu_sym.43
_audit_creation_date              2020-01-03
_audit_creation_method            'Materials Studio'
_symmetry_space_group_name_H-M    'P1'
_symmetry_Int_Tables_number       1
_symmetry_cell_setting            triclinic
loop_
_symmetry_equiv_pos_as_xyz
  x,y,z
_cell_length_a                    22.6305
_cell_length_b                    25.9923
_cell_length_c                    26.5400
_cell_angle_alpha                 94.7350
_cell_angle_beta                  78.1469
_cell_angle_gamma                 103.1220
loop_
_atom_site_label
_atom_site_type_symbol
_atom_site_fract_x
_atom_site_fract_y
_atom_site_fract_z
_atom_site_U_iso_or_equiv
_atom_site_adp_type
_atom_site_occupancy
C1     C     0.18164   0.26660   0.25171   0.00000  Uiso   1.00
C2     C     0.11556   0.16984   0.40390   0.00000  Uiso   1.00
C3     C     0.18964   0.32269   0.25311   0.00000  Uiso   1.00
C4     C     0.13397   0.16660   0.34724   0.00000  Uiso   1.00
C5     C     0.14353   0.01060   0.24695   0.00000  Uiso   1.00
C6     C     0.15168   0.06673   0.24825   0.00000  Uiso   1.00
C7     C     0.20013   0.17298   0.15336   0.00000  Uiso   1.00
C8     C     0.28116   0.25230   0.03652   0.00000  Uiso   1.00
C9     C     0.21986   0.18890   0.09979   0.00000  Uiso   1.00
C10    C     0.05442   0.14772   0.42752   0.00000  Uiso   1.00
C11    C     0.03656   0.14799   0.48151   0.00000  Uiso   1.00
C12    C     0.14391   0.18099   0.48812   0.00000  Uiso   1.00
C13    C     0.08073   0.16930   0.01200   0.00000  Uiso   1.00
C14    C     0.01554   0.09449   0.16920   0.00000  Uiso   1.00
C15    C     0.30775   0.04763   0.14635   0.00000  Uiso   1.00
C16    C     0.08022   0.23598   0.07547   0.00000  Uiso   1.00
C17    C     0.06776   0.24796   0.13340   0.00000  Uiso   1.00
C18    C     0.29495   0.07388   0.00012   0.00000  Uiso   1.00
C19    C     0.22887   0.05278   0.02759   0.00000  Uiso   1.00
C20    C     0.15948   0.19154   0.43536   0.00000  Uiso   1.00
C21    C     0.19100   0.19053   0.01703   0.00000  Uiso   1.00
C22    C     0.24471   0.22918   0.00071   0.00000  Uiso   1.00
C23    C     0.25734   0.24714   0.45061   0.00000  Uiso   1.00
C24    C     0.21656   0.22652   0.41732   0.00000  Uiso   1.00
C25    C     0.18206   0.16744   0.06468   0.00000  Uiso   1.00
C26    C     0.26708   0.23355   0.08653   0.00000  Uiso   1.00
Cu27   Cu    0.10710   0.16105   0.24436   0.00000  Uiso   1.00
Cu28   Cu    0.22623   0.17228   0.25564   0.00000  Uiso   1.00
H29    H     0.29095   0.25536   0.11546   0.00000  Uiso   1.00
H30    H     0.02322   0.12862   0.14439   0.00000  Uiso   1.00
H31    H     0.05997   0.08337   0.16887   0.00000  Uiso   1.00
H32    H     0.26200   0.05656   0.14657   0.00000  Uiso   1.00
H33    H     0.32976   0.03895   0.10613   0.00000  Uiso   1.00
H34    H     0.30114   0.01213   0.16916   0.00000  Uiso   1.00
H35    H     0.05605   0.25854   0.05643   0.00000  Uiso   1.00
H36    H     0.12979   0.25301   0.06170   0.00000  Uiso   1.00
H37    H     0.10636   0.24177   0.15015   0.00000  Uiso   1.00
H38    H     0.06458   0.28999   0.14118   0.00000  Uiso   1.00
H39    H     0.02425   0.22233   0.15260   0.00000  Uiso   1.00
H40    H     0.09927   0.32002   0.24087   0.00000  Uiso   1.00
H41    H     0.32648   0.05710   0.01805   0.00000  Uiso   1.00
H42    H     0.29875   0.05980   0.45904   0.00000  Uiso   1.00
H43    H     0.19608   0.06670   0.00883   0.00000  Uiso   1.00
H44    H     0.21833   0.00890   0.02563   0.00000  Uiso   1.00
H45    H     0.22274   0.06661   0.06864   0.00000  Uiso   1.00
H46    H     0.00577   0.21328   0.28222   0.00000  Uiso   1.00
H47    H     0.29847   0.27694   0.43726   0.00000  Uiso   1.00
H48    H     0.31790   0.28674   0.02662   0.00000  Uiso   1.00
H49    H     0.14299   0.13502   0.07593   0.00000  Uiso   1.00
H50    H     0.02008   0.13130   0.40418   0.00000  Uiso   1.00
H51    H     0.22787   0.24211   0.37921   0.00000  Uiso   1.00
H52    H     0.23380   0.01325   0.25938   0.00000  Uiso   1.00
N53    N     0.31574   0.18074   0.26416   0.00000  Uiso   1.00
N54    N     0.01759   0.15259   0.23584   0.00000  Uiso   1.00
O55    O     0.12797   0.23807   0.24633   0.00000  Uiso   1.00
O56    O     0.06152   0.18068   0.06424   0.00000  Uiso   1.00
O57    O     0.30888   0.12972   0.00463   0.00000  Uiso   1.00
O58    O     0.22858   0.24755   0.25586   0.00000  Uiso   1.00
O59    O     0.09181   0.15960   0.31840   0.00000  Uiso   1.00
O60    O     0.19242   0.16908   0.32793   0.00000  Uiso   1.00
O61    O     0.10476   0.08578   0.24414   0.00000  Uiso   1.00
O62    O     0.20536   0.09526   0.25367   0.00000  Uiso   1.00
O63    O     0.14092   0.16425   0.17207   0.00000  Uiso   1.00
O64    O     0.24152   0.17373   0.18160   0.00000  Uiso   1.00
O65    O     0.31958   0.10589   0.21961   0.00000  Uiso   1.00
C66    C     0.51498   0.26660   0.25171   0.00000  Uiso   1.00
C67    C     0.44889   0.16984   0.40390   0.00000  Uiso   1.00
C68    C     0.52297   0.32269   0.25311   0.00000  Uiso   1.00
C69    C     0.46730   0.16660   0.34724   0.00000  Uiso   1.00
C70    C     0.47686   0.01060   0.24695   0.00000  Uiso   1.00
C71    C     0.48501   0.06673   0.24825   0.00000  Uiso   1.00
C72    C     0.53346   0.17298   0.15336   0.00000  Uiso   1.00
C73    C     0.61450   0.25230   0.03652   0.00000  Uiso   1.00
C74    C     0.55320   0.18890   0.09979   0.00000  Uiso   1.00
C75    C     0.38775   0.14772   0.42752   0.00000  Uiso   1.00
C76    C     0.36989   0.14799   0.48151   0.00000  Uiso   1.00
C77    C     0.47724   0.18099   0.48812   0.00000  Uiso   1.00
C78    C     0.41406   0.16930   0.01200   0.00000  Uiso   1.00
C79    C     0.34887   0.09449   0.16920   0.00000  Uiso   1.00
C80    C     0.64108   0.04763   0.14635   0.00000  Uiso   1.00
C81    C     0.41355   0.23598   0.07547   0.00000  Uiso   1.00
C82    C     0.40109   0.24796   0.13340   0.00000  Uiso   1.00
C83    C     0.62828   0.07388   0.00012   0.00000  Uiso   1.00
C84    C     0.56221   0.05278   0.02759   0.00000  Uiso   1.00
C85    C     0.49281   0.19154   0.43536   0.00000  Uiso   1.00
C86    C     0.52433   0.19053   0.01703   0.00000  Uiso   1.00
C87    C     0.57805   0.22918   0.00071   0.00000  Uiso   1.00
C88    C     0.59067   0.24714   0.45061   0.00000  Uiso   1.00
C89    C     0.54989   0.22652   0.41732   0.00000  Uiso   1.00
C90    C     0.51539   0.16744   0.06468   0.00000  Uiso   1.00
C91    C     0.60042   0.23355   0.08653   0.00000  Uiso   1.00
Cu92   Cu    0.44043   0.16105   0.24436   0.00000  Uiso   1.00
Cu93   Cu    0.55957   0.17228   0.25564   0.00000  Uiso   1.00
H94    H     0.62428   0.25536   0.11546   0.00000  Uiso   1.00
H95    H     0.35656   0.12862   0.14439   0.00000  Uiso   1.00
H96    H     0.39330   0.08337   0.16887   0.00000  Uiso   1.00
H97    H     0.59533   0.05656   0.14657   0.00000  Uiso   1.00
H98    H     0.66309   0.03895   0.10613   0.00000  Uiso   1.00
H99    H     0.63447   0.01213   0.16916   0.00000  Uiso   1.00
H100   H     0.38938   0.25854   0.05643   0.00000  Uiso   1.00
H101   H     0.46312   0.25301   0.06170   0.00000  Uiso   1.00
H102   H     0.43969   0.24177   0.15015   0.00000  Uiso   1.00
H103   H     0.39791   0.28999   0.14118   0.00000  Uiso   1.00
H104   H     0.35758   0.22233   0.15260   0.00000  Uiso   1.00
H105   H     0.43260   0.32002   0.24087   0.00000  Uiso   1.00
H106   H     0.65982   0.05710   0.01805   0.00000  Uiso   1.00
H107   H     0.63208   0.05980   0.45904   0.00000  Uiso   1.00
H108   H     0.52941   0.06670   0.00883   0.00000  Uiso   1.00
H109   H     0.55166   0.00890   0.02563   0.00000  Uiso   1.00
H110   H     0.55607   0.06661   0.06864   0.00000  Uiso   1.00
H111   H     0.33910   0.21328   0.28222   0.00000  Uiso   1.00
H112   H     0.63180   0.27694   0.43726   0.00000  Uiso   1.00
H113   H     0.65123   0.28674   0.02662   0.00000  Uiso   1.00
H114   H     0.47633   0.13502   0.07593   0.00000  Uiso   1.00
H115   H     0.35341   0.13130   0.40418   0.00000  Uiso   1.00
H116   H     0.56120   0.24211   0.37921   0.00000  Uiso   1.00
H117   H     0.56713   0.01325   0.25938   0.00000  Uiso   1.00
N118   N     0.64908   0.18074   0.26416   0.00000  Uiso   1.00
N119   N     0.35092   0.15259   0.23584   0.00000  Uiso   1.00
O120   O     0.46131   0.23807   0.24633   0.00000  Uiso   1.00
O121   O     0.39485   0.18068   0.06424   0.00000  Uiso   1.00
O122   O     0.64221   0.12972   0.00463   0.00000  Uiso   1.00
O123   O     0.56191   0.24755   0.25586   0.00000  Uiso   1.00
O124   O     0.42515   0.15960   0.31840   0.00000  Uiso   1.00
O125   O     0.52575   0.16908   0.32793   0.00000  Uiso   1.00
O126   O     0.43809   0.08578   0.24414   0.00000  Uiso   1.00
O127   O     0.53869   0.09526   0.25367   0.00000  Uiso   1.00
O128   O     0.47425   0.16425   0.17207   0.00000  Uiso   1.00
O129   O     0.57485   0.17373   0.18160   0.00000  Uiso   1.00
O130   O     0.65291   0.10589   0.21961   0.00000  Uiso   1.00
C131   C     0.84831   0.26660   0.25171   0.00000  Uiso   1.00
C132   C     0.78222   0.16984   0.40390   0.00000  Uiso   1.00
C133   C     0.85630   0.32269   0.25311   0.00000  Uiso   1.00
C134   C     0.80064   0.16660   0.34724   0.00000  Uiso   1.00
C135   C     0.81020   0.01060   0.24695   0.00000  Uiso   1.00
C136   C     0.81834   0.06673   0.24825   0.00000  Uiso   1.00
C137   C     0.86680   0.17298   0.15336   0.00000  Uiso   1.00
C138   C     0.94783   0.25230   0.03652   0.00000  Uiso   1.00
C139   C     0.88653   0.18890   0.09979   0.00000  Uiso   1.00
C140   C     0.72108   0.14772   0.42752   0.00000  Uiso   1.00
C141   C     0.70323   0.14799   0.48151   0.00000  Uiso   1.00
C142   C     0.81057   0.18099   0.48812   0.00000  Uiso   1.00
C143   C     0.74739   0.16930   0.01200   0.00000  Uiso   1.00
C144   C     0.68220   0.09449   0.16920   0.00000  Uiso   1.00
C145   C     0.97441   0.04763   0.14635   0.00000  Uiso   1.00
C146   C     0.74688   0.23598   0.07547   0.00000  Uiso   1.00
C147   C     0.73442   0.24796   0.13340   0.00000  Uiso   1.00
C148   C     0.96161   0.07388   0.00012   0.00000  Uiso   1.00
C149   C     0.89554   0.05278   0.02759   0.00000  Uiso   1.00
C150   C     0.82615   0.19154   0.43536   0.00000  Uiso   1.00
C151   C     0.85767   0.19053   0.01703   0.00000  Uiso   1.00
C152   C     0.91138   0.22918   0.00071   0.00000  Uiso   1.00
C153   C     0.92401   0.24714   0.45061   0.00000  Uiso   1.00
C154   C     0.88322   0.22652   0.41732   0.00000  Uiso   1.00
C155   C     0.84872   0.16744   0.06468   0.00000  Uiso   1.00
C156   C     0.93375   0.23355   0.08653   0.00000  Uiso   1.00
Cu157  Cu    0.77377   0.16105   0.24436   0.00000  Uiso   1.00
Cu158  Cu    0.89290   0.17228   0.25564   0.00000  Uiso   1.00
H159   H     0.95761   0.25536   0.11546   0.00000  Uiso   1.00
H160   H     0.68989   0.12862   0.14439   0.00000  Uiso   1.00
H161   H     0.72664   0.08337   0.16887   0.00000  Uiso   1.00
H162   H     0.92866   0.05656   0.14657   0.00000  Uiso   1.00
H163   H     0.99643   0.03895   0.10613   0.00000  Uiso   1.00
H164   H     0.96781   0.01213   0.16916   0.00000  Uiso   1.00
H165   H     0.72271   0.25854   0.05643   0.00000  Uiso   1.00
H166   H     0.79646   0.25301   0.06170   0.00000  Uiso   1.00
H167   H     0.77302   0.24177   0.15015   0.00000  Uiso   1.00
H168   H     0.73124   0.28999   0.14118   0.00000  Uiso   1.00
H169   H     0.69092   0.22233   0.15260   0.00000  Uiso   1.00
H170   H     0.76593   0.32002   0.24087   0.00000  Uiso   1.00
H171   H     0.99315   0.05710   0.01805   0.00000  Uiso   1.00
H172   H     0.96541   0.05980   0.45904   0.00000  Uiso   1.00
H173   H     0.86274   0.06670   0.00883   0.00000  Uiso   1.00
H174   H     0.88499   0.00890   0.02563   0.00000  Uiso   1.00
H175   H     0.88941   0.06661   0.06864   0.00000  Uiso   1.00
H176   H     0.67244   0.21328   0.28222   0.00000  Uiso   1.00
H177   H     0.96514   0.27694   0.43726   0.00000  Uiso   1.00
H178   H     0.98456   0.28674   0.02662   0.00000  Uiso   1.00
H179   H     0.80966   0.13502   0.07593   0.00000  Uiso   1.00
H180   H     0.68675   0.13130   0.40418   0.00000  Uiso   1.00
H181   H     0.89454   0.24211   0.37921   0.00000  Uiso   1.00
H182   H     0.90047   0.01325   0.25938   0.00000  Uiso   1.00
N183   N     0.98241   0.18074   0.26416   0.00000  Uiso   1.00
N184   N     0.68426   0.15259   0.23584   0.00000  Uiso   1.00
O185   O     0.79464   0.23807   0.24633   0.00000  Uiso   1.00
O186   O     0.72819   0.18068   0.06424   0.00000  Uiso   1.00
O187   O     0.97554   0.12972   0.00463   0.00000  Uiso   1.00
O188   O     0.89524   0.24755   0.25586   0.00000  Uiso   1.00
O189   O     0.75848   0.15960   0.31840   0.00000  Uiso   1.00
O190   O     0.85908   0.16908   0.32793   0.00000  Uiso   1.00
O191   O     0.77142   0.08578   0.24414   0.00000  Uiso   1.00
O192   O     0.87203   0.09526   0.25367   0.00000  Uiso   1.00
O193   O     0.80758   0.16425   0.17207   0.00000  Uiso   1.00
O194   O     0.90819   0.17373   0.18160   0.00000  Uiso   1.00
O195   O     0.98625   0.10589   0.21961   0.00000  Uiso   1.00
C196   C     0.18164   0.59993   0.25171   0.00000  Uiso   1.00
C197   C     0.11556   0.50317   0.40390   0.00000  Uiso   1.00
C198   C     0.18964   0.65602   0.25311   0.00000  Uiso   1.00
C199   C     0.13397   0.49993   0.34724   0.00000  Uiso   1.00
C200   C     0.14353   0.34393   0.24695   0.00000  Uiso   1.00
C201   C     0.15168   0.40006   0.24825   0.00000  Uiso   1.00
C202   C     0.20013   0.50632   0.15336   0.00000  Uiso   1.00
C203   C     0.28116   0.58563   0.03652   0.00000  Uiso   1.00
C204   C     0.21986   0.52224   0.09979   0.00000  Uiso   1.00
C205   C     0.05442   0.48106   0.42752   0.00000  Uiso   1.00
C206   C     0.03656   0.48133   0.48151   0.00000  Uiso   1.00
C207   C     0.14391   0.51432   0.48812   0.00000  Uiso   1.00
C208   C     0.08073   0.50264   0.01200   0.00000  Uiso   1.00
C209   C     0.01554   0.42782   0.16920   0.00000  Uiso   1.00
C210   C     0.30775   0.38096   0.14635   0.00000  Uiso   1.00
C211   C     0.08022   0.56932   0.07547   0.00000  Uiso   1.00
C212   C     0.06776   0.58129   0.13340   0.00000  Uiso   1.00
C213   C     0.29495   0.40721   0.00012   0.00000  Uiso   1.00
C214   C     0.22887   0.38611   0.02759   0.00000  Uiso   1.00
C215   C     0.15948   0.52487   0.43536   0.00000  Uiso   1.00
C216   C     0.19100   0.52386   0.01703   0.00000  Uiso   1.00
C217   C     0.24471   0.56251   0.00071   0.00000  Uiso   1.00
C218   C     0.25734   0.58047   0.45061   0.00000  Uiso   1.00
C219   C     0.21656   0.55986   0.41732   0.00000  Uiso   1.00
C220   C     0.18206   0.50078   0.06468   0.00000  Uiso   1.00
C221   C     0.26708   0.56689   0.08653   0.00000  Uiso   1.00
Cu222  Cu    0.10710   0.49439   0.24436   0.00000  Uiso   1.00
Cu223  Cu    0.22623   0.50561   0.25564   0.00000  Uiso   1.00
H224   H     0.29095   0.58869   0.11546   0.00000  Uiso   1.00
H225   H     0.02322   0.46195   0.14439   0.00000  Uiso   1.00
H226   H     0.05997   0.41671   0.16887   0.00000  Uiso   1.00
H227   H     0.26200   0.38990   0.14657   0.00000  Uiso   1.00
H228   H     0.32976   0.37228   0.10613   0.00000  Uiso   1.00
H229   H     0.30114   0.34546   0.16916   0.00000  Uiso   1.00
H230   H     0.05605   0.59187   0.05643   0.00000  Uiso   1.00
H231   H     0.12979   0.58634   0.06170   0.00000  Uiso   1.00
H232   H     0.10636   0.57510   0.15015   0.00000  Uiso   1.00
H233   H     0.06458   0.62333   0.14118   0.00000  Uiso   1.00
H234   H     0.02425   0.55566   0.15260   0.00000  Uiso   1.00
H235   H     0.09927   0.65335   0.24087   0.00000  Uiso   1.00
H236   H     0.32648   0.39044   0.01805   0.00000  Uiso   1.00
H237   H     0.29875   0.39314   0.45904   0.00000  Uiso   1.00
H238   H     0.19608   0.40004   0.00883   0.00000  Uiso   1.00
H239   H     0.21833   0.34223   0.02563   0.00000  Uiso   1.00
H240   H     0.22274   0.39994   0.06864   0.00000  Uiso   1.00
H241   H     0.00577   0.54662   0.28222   0.00000  Uiso   1.00
H242   H     0.29847   0.61028   0.43726   0.00000  Uiso   1.00
H243   H     0.31790   0.62007   0.02662   0.00000  Uiso   1.00
H244   H     0.14299   0.46836   0.07593   0.00000  Uiso   1.00
H245   H     0.02008   0.46463   0.40418   0.00000  Uiso   1.00
H246   H     0.22787   0.57544   0.37921   0.00000  Uiso   1.00
H247   H     0.23380   0.34659   0.25938   0.00000  Uiso   1.00
N248   N     0.31574   0.51407   0.26416   0.00000  Uiso   1.00
N249   N     0.01759   0.48593   0.23584   0.00000  Uiso   1.00
O250   O     0.12797   0.57141   0.24633   0.00000  Uiso   1.00
O251   O     0.06152   0.51401   0.06424   0.00000  Uiso   1.00
O252   O     0.30888   0.46305   0.00463   0.00000  Uiso   1.00
O253   O     0.22858   0.58089   0.25586   0.00000  Uiso   1.00
O254   O     0.09181   0.49293   0.31840   0.00000  Uiso   1.00
O255   O     0.19242   0.50241   0.32793   0.00000  Uiso   1.00
O256   O     0.10476   0.41911   0.24414   0.00000  Uiso   1.00
O257   O     0.20536   0.42859   0.25367   0.00000  Uiso   1.00
O258   O     0.14092   0.49759   0.17207   0.00000  Uiso   1.00
O259   O     0.24152   0.50707   0.18160   0.00000  Uiso   1.00
O260   O     0.31958   0.43922   0.21961   0.00000  Uiso   1.00
C261   C     0.51498   0.59993   0.25171   0.00000  Uiso   1.00
C262   C     0.44889   0.50317   0.40390   0.00000  Uiso   1.00
C263   C     0.52297   0.65602   0.25311   0.00000  Uiso   1.00
C264   C     0.46730   0.49993   0.34724   0.00000  Uiso   1.00
C265   C     0.47686   0.34393   0.24695   0.00000  Uiso   1.00
C266   C     0.48501   0.40006   0.24825   0.00000  Uiso   1.00
C267   C     0.53346   0.50632   0.15336   0.00000  Uiso   1.00
C268   C     0.61450   0.58563   0.03652   0.00000  Uiso   1.00
C269   C     0.55320   0.52224   0.09979   0.00000  Uiso   1.00
C270   C     0.38775   0.48106   0.42752   0.00000  Uiso   1.00
C271   C     0.36989   0.48133   0.48151   0.00000  Uiso   1.00
C272   C     0.47724   0.51432   0.48812   0.00000  Uiso   1.00
C273   C     0.41406   0.50264   0.01200   0.00000  Uiso   1.00
C274   C     0.34887   0.42782   0.16920   0.00000  Uiso   1.00
C275   C     0.64108   0.38096   0.14635   0.00000  Uiso   1.00
C276   C     0.41355   0.56932   0.07547   0.00000  Uiso   1.00
C277   C     0.40109   0.58129   0.13340   0.00000  Uiso   1.00
C278   C     0.62828   0.40721   0.00012   0.00000  Uiso   1.00
C279   C     0.56221   0.38611   0.02759   0.00000  Uiso   1.00
C280   C     0.49281   0.52487   0.43536   0.00000  Uiso   1.00
C281   C     0.52433   0.52386   0.01703   0.00000  Uiso   1.00
C282   C     0.57805   0.56251   0.00071   0.00000  Uiso   1.00
C283   C     0.59067   0.58047   0.45061   0.00000  Uiso   1.00
C284   C     0.54989   0.55986   0.41732   0.00000  Uiso   1.00
C285   C     0.51539   0.50078   0.06468   0.00000  Uiso   1.00
C286   C     0.60042   0.56689   0.08653   0.00000  Uiso   1.00
Cu287  Cu    0.44043   0.49439   0.24436   0.00000  Uiso   1.00
Cu288  Cu    0.55957   0.50561   0.25564   0.00000  Uiso   1.00
H289   H     0.62428   0.58869   0.11546   0.00000  Uiso   1.00
H290   H     0.35656   0.46195   0.14439   0.00000  Uiso   1.00
H291   H     0.39330   0.41671   0.16887   0.00000  Uiso   1.00
H292   H     0.59533   0.38990   0.14657   0.00000  Uiso   1.00
H293   H     0.66309   0.37228   0.10613   0.00000  Uiso   1.00
H294   H     0.63447   0.34546   0.16916   0.00000  Uiso   1.00
H295   H     0.38938   0.59187   0.05643   0.00000  Uiso   1.00
H296   H     0.46312   0.58634   0.06170   0.00000  Uiso   1.00
H297   H     0.43969   0.57510   0.15015   0.00000  Uiso   1.00
H298   H     0.39791   0.62333   0.14118   0.00000  Uiso   1.00
H299   H     0.35758   0.55566   0.15260   0.00000  Uiso   1.00
H300   H     0.43260   0.65335   0.24087   0.00000  Uiso   1.00
H301   H     0.65982   0.39044   0.01805   0.00000  Uiso   1.00
H302   H     0.63208   0.39314   0.45904   0.00000  Uiso   1.00
H303   H     0.52941   0.40004   0.00883   0.00000  Uiso   1.00
H304   H     0.55166   0.34223   0.02563   0.00000  Uiso   1.00
H305   H     0.55607   0.39994   0.06864   0.00000  Uiso   1.00
H306   H     0.33910   0.54662   0.28222   0.00000  Uiso   1.00
H307   H     0.63180   0.61028   0.43726   0.00000  Uiso   1.00
H308   H     0.65123   0.62007   0.02662   0.00000  Uiso   1.00
H309   H     0.47633   0.46836   0.07593   0.00000  Uiso   1.00
H310   H     0.35341   0.46463   0.40418   0.00000  Uiso   1.00
H311   H     0.56120   0.57544   0.37921   0.00000  Uiso   1.00
H312   H     0.56713   0.34659   0.25938   0.00000  Uiso   1.00
N313   N     0.64908   0.51407   0.26416   0.00000  Uiso   1.00
N314   N     0.35092   0.48593   0.23584   0.00000  Uiso   1.00
O315   O     0.46131   0.57141   0.24633   0.00000  Uiso   1.00
O316   O     0.39485   0.51401   0.06424   0.00000  Uiso   1.00
O317   O     0.64221   0.46305   0.00463   0.00000  Uiso   1.00
O318   O     0.56191   0.58089   0.25586   0.00000  Uiso   1.00
O319   O     0.42515   0.49293   0.31840   0.00000  Uiso   1.00
O320   O     0.52575   0.50241   0.32793   0.00000  Uiso   1.00
O321   O     0.43809   0.41911   0.24414   0.00000  Uiso   1.00
O322   O     0.53869   0.42859   0.25367   0.00000  Uiso   1.00
O323   O     0.47425   0.49759   0.17207   0.00000  Uiso   1.00
O324   O     0.57485   0.50707   0.18160   0.00000  Uiso   1.00
O325   O     0.65291   0.43922   0.21961   0.00000  Uiso   1.00
C326   C     0.84831   0.59993   0.25171   0.00000  Uiso   1.00
C327   C     0.78222   0.50317   0.40390   0.00000  Uiso   1.00
C328   C     0.85630   0.65602   0.25311   0.00000  Uiso   1.00
C329   C     0.80064   0.49993   0.34724   0.00000  Uiso   1.00
C330   C     0.81020   0.34393   0.24695   0.00000  Uiso   1.00
C331   C     0.81834   0.40006   0.24825   0.00000  Uiso   1.00
C332   C     0.86680   0.50632   0.15336   0.00000  Uiso   1.00
C333   C     0.94783   0.58563   0.03652   0.00000  Uiso   1.00
C334   C     0.88653   0.52224   0.09979   0.00000  Uiso   1.00
C335   C     0.72108   0.48106   0.42752   0.00000  Uiso   1.00
C336   C     0.70323   0.48133   0.48151   0.00000  Uiso   1.00
C337   C     0.81057   0.51432   0.48812   0.00000  Uiso   1.00
C338   C     0.74739   0.50264   0.01200   0.00000  Uiso   1.00
C339   C     0.68220   0.42782   0.16920   0.00000  Uiso   1.00
C340   C     0.97441   0.38096   0.14635   0.00000  Uiso   1.00
C341   C     0.74688   0.56932   0.07547   0.00000  Uiso   1.00
C342   C     0.73442   0.58129   0.13340   0.00000  Uiso   1.00
C343   C     0.96161   0.40721   0.00012   0.00000  Uiso   1.00
C344   C     0.89554   0.38611   0.02759   0.00000  Uiso   1.00
C345   C     0.82615   0.52487   0.43536   0.00000  Uiso   1.00
C346   C     0.85767   0.52386   0.01703   0.00000  Uiso   1.00
C347   C     0.91138   0.56251   0.00071   0.00000  Uiso   1.00
C348   C     0.92401   0.58047   0.45061   0.00000  Uiso   1.00
C349   C     0.88322   0.55986   0.41732   0.00000  Uiso   1.00
C350   C     0.84872   0.50078   0.06468   0.00000  Uiso   1.00
C351   C     0.93375   0.56689   0.08653   0.00000  Uiso   1.00
Cu352  Cu    0.77377   0.49439   0.24436   0.00000  Uiso   1.00
Cu353  Cu    0.89290   0.50561   0.25564   0.00000  Uiso   1.00
H354   H     0.95761   0.58869   0.11546   0.00000  Uiso   1.00
H355   H     0.68989   0.46195   0.14439   0.00000  Uiso   1.00
H356   H     0.72664   0.41671   0.16887   0.00000  Uiso   1.00
H357   H     0.92866   0.38990   0.14657   0.00000  Uiso   1.00
H358   H     0.99643   0.37228   0.10613   0.00000  Uiso   1.00
H359   H     0.96781   0.34546   0.16916   0.00000  Uiso   1.00
H360   H     0.72271   0.59187   0.05643   0.00000  Uiso   1.00
H361   H     0.79646   0.58634   0.06170   0.00000  Uiso   1.00
H362   H     0.77302   0.57510   0.15015   0.00000  Uiso   1.00
H363   H     0.73124   0.62333   0.14118   0.00000  Uiso   1.00
H364   H     0.69092   0.55566   0.15260   0.00000  Uiso   1.00
H365   H     0.76593   0.65335   0.24087   0.00000  Uiso   1.00
H366   H     0.99315   0.39044   0.01805   0.00000  Uiso   1.00
H367   H     0.96541   0.39314   0.45904   0.00000  Uiso   1.00
H368   H     0.86274   0.40004   0.00883   0.00000  Uiso   1.00
H369   H     0.88499   0.34223   0.02563   0.00000  Uiso   1.00
H370   H     0.88941   0.39994   0.06864   0.00000  Uiso   1.00
H371   H     0.67244   0.54662   0.28222   0.00000  Uiso   1.00
H372   H     0.96514   0.61028   0.43726   0.00000  Uiso   1.00
H373   H     0.98456   0.62007   0.02662   0.00000  Uiso   1.00
H374   H     0.80966   0.46836   0.07593   0.00000  Uiso   1.00
H375   H     0.68675   0.46463   0.40418   0.00000  Uiso   1.00
H376   H     0.89454   0.57544   0.37921   0.00000  Uiso   1.00
H377   H     0.90047   0.34659   0.25938   0.00000  Uiso   1.00
N378   N     0.98241   0.51407   0.26416   0.00000  Uiso   1.00
N379   N     0.68426   0.48593   0.23584   0.00000  Uiso   1.00
O380   O     0.79464   0.57141   0.24633   0.00000  Uiso   1.00
O381   O     0.72819   0.51401   0.06424   0.00000  Uiso   1.00
O382   O     0.97554   0.46305   0.00463   0.00000  Uiso   1.00
O383   O     0.89524   0.58089   0.25586   0.00000  Uiso   1.00
O384   O     0.75848   0.49293   0.31840   0.00000  Uiso   1.00
O385   O     0.85908   0.50241   0.32793   0.00000  Uiso   1.00
O386   O     0.77142   0.41911   0.24414   0.00000  Uiso   1.00
O387   O     0.87203   0.42859   0.25367   0.00000  Uiso   1.00
O388   O     0.80758   0.49759   0.17207   0.00000  Uiso   1.00
O389   O     0.90819   0.50707   0.18160   0.00000  Uiso   1.00
O390   O     0.98625   0.43922   0.21961   0.00000  Uiso   1.00
C391   C     0.18164   0.93326   0.25171   0.00000  Uiso   1.00
C392   C     0.11556   0.83651   0.40390   0.00000  Uiso   1.00
C393   C     0.18964   0.98935   0.25311   0.00000  Uiso   1.00
C394   C     0.13397   0.83327   0.34724   0.00000  Uiso   1.00
C395   C     0.14353   0.67727   0.24695   0.00000  Uiso   1.00
C396   C     0.15168   0.73339   0.24825   0.00000  Uiso   1.00
C397   C     0.20013   0.83965   0.15336   0.00000  Uiso   1.00
C398   C     0.28116   0.91897   0.03652   0.00000  Uiso   1.00
C399   C     0.21986   0.85557   0.09979   0.00000  Uiso   1.00
C400   C     0.05442   0.81439   0.42752   0.00000  Uiso   1.00
C401   C     0.03656   0.81466   0.48151   0.00000  Uiso   1.00
C402   C     0.14391   0.84765   0.48812   0.00000  Uiso   1.00
C403   C     0.08073   0.83597   0.01200   0.00000  Uiso   1.00
C404   C     0.01554   0.76116   0.16920   0.00000  Uiso   1.00
C405   C     0.30775   0.71429   0.14635   0.00000  Uiso   1.00
C406   C     0.08022   0.90265   0.07547   0.00000  Uiso   1.00
C407   C     0.06776   0.91462   0.13340   0.00000  Uiso   1.00
C408   C     0.29495   0.74055   0.00012   0.00000  Uiso   1.00
C409   C     0.22887   0.71945   0.02759   0.00000  Uiso   1.00
C410   C     0.15948   0.85821   0.43536   0.00000  Uiso   1.00
C411   C     0.19100   0.85719   0.01703   0.00000  Uiso   1.00
C412   C     0.24471   0.89585   0.00071   0.00000  Uiso   1.00
C413   C     0.25734   0.91380   0.45061   0.00000  Uiso   1.00
C414   C     0.21656   0.89319   0.41732   0.00000  Uiso   1.00
C415   C     0.18206   0.83411   0.06468   0.00000  Uiso   1.00
C416   C     0.26708   0.90022   0.08653   0.00000  Uiso   1.00
Cu417  Cu    0.10710   0.82772   0.24436   0.00000  Uiso   1.00
Cu418  Cu    0.22623   0.83895   0.25564   0.00000  Uiso   1.00
H419   H     0.29095   0.92203   0.11546   0.00000  Uiso   1.00
H420   H     0.02322   0.79528   0.14439   0.00000  Uiso   1.00
H421   H     0.05997   0.75004   0.16887   0.00000  Uiso   1.00
H422   H     0.26200   0.72323   0.14657   0.00000  Uiso   1.00
H423   H     0.32976   0.70561   0.10613   0.00000  Uiso   1.00
H424   H     0.30114   0.67880   0.16916   0.00000  Uiso   1.00
H425   H     0.05605   0.92521   0.05643   0.00000  Uiso   1.00
H426   H     0.12979   0.91967   0.06170   0.00000  Uiso   1.00
H427   H     0.10636   0.90843   0.15015   0.00000  Uiso   1.00
H428   H     0.06458   0.95666   0.14118   0.00000  Uiso   1.00
H429   H     0.02425   0.88900   0.15260   0.00000  Uiso   1.00
H430   H     0.09927   0.98669   0.24087   0.00000  Uiso   1.00
H431   H     0.32648   0.72377   0.01805   0.00000  Uiso   1.00
H432   H     0.29875   0.72647   0.45904   0.00000  Uiso   1.00
H433   H     0.19608   0.73337   0.00883   0.00000  Uiso   1.00
H434   H     0.21833   0.67556   0.02563   0.00000  Uiso   1.00
H435   H     0.22274   0.73327   0.06864   0.00000  Uiso   1.00
H436   H     0.00577   0.87995   0.28222   0.00000  Uiso   1.00
H437   H     0.29847   0.94361   0.43726   0.00000  Uiso   1.00
H438   H     0.31790   0.95340   0.02662   0.00000  Uiso   1.00
H439   H     0.14299   0.80169   0.07593   0.00000  Uiso   1.00
H440   H     0.02008   0.79797   0.40418   0.00000  Uiso   1.00
H441   H     0.22787   0.90878   0.37921   0.00000  Uiso   1.00
H442   H     0.23380   0.67992   0.25938   0.00000  Uiso   1.00
N443   N     0.31574   0.84741   0.26416   0.00000  Uiso   1.00
N444   N     0.01759   0.81926   0.23584   0.00000  Uiso   1.00
O445   O     0.12797   0.90474   0.24633   0.00000  Uiso   1.00
O446   O     0.06152   0.84735   0.06424   0.00000  Uiso   1.00
O447   O     0.30888   0.79638   0.00463   0.00000  Uiso   1.00
O448   O     0.22858   0.91422   0.25586   0.00000  Uiso   1.00
O449   O     0.09181   0.82627   0.31840   0.00000  Uiso   1.00
O450   O     0.19242   0.83575   0.32793   0.00000  Uiso   1.00
O451   O     0.10476   0.75245   0.24414   0.00000  Uiso   1.00
O452   O     0.20536   0.76193   0.25367   0.00000  Uiso   1.00
O453   O     0.14092   0.83092   0.17207   0.00000  Uiso   1.00
O454   O     0.24152   0.84040   0.18160   0.00000  Uiso   1.00
O455   O     0.31958   0.77255   0.21961   0.00000  Uiso   1.00
C456   C     0.51498   0.93326   0.25171   0.00000  Uiso   1.00
C457   C     0.44889   0.83651   0.40390   0.00000  Uiso   1.00
C458   C     0.52297   0.98935   0.25311   0.00000  Uiso   1.00
C459   C     0.46730   0.83327   0.34724   0.00000  Uiso   1.00
C460   C     0.47686   0.67727   0.24695   0.00000  Uiso   1.00
C461   C     0.48501   0.73339   0.24825   0.00000  Uiso   1.00
C462   C     0.53346   0.83965   0.15336   0.00000  Uiso   1.00
C463   C     0.61450   0.91897   0.03652   0.00000  Uiso   1.00
C464   C     0.55320   0.85557   0.09979   0.00000  Uiso   1.00
C465   C     0.38775   0.81439   0.42752   0.00000  Uiso   1.00
C466   C     0.36989   0.81466   0.48151   0.00000  Uiso   1.00
C467   C     0.47724   0.84765   0.48812   0.00000  Uiso   1.00
C468   C     0.41406   0.83597   0.01200   0.00000  Uiso   1.00
C469   C     0.34887   0.76116   0.16920   0.00000  Uiso   1.00
C470   C     0.64108   0.71429   0.14635   0.00000  Uiso   1.00
C471   C     0.41355   0.90265   0.07547   0.00000  Uiso   1.00
C472   C     0.40109   0.91462   0.13340   0.00000  Uiso   1.00
C473   C     0.62828   0.74055   0.00012   0.00000  Uiso   1.00
C474   C     0.56221   0.71945   0.02759   0.00000  Uiso   1.00
C475   C     0.49281   0.85821   0.43536   0.00000  Uiso   1.00
C476   C     0.52433   0.85719   0.01703   0.00000  Uiso   1.00
C477   C     0.57805   0.89585   0.00071   0.00000  Uiso   1.00
C478   C     0.59067   0.91380   0.45061   0.00000  Uiso   1.00
C479   C     0.54989   0.89319   0.41732   0.00000  Uiso   1.00
C480   C     0.51539   0.83411   0.06468   0.00000  Uiso   1.00
C481   C     0.60042   0.90022   0.08653   0.00000  Uiso   1.00
Cu482  Cu    0.44043   0.82772   0.24436   0.00000  Uiso   1.00
Cu483  Cu    0.55957   0.83895   0.25564   0.00000  Uiso   1.00
H484   H     0.62428   0.92203   0.11546   0.00000  Uiso   1.00
H485   H     0.35656   0.79528   0.14439   0.00000  Uiso   1.00
H486   H     0.39330   0.75004   0.16887   0.00000  Uiso   1.00
H487   H     0.59533   0.72323   0.14657   0.00000  Uiso   1.00
H488   H     0.66309   0.70561   0.10613   0.00000  Uiso   1.00
H489   H     0.63447   0.67880   0.16916   0.00000  Uiso   1.00
H490   H     0.38938   0.92521   0.05643   0.00000  Uiso   1.00
H491   H     0.46312   0.91967   0.06170   0.00000  Uiso   1.00
H492   H     0.43969   0.90843   0.15015   0.00000  Uiso   1.00
H493   H     0.39791   0.95666   0.14118   0.00000  Uiso   1.00
H494   H     0.35758   0.88900   0.15260   0.00000  Uiso   1.00
H495   H     0.43260   0.98669   0.24087   0.00000  Uiso   1.00
H496   H     0.65982   0.72377   0.01805   0.00000  Uiso   1.00
H497   H     0.63208   0.72647   0.45904   0.00000  Uiso   1.00
H498   H     0.52941   0.73337   0.00883   0.00000  Uiso   1.00
H499   H     0.55166   0.67556   0.02563   0.00000  Uiso   1.00
H500   H     0.55607   0.73327   0.06864   0.00000  Uiso   1.00
H501   H     0.33910   0.87995   0.28222   0.00000  Uiso   1.00
H502   H     0.63180   0.94361   0.43726   0.00000  Uiso   1.00
H503   H     0.65123   0.95340   0.02662   0.00000  Uiso   1.00
H504   H     0.47633   0.80169   0.07593   0.00000  Uiso   1.00
H505   H     0.35341   0.79797   0.40418   0.00000  Uiso   1.00
H506   H     0.56120   0.90878   0.37921   0.00000  Uiso   1.00
H507   H     0.56713   0.67992   0.25938   0.00000  Uiso   1.00
N508   N     0.64908   0.84741   0.26416   0.00000  Uiso   1.00
N509   N     0.35092   0.81926   0.23584   0.00000  Uiso   1.00
O510   O     0.46131   0.90474   0.24633   0.00000  Uiso   1.00
O511   O     0.39485   0.84735   0.06424   0.00000  Uiso   1.00
O512   O     0.64221   0.79638   0.00463   0.00000  Uiso   1.00
O513   O     0.56191   0.91422   0.25586   0.00000  Uiso   1.00
O514   O     0.42515   0.82627   0.31840   0.00000  Uiso   1.00
O515   O     0.52575   0.83575   0.32793   0.00000  Uiso   1.00
O516   O     0.43809   0.75245   0.24414   0.00000  Uiso   1.00
O517   O     0.53869   0.76193   0.25367   0.00000  Uiso   1.00
O518   O     0.47425   0.83092   0.17207   0.00000  Uiso   1.00
O519   O     0.57485   0.84040   0.18160   0.00000  Uiso   1.00
O520   O     0.65291   0.77255   0.21961   0.00000  Uiso   1.00
C521   C     0.84831   0.93326   0.25171   0.00000  Uiso   1.00
C522   C     0.78222   0.83651   0.40390   0.00000  Uiso   1.00
C523   C     0.85630   0.98935   0.25311   0.00000  Uiso   1.00
C524   C     0.80064   0.83327   0.34724   0.00000  Uiso   1.00
C525   C     0.81020   0.67727   0.24695   0.00000  Uiso   1.00
C526   C     0.81834   0.73339   0.24825   0.00000  Uiso   1.00
C527   C     0.86680   0.83965   0.15336   0.00000  Uiso   1.00
C528   C     0.94783   0.91897   0.03652   0.00000  Uiso   1.00
C529   C     0.88653   0.85557   0.09979   0.00000  Uiso   1.00
C530   C     0.72108   0.81439   0.42752   0.00000  Uiso   1.00
C531   C     0.70323   0.81466   0.48151   0.00000  Uiso   1.00
C532   C     0.81057   0.84765   0.48812   0.00000  Uiso   1.00
C533   C     0.74739   0.83597   0.01200   0.00000  Uiso   1.00
C534   C     0.68220   0.76116   0.16920   0.00000  Uiso   1.00
C535   C     0.97441   0.71429   0.14635   0.00000  Uiso   1.00
C536   C     0.74688   0.90265   0.07547   0.00000  Uiso   1.00
C537   C     0.73442   0.91462   0.13340   0.00000  Uiso   1.00
C538   C     0.96161   0.74055   0.00012   0.00000  Uiso   1.00
C539   C     0.89554   0.71945   0.02759   0.00000  Uiso   1.00
C540   C     0.82615   0.85821   0.43536   0.00000  Uiso   1.00
C541   C     0.85767   0.85719   0.01703   0.00000  Uiso   1.00
C542   C     0.91138   0.89585   0.00071   0.00000  Uiso   1.00
C543   C     0.92401   0.91380   0.45061   0.00000  Uiso   1.00
C544   C     0.88322   0.89319   0.41732   0.00000  Uiso   1.00
C545   C     0.84872   0.83411   0.06468   0.00000  Uiso   1.00
C546   C     0.93375   0.90022   0.08653   0.00000  Uiso   1.00
Cu547  Cu    0.77377   0.82772   0.24436   0.00000  Uiso   1.00
Cu548  Cu    0.89290   0.83895   0.25564   0.00000  Uiso   1.00
H549   H     0.95761   0.92203   0.11546   0.00000  Uiso   1.00
H550   H     0.68989   0.79528   0.14439   0.00000  Uiso   1.00
H551   H     0.72664   0.75004   0.16887   0.00000  Uiso   1.00
H552   H     0.92866   0.72323   0.14657   0.00000  Uiso   1.00
H553   H     0.99643   0.70561   0.10613   0.00000  Uiso   1.00
H554   H     0.96781   0.67880   0.16916   0.00000  Uiso   1.00
H555   H     0.72271   0.92521   0.05643   0.00000  Uiso   1.00
H556   H     0.79646   0.91967   0.06170   0.00000  Uiso   1.00
H557   H     0.77302   0.90843   0.15015   0.00000  Uiso   1.00
H558   H     0.73124   0.95666   0.14118   0.00000  Uiso   1.00
H559   H     0.69092   0.88900   0.15260   0.00000  Uiso   1.00
H560   H     0.76593   0.98669   0.24087   0.00000  Uiso   1.00
H561   H     0.99315   0.72377   0.01805   0.00000  Uiso   1.00
H562   H     0.96541   0.72647   0.45904   0.00000  Uiso   1.00
H563   H     0.86274   0.73337   0.00883   0.00000  Uiso   1.00
H564   H     0.88499   0.67556   0.02563   0.00000  Uiso   1.00
H565   H     0.88941   0.73327   0.06864   0.00000  Uiso   1.00
H566   H     0.67244   0.87995   0.28222   0.00000  Uiso   1.00
H567   H     0.96514   0.94361   0.43726   0.00000  Uiso   1.00
H568   H     0.98456   0.95340   0.02662   0.00000  Uiso   1.00
H569   H     0.80966   0.80169   0.07593   0.00000  Uiso   1.00
H570   H     0.68675   0.79797   0.40418   0.00000  Uiso   1.00
H571   H     0.89454   0.90878   0.37921   0.00000  Uiso   1.00
H572   H     0.90047   0.67992   0.25938   0.00000  Uiso   1.00
N573   N     0.98241   0.84741   0.26416   0.00000  Uiso   1.00
N574   N     0.68426   0.81926   0.23584   0.00000  Uiso   1.00
O575   O     0.79464   0.90474   0.24633   0.00000  Uiso   1.00
O576   O     0.72819   0.84735   0.06424   0.00000  Uiso   1.00
O577   O     0.97554   0.79638   0.00463   0.00000  Uiso   1.00
O578   O     0.89524   0.91422   0.25586   0.00000  Uiso   1.00
O579   O     0.75848   0.82627   0.31840   0.00000  Uiso   1.00
O580   O     0.85908   0.83575   0.32793   0.00000  Uiso   1.00
O581   O     0.77142   0.75245   0.24414   0.00000  Uiso   1.00
O582   O     0.87203   0.76193   0.25367   0.00000  Uiso   1.00
O583   O     0.80758   0.83092   0.17207   0.00000  Uiso   1.00
O584   O     0.90819   0.84040   0.18160   0.00000  Uiso   1.00
O585   O     0.98625   0.77255   0.21961   0.00000  Uiso   1.00
C586   C     0.18164   0.26660   0.75171   0.00000  Uiso   1.00
C587   C     0.11556   0.16984   0.90390   0.00000  Uiso   1.00
C588   C     0.18964   0.32269   0.75311   0.00000  Uiso   1.00
C589   C     0.13397   0.16660   0.84724   0.00000  Uiso   1.00
C590   C     0.14353   0.01060   0.74695   0.00000  Uiso   1.00
C591   C     0.15168   0.06673   0.74825   0.00000  Uiso   1.00
C592   C     0.20013   0.17298   0.65336   0.00000  Uiso   1.00
C593   C     0.28116   0.25230   0.53652   0.00000  Uiso   1.00
C594   C     0.21986   0.18890   0.59979   0.00000  Uiso   1.00
C595   C     0.05442   0.14772   0.92752   0.00000  Uiso   1.00
C596   C     0.03656   0.14799   0.98151   0.00000  Uiso   1.00
C597   C     0.14391   0.18099   0.98812   0.00000  Uiso   1.00
C598   C     0.08073   0.16930   0.51200   0.00000  Uiso   1.00
C599   C     0.01554   0.09449   0.66920   0.00000  Uiso   1.00
C600   C     0.30775   0.04763   0.64635   0.00000  Uiso   1.00
C601   C     0.08022   0.23598   0.57547   0.00000  Uiso   1.00
C602   C     0.06776   0.24796   0.63340   0.00000  Uiso   1.00
C603   C     0.29495   0.07388   0.50012   0.00000  Uiso   1.00
C604   C     0.22887   0.05278   0.52759   0.00000  Uiso   1.00
C605   C     0.15948   0.19154   0.93536   0.00000  Uiso   1.00
C606   C     0.19100   0.19053   0.51703   0.00000  Uiso   1.00
C607   C     0.24471   0.22918   0.50071   0.00000  Uiso   1.00
C608   C     0.25734   0.24714   0.95061   0.00000  Uiso   1.00
C609   C     0.21656   0.22652   0.91732   0.00000  Uiso   1.00
C610   C     0.18206   0.16744   0.56468   0.00000  Uiso   1.00
C611   C     0.26708   0.23355   0.58653   0.00000  Uiso   1.00
Cu612  Cu    0.10710   0.16105   0.74436   0.00000  Uiso   1.00
Cu613  Cu    0.22623   0.17228   0.75564   0.00000  Uiso   1.00
H614   H     0.29095   0.25536   0.61546   0.00000  Uiso   1.00
H615   H     0.02322   0.12862   0.64439   0.00000  Uiso   1.00
H616   H     0.05997   0.08337   0.66887   0.00000  Uiso   1.00
H617   H     0.26200   0.05656   0.64657   0.00000  Uiso   1.00
H618   H     0.32976   0.03895   0.60613   0.00000  Uiso   1.00
H619   H     0.30114   0.01213   0.66916   0.00000  Uiso   1.00
H620   H     0.05605   0.25854   0.55643   0.00000  Uiso   1.00
H621   H     0.12979   0.25301   0.56170   0.00000  Uiso   1.00
H622   H     0.10636   0.24177   0.65015   0.00000  Uiso   1.00
H623   H     0.06458   0.28999   0.64118   0.00000  Uiso   1.00
H624   H     0.02425   0.22233   0.65260   0.00000  Uiso   1.00
H625   H     0.09927   0.32002   0.74087   0.00000  Uiso   1.00
H626   H     0.32648   0.05710   0.51805   0.00000  Uiso   1.00
H627   H     0.29875   0.05980   0.95904   0.00000  Uiso   1.00
H628   H     0.19608   0.06670   0.50883   0.00000  Uiso   1.00
H629   H     0.21833   0.00890   0.52563   0.00000  Uiso   1.00
H630   H     0.22274   0.06661   0.56864   0.00000  Uiso   1.00
H631   H     0.00577   0.21328   0.78222   0.00000  Uiso   1.00
H632   H     0.29847   0.27694   0.93726   0.00000  Uiso   1.00
H633   H     0.31790   0.28674   0.52662   0.00000  Uiso   1.00
H634   H     0.14299   0.13502   0.57593   0.00000  Uiso   1.00
H635   H     0.02008   0.13130   0.90418   0.00000  Uiso   1.00
H636   H     0.22787   0.24211   0.87921   0.00000  Uiso   1.00
H637   H     0.23380   0.01325   0.75938   0.00000  Uiso   1.00
N638   N     0.31574   0.18074   0.76416   0.00000  Uiso   1.00
N639   N     0.01759   0.15259   0.73584   0.00000  Uiso   1.00
O640   O     0.12797   0.23807   0.74633   0.00000  Uiso   1.00
O641   O     0.06152   0.18068   0.56424   0.00000  Uiso   1.00
O642   O     0.30888   0.12972   0.50463   0.00000  Uiso   1.00
O643   O     0.22858   0.24755   0.75586   0.00000  Uiso   1.00
O644   O     0.09181   0.15960   0.81840   0.00000  Uiso   1.00
O645   O     0.19242   0.16908   0.82793   0.00000  Uiso   1.00
O646   O     0.10476   0.08578   0.74414   0.00000  Uiso   1.00
O647   O     0.20536   0.09526   0.75367   0.00000  Uiso   1.00
O648   O     0.14092   0.16425   0.67207   0.00000  Uiso   1.00
O649   O     0.24152   0.17373   0.68160   0.00000  Uiso   1.00
O650   O     0.31958   0.10589   0.71961   0.00000  Uiso   1.00
C651   C     0.51498   0.26660   0.75171   0.00000  Uiso   1.00
C652   C     0.44889   0.16984   0.90390   0.00000  Uiso   1.00
C653   C     0.52297   0.32269   0.75311   0.00000  Uiso   1.00
C654   C     0.46730   0.16660   0.84724   0.00000  Uiso   1.00
C655   C     0.47686   0.01060   0.74695   0.00000  Uiso   1.00
C656   C     0.48501   0.06673   0.74825   0.00000  Uiso   1.00
C657   C     0.53346   0.17298   0.65336   0.00000  Uiso   1.00
C658   C     0.61450   0.25230   0.53652   0.00000  Uiso   1.00
C659   C     0.55320   0.18890   0.59979   0.00000  Uiso   1.00
C660   C     0.38775   0.14772   0.92752   0.00000  Uiso   1.00
C661   C     0.36989   0.14799   0.98151   0.00000  Uiso   1.00
C662   C     0.47724   0.18099   0.98812   0.00000  Uiso   1.00
C663   C     0.41406   0.16930   0.51200   0.00000  Uiso   1.00
C664   C     0.34887   0.09449   0.66920   0.00000  Uiso   1.00
C665   C     0.64108   0.04763   0.64635   0.00000  Uiso   1.00
C666   C     0.41355   0.23598   0.57547   0.00000  Uiso   1.00
C667   C     0.40109   0.24796   0.63340   0.00000  Uiso   1.00
C668   C     0.62828   0.07388   0.50012   0.00000  Uiso   1.00
C669   C     0.56221   0.05278   0.52759   0.00000  Uiso   1.00
C670   C     0.49281   0.19154   0.93536   0.00000  Uiso   1.00
C671   C     0.52433   0.19053   0.51703   0.00000  Uiso   1.00
C672   C     0.57805   0.22918   0.50071   0.00000  Uiso   1.00
C673   C     0.59067   0.24714   0.95061   0.00000  Uiso   1.00
C674   C     0.54989   0.22652   0.91732   0.00000  Uiso   1.00
C675   C     0.51539   0.16744   0.56468   0.00000  Uiso   1.00
C676   C     0.60042   0.23355   0.58653   0.00000  Uiso   1.00
Cu677  Cu    0.44043   0.16105   0.74436   0.00000  Uiso   1.00
Cu678  Cu    0.55957   0.17228   0.75564   0.00000  Uiso   1.00
H679   H     0.62428   0.25536   0.61546   0.00000  Uiso   1.00
H680   H     0.35656   0.12862   0.64439   0.00000  Uiso   1.00
H681   H     0.39330   0.08337   0.66887   0.00000  Uiso   1.00
H682   H     0.59533   0.05656   0.64657   0.00000  Uiso   1.00
H683   H     0.66309   0.03895   0.60613   0.00000  Uiso   1.00
H684   H     0.63447   0.01213   0.66916   0.00000  Uiso   1.00
H685   H     0.38938   0.25854   0.55643   0.00000  Uiso   1.00
H686   H     0.46312   0.25301   0.56170   0.00000  Uiso   1.00
H687   H     0.43969   0.24177   0.65015   0.00000  Uiso   1.00
H688   H     0.39791   0.28999   0.64118   0.00000  Uiso   1.00
H689   H     0.35758   0.22233   0.65260   0.00000  Uiso   1.00
H690   H     0.43260   0.32002   0.74087   0.00000  Uiso   1.00
H691   H     0.65982   0.05710   0.51805   0.00000  Uiso   1.00
H692   H     0.63208   0.05980   0.95904   0.00000  Uiso   1.00
H693   H     0.52941   0.06670   0.50883   0.00000  Uiso   1.00
H694   H     0.55166   0.00890   0.52563   0.00000  Uiso   1.00
H695   H     0.55607   0.06661   0.56864   0.00000  Uiso   1.00
H696   H     0.33910   0.21328   0.78222   0.00000  Uiso   1.00
H697   H     0.63180   0.27694   0.93726   0.00000  Uiso   1.00
H698   H     0.65123   0.28674   0.52662   0.00000  Uiso   1.00
H699   H     0.47633   0.13502   0.57593   0.00000  Uiso   1.00
H700   H     0.35341   0.13130   0.90418   0.00000  Uiso   1.00
H701   H     0.56120   0.24211   0.87921   0.00000  Uiso   1.00
H702   H     0.56713   0.01325   0.75938   0.00000  Uiso   1.00
N703   N     0.64908   0.18074   0.76416   0.00000  Uiso   1.00
N704   N     0.35092   0.15259   0.73584   0.00000  Uiso   1.00
O705   O     0.46131   0.23807   0.74633   0.00000  Uiso   1.00
O706   O     0.39485   0.18068   0.56424   0.00000  Uiso   1.00
O707   O     0.64221   0.12972   0.50463   0.00000  Uiso   1.00
O708   O     0.56191   0.24755   0.75586   0.00000  Uiso   1.00
O709   O     0.42515   0.15960   0.81840   0.00000  Uiso   1.00
O710   O     0.52575   0.16908   0.82793   0.00000  Uiso   1.00
O711   O     0.43809   0.08578   0.74414   0.00000  Uiso   1.00
O712   O     0.53869   0.09526   0.75367   0.00000  Uiso   1.00
O713   O     0.47425   0.16425   0.67207   0.00000  Uiso   1.00
O714   O     0.57485   0.17373   0.68160   0.00000  Uiso   1.00
O715   O     0.65291   0.10589   0.71961   0.00000  Uiso   1.00
C716   C     0.84831   0.26660   0.75171   0.00000  Uiso   1.00
C717   C     0.78222   0.16984   0.90390   0.00000  Uiso   1.00
C718   C     0.85630   0.32269   0.75311   0.00000  Uiso   1.00
C719   C     0.80064   0.16660   0.84724   0.00000  Uiso   1.00
C720   C     0.81020   0.01060   0.74695   0.00000  Uiso   1.00
C721   C     0.81834   0.06673   0.74825   0.00000  Uiso   1.00
C722   C     0.86680   0.17298   0.65336   0.00000  Uiso   1.00
C723   C     0.94783   0.25230   0.53652   0.00000  Uiso   1.00
C724   C     0.88653   0.18890   0.59979   0.00000  Uiso   1.00
C725   C     0.72108   0.14772   0.92752   0.00000  Uiso   1.00
C726   C     0.70323   0.14799   0.98151   0.00000  Uiso   1.00
C727   C     0.81057   0.18099   0.98812   0.00000  Uiso   1.00
C728   C     0.74739   0.16930   0.51200   0.00000  Uiso   1.00
C729   C     0.68220   0.09449   0.66920   0.00000  Uiso   1.00
C730   C     0.97441   0.04763   0.64635   0.00000  Uiso   1.00
C731   C     0.74688   0.23598   0.57547   0.00000  Uiso   1.00
C732   C     0.73442   0.24796   0.63340   0.00000  Uiso   1.00
C733   C     0.96161   0.07388   0.50012   0.00000  Uiso   1.00
C734   C     0.89554   0.05278   0.52759   0.00000  Uiso   1.00
C735   C     0.82615   0.19154   0.93536   0.00000  Uiso   1.00
C736   C     0.85767   0.19053   0.51703   0.00000  Uiso   1.00
C737   C     0.91138   0.22918   0.50071   0.00000  Uiso   1.00
C738   C     0.92401   0.24714   0.95061   0.00000  Uiso   1.00
C739   C     0.88322   0.22652   0.91732   0.00000  Uiso   1.00
C740   C     0.84872   0.16744   0.56468   0.00000  Uiso   1.00
C741   C     0.93375   0.23355   0.58653   0.00000  Uiso   1.00
Cu742  Cu    0.77377   0.16105   0.74436   0.00000  Uiso   1.00
Cu743  Cu    0.89290   0.17228   0.75564   0.00000  Uiso   1.00
H744   H     0.95761   0.25536   0.61546   0.00000  Uiso   1.00
H745   H     0.68989   0.12862   0.64439   0.00000  Uiso   1.00
H746   H     0.72664   0.08337   0.66887   0.00000  Uiso   1.00
H747   H     0.92866   0.05656   0.64657   0.00000  Uiso   1.00
H748   H     0.99643   0.03895   0.60613   0.00000  Uiso   1.00
H749   H     0.96781   0.01213   0.66916   0.00000  Uiso   1.00
H750   H     0.72271   0.25854   0.55643   0.00000  Uiso   1.00
H751   H     0.79646   0.25301   0.56170   0.00000  Uiso   1.00
H752   H     0.77302   0.24177   0.65015   0.00000  Uiso   1.00
H753   H     0.73124   0.28999   0.64118   0.00000  Uiso   1.00
H754   H     0.69092   0.22233   0.65260   0.00000  Uiso   1.00
H755   H     0.76593   0.32002   0.74087   0.00000  Uiso   1.00
H756   H     0.99315   0.05710   0.51805   0.00000  Uiso   1.00
H757   H     0.96541   0.05980   0.95904   0.00000  Uiso   1.00
H758   H     0.86274   0.06670   0.50883   0.00000  Uiso   1.00
H759   H     0.88499   0.00890   0.52563   0.00000  Uiso   1.00
H760   H     0.88941   0.06661   0.56864   0.00000  Uiso   1.00
H761   H     0.67244   0.21328   0.78222   0.00000  Uiso   1.00
H762   H     0.96514   0.27694   0.93726   0.00000  Uiso   1.00
H763   H     0.98456   0.28674   0.52662   0.00000  Uiso   1.00
H764   H     0.80966   0.13502   0.57593   0.00000  Uiso   1.00
H765   H     0.68675   0.13130   0.90418   0.00000  Uiso   1.00
H766   H     0.89454   0.24211   0.87921   0.00000  Uiso   1.00
H767   H     0.90047   0.01325   0.75938   0.00000  Uiso   1.00
N768   N     0.98241   0.18074   0.76416   0.00000  Uiso   1.00
N769   N     0.68426   0.15259   0.73584   0.00000  Uiso   1.00
O770   O     0.79464   0.23807   0.74633   0.00000  Uiso   1.00
O771   O     0.72819   0.18068   0.56424   0.00000  Uiso   1.00
O772   O     0.97554   0.12972   0.50463   0.00000  Uiso   1.00
O773   O     0.89524   0.24755   0.75586   0.00000  Uiso   1.00
O774   O     0.75848   0.15960   0.81840   0.00000  Uiso   1.00
O775   O     0.85908   0.16908   0.82793   0.00000  Uiso   1.00
O776   O     0.77142   0.08578   0.74414   0.00000  Uiso   1.00
O777   O     0.87203   0.09526   0.75367   0.00000  Uiso   1.00
O778   O     0.80758   0.16425   0.67207   0.00000  Uiso   1.00
O779   O     0.90819   0.17373   0.68160   0.00000  Uiso   1.00
O780   O     0.98625   0.10589   0.71961   0.00000  Uiso   1.00
C781   C     0.18164   0.59993   0.75171   0.00000  Uiso   1.00
C782   C     0.11556   0.50317   0.90390   0.00000  Uiso   1.00
C783   C     0.18964   0.65602   0.75311   0.00000  Uiso   1.00
C784   C     0.13397   0.49993   0.84724   0.00000  Uiso   1.00
C785   C     0.14353   0.34393   0.74695   0.00000  Uiso   1.00
C786   C     0.15168   0.40006   0.74825   0.00000  Uiso   1.00
C787   C     0.20013   0.50632   0.65336   0.00000  Uiso   1.00
C788   C     0.28116   0.58563   0.53652   0.00000  Uiso   1.00
C789   C     0.21986   0.52224   0.59979   0.00000  Uiso   1.00
C790   C     0.05442   0.48106   0.92752   0.00000  Uiso   1.00
C791   C     0.03656   0.48133   0.98151   0.00000  Uiso   1.00
C792   C     0.14391   0.51432   0.98812   0.00000  Uiso   1.00
C793   C     0.08073   0.50264   0.51200   0.00000  Uiso   1.00
C794   C     0.01554   0.42782   0.66920   0.00000  Uiso   1.00
C795   C     0.30775   0.38096   0.64635   0.00000  Uiso   1.00
C796   C     0.08022   0.56932   0.57547   0.00000  Uiso   1.00
C797   C     0.06776   0.58129   0.63340   0.00000  Uiso   1.00
C798   C     0.29495   0.40721   0.50012   0.00000  Uiso   1.00
C799   C     0.22887   0.38611   0.52759   0.00000  Uiso   1.00
C800   C     0.15948   0.52487   0.93536   0.00000  Uiso   1.00
C801   C     0.19100   0.52386   0.51703   0.00000  Uiso   1.00
C802   C     0.24471   0.56251   0.50071   0.00000  Uiso   1.00
C803   C     0.25734   0.58047   0.95061   0.00000  Uiso   1.00
C804   C     0.21656   0.55986   0.91732   0.00000  Uiso   1.00
C805   C     0.18206   0.50078   0.56468   0.00000  Uiso   1.00
C806   C     0.26708   0.56689   0.58653   0.00000  Uiso   1.00
Cu807  Cu    0.10710   0.49439   0.74436   0.00000  Uiso   1.00
Cu808  Cu    0.22623   0.50561   0.75564   0.00000  Uiso   1.00
H809   H     0.29095   0.58869   0.61546   0.00000  Uiso   1.00
H810   H     0.02322   0.46195   0.64439   0.00000  Uiso   1.00
H811   H     0.05997   0.41671   0.66887   0.00000  Uiso   1.00
H812   H     0.26200   0.38990   0.64657   0.00000  Uiso   1.00
H813   H     0.32976   0.37228   0.60613   0.00000  Uiso   1.00
H814   H     0.30114   0.34546   0.66916   0.00000  Uiso   1.00
H815   H     0.05605   0.59187   0.55643   0.00000  Uiso   1.00
H816   H     0.12979   0.58634   0.56170   0.00000  Uiso   1.00
H817   H     0.10636   0.57510   0.65015   0.00000  Uiso   1.00
H818   H     0.06458   0.62333   0.64118   0.00000  Uiso   1.00
H819   H     0.02425   0.55566   0.65260   0.00000  Uiso   1.00
H820   H     0.09927   0.65335   0.74087   0.00000  Uiso   1.00
H821   H     0.32648   0.39044   0.51805   0.00000  Uiso   1.00
H822   H     0.29875   0.39314   0.95904   0.00000  Uiso   1.00
H823   H     0.19608   0.40004   0.50883   0.00000  Uiso   1.00
H824   H     0.21833   0.34223   0.52563   0.00000  Uiso   1.00
H825   H     0.22274   0.39994   0.56864   0.00000  Uiso   1.00
H826   H     0.00577   0.54662   0.78222   0.00000  Uiso   1.00
H827   H     0.29847   0.61028   0.93726   0.00000  Uiso   1.00
H828   H     0.31790   0.62007   0.52662   0.00000  Uiso   1.00
H829   H     0.14299   0.46836   0.57593   0.00000  Uiso   1.00
H830   H     0.02008   0.46463   0.90418   0.00000  Uiso   1.00
H831   H     0.22787   0.57544   0.87921   0.00000  Uiso   1.00
H832   H     0.23380   0.34659   0.75938   0.00000  Uiso   1.00
N833   N     0.31574   0.51407   0.76416   0.00000  Uiso   1.00
N834   N     0.01759   0.48593   0.73584   0.00000  Uiso   1.00
O835   O     0.12797   0.57141   0.74633   0.00000  Uiso   1.00
O836   O     0.06152   0.51401   0.56424   0.00000  Uiso   1.00
O837   O     0.30888   0.46305   0.50463   0.00000  Uiso   1.00
O838   O     0.22858   0.58089   0.75586   0.00000  Uiso   1.00
O839   O     0.09181   0.49293   0.81840   0.00000  Uiso   1.00
O840   O     0.19242   0.50241   0.82793   0.00000  Uiso   1.00
O841   O     0.10476   0.41911   0.74414   0.00000  Uiso   1.00
O842   O     0.20536   0.42859   0.75367   0.00000  Uiso   1.00
O843   O     0.14092   0.49759   0.67207   0.00000  Uiso   1.00
O844   O     0.24152   0.50707   0.68160   0.00000  Uiso   1.00
O845   O     0.31958   0.43922   0.71961   0.00000  Uiso   1.00
C846   C     0.51498   0.59993   0.75171   0.00000  Uiso   1.00
C847   C     0.44889   0.50317   0.90390   0.00000  Uiso   1.00
C848   C     0.52297   0.65602   0.75311   0.00000  Uiso   1.00
C849   C     0.46730   0.49993   0.84724   0.00000  Uiso   1.00
C850   C     0.47686   0.34393   0.74695   0.00000  Uiso   1.00
C851   C     0.48501   0.40006   0.74825   0.00000  Uiso   1.00
C852   C     0.53346   0.50632   0.65336   0.00000  Uiso   1.00
C853   C     0.61450   0.58563   0.53652   0.00000  Uiso   1.00
C854   C     0.55320   0.52224   0.59979   0.00000  Uiso   1.00
C855   C     0.38775   0.48106   0.92752   0.00000  Uiso   1.00
C856   C     0.36989   0.48133   0.98151   0.00000  Uiso   1.00
C857   C     0.47724   0.51432   0.98812   0.00000  Uiso   1.00
C858   C     0.41406   0.50264   0.51200   0.00000  Uiso   1.00
C859   C     0.34887   0.42782   0.66920   0.00000  Uiso   1.00
C860   C     0.64108   0.38096   0.64635   0.00000  Uiso   1.00
C861   C     0.41355   0.56932   0.57547   0.00000  Uiso   1.00
C862   C     0.40109   0.58129   0.63340   0.00000  Uiso   1.00
C863   C     0.62828   0.40721   0.50012   0.00000  Uiso   1.00
C864   C     0.56221   0.38611   0.52759   0.00000  Uiso   1.00
C865   C     0.49281   0.52487   0.93536   0.00000  Uiso   1.00
C866   C     0.52433   0.52386   0.51703   0.00000  Uiso   1.00
C867   C     0.57805   0.56251   0.50071   0.00000  Uiso   1.00
C868   C     0.59067   0.58047   0.95061   0.00000  Uiso   1.00
C869   C     0.54989   0.55986   0.91732   0.00000  Uiso   1.00
C870   C     0.51539   0.50078   0.56468   0.00000  Uiso   1.00
C871   C     0.60042   0.56689   0.58653   0.00000  Uiso   1.00
Cu872  Cu    0.44043   0.49439   0.74436   0.00000  Uiso   1.00
Cu873  Cu    0.55957   0.50561   0.75564   0.00000  Uiso   1.00
H874   H     0.62428   0.58869   0.61546   0.00000  Uiso   1.00
H875   H     0.35656   0.46195   0.64439   0.00000  Uiso   1.00
H876   H     0.39330   0.41671   0.66887   0.00000  Uiso   1.00
H877   H     0.59533   0.38990   0.64657   0.00000  Uiso   1.00
H878   H     0.66309   0.37228   0.60613   0.00000  Uiso   1.00
H879   H     0.63447   0.34546   0.66916   0.00000  Uiso   1.00
H880   H     0.38938   0.59187   0.55643   0.00000  Uiso   1.00
H881   H     0.46312   0.58634   0.56170   0.00000  Uiso   1.00
H882   H     0.43969   0.57510   0.65015   0.00000  Uiso   1.00
H883   H     0.39791   0.62333   0.64118   0.00000  Uiso   1.00
H884   H     0.35758   0.55566   0.65260   0.00000  Uiso   1.00
H885   H     0.43260   0.65335   0.74087   0.00000  Uiso   1.00
H886   H     0.65982   0.39044   0.51805   0.00000  Uiso   1.00
H887   H     0.63208   0.39314   0.95904   0.00000  Uiso   1.00
H888   H     0.52941   0.40004   0.50883   0.00000  Uiso   1.00
H889   H     0.55166   0.34223   0.52563   0.00000  Uiso   1.00
H890   H     0.55607   0.39994   0.56864   0.00000  Uiso   1.00
H891   H     0.33910   0.54662   0.78222   0.00000  Uiso   1.00
H892   H     0.63180   0.61028   0.93726   0.00000  Uiso   1.00
H893   H     0.65123   0.62007   0.52662   0.00000  Uiso   1.00
H894   H     0.47633   0.46836   0.57593   0.00000  Uiso   1.00
H895   H     0.35341   0.46463   0.90418   0.00000  Uiso   1.00
H896   H     0.56120   0.57544   0.87921   0.00000  Uiso   1.00
H897   H     0.56713   0.34659   0.75938   0.00000  Uiso   1.00
N898   N     0.64908   0.51407   0.76416   0.00000  Uiso   1.00
N899   N     0.35092   0.48593   0.73584   0.00000  Uiso   1.00
O900   O     0.46131   0.57141   0.74633   0.00000  Uiso   1.00
O901   O     0.39485   0.51401   0.56424   0.00000  Uiso   1.00
O902   O     0.64221   0.46305   0.50463   0.00000  Uiso   1.00
O903   O     0.56191   0.58089   0.75586   0.00000  Uiso   1.00
O904   O     0.42515   0.49293   0.81840   0.00000  Uiso   1.00
O905   O     0.52575   0.50241   0.82793   0.00000  Uiso   1.00
O906   O     0.43809   0.41911   0.74414   0.00000  Uiso   1.00
O907   O     0.53869   0.42859   0.75367   0.00000  Uiso   1.00
O908   O     0.47425   0.49759   0.67207   0.00000  Uiso   1.00
O909   O     0.57485   0.50707   0.68160   0.00000  Uiso   1.00
O910   O     0.65291   0.43922   0.71961   0.00000  Uiso   1.00
C911   C     0.84831   0.59993   0.75171   0.00000  Uiso   1.00
C912   C     0.78222   0.50317   0.90390   0.00000  Uiso   1.00
C913   C     0.85630   0.65602   0.75311   0.00000  Uiso   1.00
C914   C     0.80064   0.49993   0.84724   0.00000  Uiso   1.00
C915   C     0.81020   0.34393   0.74695   0.00000  Uiso   1.00
C916   C     0.81834   0.40006   0.74825   0.00000  Uiso   1.00
C917   C     0.86680   0.50632   0.65336   0.00000  Uiso   1.00
C918   C     0.94783   0.58563   0.53652   0.00000  Uiso   1.00
C919   C     0.88653   0.52224   0.59979   0.00000  Uiso   1.00
C920   C     0.72108   0.48106   0.92752   0.00000  Uiso   1.00
C921   C     0.70323   0.48133   0.98151   0.00000  Uiso   1.00
C922   C     0.81057   0.51432   0.98812   0.00000  Uiso   1.00
C923   C     0.74739   0.50264   0.51200   0.00000  Uiso   1.00
C924   C     0.68220   0.42782   0.66920   0.00000  Uiso   1.00
C925   C     0.97441   0.38096   0.64635   0.00000  Uiso   1.00
C926   C     0.74688   0.56932   0.57547   0.00000  Uiso   1.00
C927   C     0.73442   0.58129   0.63340   0.00000  Uiso   1.00
C928   C     0.96161   0.40721   0.50012   0.00000  Uiso   1.00
C929   C     0.89554   0.38611   0.52759   0.00000  Uiso   1.00
C930   C     0.82615   0.52487   0.93536   0.00000  Uiso   1.00
C931   C     0.85767   0.52386   0.51703   0.00000  Uiso   1.00
C932   C     0.91138   0.56251   0.50071   0.00000  Uiso   1.00
C933   C     0.92401   0.58047   0.95061   0.00000  Uiso   1.00
C934   C     0.88322   0.55986   0.91732   0.00000  Uiso   1.00
C935   C     0.84872   0.50078   0.56468   0.00000  Uiso   1.00
C936   C     0.93375   0.56689   0.58653   0.00000  Uiso   1.00
Cu937  Cu    0.77377   0.49439   0.74436   0.00000  Uiso   1.00
Cu938  Cu    0.89290   0.50561   0.75564   0.00000  Uiso   1.00
H939   H     0.95761   0.58869   0.61546   0.00000  Uiso   1.00
H940   H     0.68989   0.46195   0.64439   0.00000  Uiso   1.00
H941   H     0.72664   0.41671   0.66887   0.00000  Uiso   1.00
H942   H     0.92866   0.38990   0.64657   0.00000  Uiso   1.00
H943   H     0.99643   0.37228   0.60613   0.00000  Uiso   1.00
H944   H     0.96781   0.34546   0.66916   0.00000  Uiso   1.00
H945   H     0.72271   0.59187   0.55643   0.00000  Uiso   1.00
H946   H     0.79646   0.58634   0.56170   0.00000  Uiso   1.00
H947   H     0.77302   0.57510   0.65015   0.00000  Uiso   1.00
H948   H     0.73124   0.62333   0.64118   0.00000  Uiso   1.00
H949   H     0.69092   0.55566   0.65260   0.00000  Uiso   1.00
H950   H     0.76593   0.65335   0.74087   0.00000  Uiso   1.00
H951   H     0.99315   0.39044   0.51805   0.00000  Uiso   1.00
H952   H     0.96541   0.39314   0.95904   0.00000  Uiso   1.00
H953   H     0.86274   0.40004   0.50883   0.00000  Uiso   1.00
H954   H     0.88499   0.34223   0.52563   0.00000  Uiso   1.00
H955   H     0.88941   0.39994   0.56864   0.00000  Uiso   1.00
H956   H     0.67244   0.54662   0.78222   0.00000  Uiso   1.00
H957   H     0.96514   0.61028   0.93726   0.00000  Uiso   1.00
H958   H     0.98456   0.62007   0.52662   0.00000  Uiso   1.00
H959   H     0.80966   0.46836   0.57593   0.00000  Uiso   1.00
H960   H     0.68675   0.46463   0.90418   0.00000  Uiso   1.00
H961   H     0.89454   0.57544   0.87921   0.00000  Uiso   1.00
H962   H     0.90047   0.34659   0.75938   0.00000  Uiso   1.00
N963   N     0.98241   0.51407   0.76416   0.00000  Uiso   1.00
N964   N     0.68426   0.48593   0.73584   0.00000  Uiso   1.00
O965   O     0.79464   0.57141   0.74633   0.00000  Uiso   1.00
O966   O     0.72819   0.51401   0.56424   0.00000  Uiso   1.00
O967   O     0.97554   0.46305   0.50463   0.00000  Uiso   1.00
O968   O     0.89524   0.58089   0.75586   0.00000  Uiso   1.00
O969   O     0.75848   0.49293   0.81840   0.00000  Uiso   1.00
O970   O     0.85908   0.50241   0.82793   0.00000  Uiso   1.00
O971   O     0.77142   0.41911   0.74414   0.00000  Uiso   1.00
O972   O     0.87203   0.42859   0.75367   0.00000  Uiso   1.00
O973   O     0.80758   0.49759   0.67207   0.00000  Uiso   1.00
O974   O     0.90819   0.50707   0.68160   0.00000  Uiso   1.00
O975   O     0.98625   0.43922   0.71961   0.00000  Uiso   1.00
C976   C     0.18164   0.93326   0.75171   0.00000  Uiso   1.00
C977   C     0.11556   0.83651   0.90390   0.00000  Uiso   1.00
C978   C     0.18964   0.98935   0.75311   0.00000  Uiso   1.00
C979   C     0.13397   0.83327   0.84724   0.00000  Uiso   1.00
C980   C     0.14353   0.67727   0.74695   0.00000  Uiso   1.00
C981   C     0.15168   0.73339   0.74825   0.00000  Uiso   1.00
C982   C     0.20013   0.83965   0.65336   0.00000  Uiso   1.00
C983   C     0.28116   0.91897   0.53652   0.00000  Uiso   1.00
C984   C     0.21986   0.85557   0.59979   0.00000  Uiso   1.00
C985   C     0.05442   0.81439   0.92752   0.00000  Uiso   1.00
C986   C     0.03656   0.81466   0.98151   0.00000  Uiso   1.00
C987   C     0.14391   0.84765   0.98812   0.00000  Uiso   1.00
C988   C     0.08073   0.83597   0.51200   0.00000  Uiso   1.00
C989   C     0.01554   0.76116   0.66920   0.00000  Uiso   1.00
C990   C     0.30775   0.71429   0.64635   0.00000  Uiso   1.00
C991   C     0.08022   0.90265   0.57547   0.00000  Uiso   1.00
C992   C     0.06776   0.91462   0.63340   0.00000  Uiso   1.00
C993   C     0.29495   0.74055   0.50012   0.00000  Uiso   1.00
C994   C     0.22887   0.71945   0.52759   0.00000  Uiso   1.00
C995   C     0.15948   0.85821   0.93536   0.00000  Uiso   1.00
C996   C     0.19100   0.85719   0.51703   0.00000  Uiso   1.00
C997   C     0.24471   0.89585   0.50071   0.00000  Uiso   1.00
C998   C     0.25734   0.91380   0.95061   0.00000  Uiso   1.00
C999   C     0.21656   0.89319   0.91732   0.00000  Uiso   1.00
C1000  C     0.18206   0.83411   0.56468   0.00000  Uiso   1.00
C1001  C     0.26708   0.90022   0.58653   0.00000  Uiso   1.00
Cu1002 Cu    0.10710   0.82772   0.74436   0.00000  Uiso   1.00
Cu1003 Cu    0.22623   0.83895   0.75564   0.00000  Uiso   1.00
H1004  H     0.29095   0.92203   0.61546   0.00000  Uiso   1.00
H1005  H     0.02322   0.79528   0.64439   0.00000  Uiso   1.00
H1006  H     0.05997   0.75004   0.66887   0.00000  Uiso   1.00
H1007  H     0.26200   0.72323   0.64657   0.00000  Uiso   1.00
H1008  H     0.32976   0.70561   0.60613   0.00000  Uiso   1.00
H1009  H     0.30114   0.67880   0.66916   0.00000  Uiso   1.00
H1010  H     0.05605   0.92521   0.55643   0.00000  Uiso   1.00
H1011  H     0.12979   0.91967   0.56170   0.00000  Uiso   1.00
H1012  H     0.10636   0.90843   0.65015   0.00000  Uiso   1.00
H1013  H     0.06458   0.95666   0.64118   0.00000  Uiso   1.00
H1014  H     0.02425   0.88900   0.65260   0.00000  Uiso   1.00
H1015  H     0.09927   0.98669   0.74087   0.00000  Uiso   1.00
H1016  H     0.32648   0.72377   0.51805   0.00000  Uiso   1.00
H1017  H     0.29875   0.72647   0.95904   0.00000  Uiso   1.00
H1018  H     0.19608   0.73337   0.50883   0.00000  Uiso   1.00
H1019  H     0.21833   0.67556   0.52563   0.00000  Uiso   1.00
H1020  H     0.22274   0.73327   0.56864   0.00000  Uiso   1.00
H1021  H     0.00577   0.87995   0.78222   0.00000  Uiso   1.00
H1022  H     0.29847   0.94361   0.93726   0.00000  Uiso   1.00
H1023  H     0.31790   0.95340   0.52662   0.00000  Uiso   1.00
H1024  H     0.14299   0.80169   0.57593   0.00000  Uiso   1.00
H1025  H     0.02008   0.79797   0.90418   0.00000  Uiso   1.00
H1026  H     0.22787   0.90878   0.87921   0.00000  Uiso   1.00
H1027  H     0.23380   0.67992   0.75938   0.00000  Uiso   1.00
N1028  N     0.31574   0.84741   0.76416   0.00000  Uiso   1.00
N1029  N     0.01759   0.81926   0.73584   0.00000  Uiso   1.00
O1030  O     0.12797   0.90474   0.74633   0.00000  Uiso   1.00
O1031  O     0.06152   0.84735   0.56424   0.00000  Uiso   1.00
O1032  O     0.30888   0.79638   0.50463   0.00000  Uiso   1.00
O1033  O     0.22858   0.91422   0.75586   0.00000  Uiso   1.00
O1034  O     0.09181   0.82627   0.81840   0.00000  Uiso   1.00
O1035  O     0.19242   0.83575   0.82793   0.00000  Uiso   1.00
O1036  O     0.10476   0.75245   0.74414   0.00000  Uiso   1.00
O1037  O     0.20536   0.76193   0.75367   0.00000  Uiso   1.00
O1038  O     0.14092   0.83092   0.67207   0.00000  Uiso   1.00
O1039  O     0.24152   0.84040   0.68160   0.00000  Uiso   1.00
O1040  O     0.31958   0.77255   0.71961   0.00000  Uiso   1.00
C1041  C     0.51498   0.93326   0.75171   0.00000  Uiso   1.00
C1042  C     0.44889   0.83651   0.90390   0.00000  Uiso   1.00
C1043  C     0.52297   0.98935   0.75311   0.00000  Uiso   1.00
C1044  C     0.46730   0.83327   0.84724   0.00000  Uiso   1.00
C1045  C     0.47686   0.67727   0.74695   0.00000  Uiso   1.00
C1046  C     0.48501   0.73339   0.74825   0.00000  Uiso   1.00
C1047  C     0.53346   0.83965   0.65336   0.00000  Uiso   1.00
C1048  C     0.61450   0.91897   0.53652   0.00000  Uiso   1.00
C1049  C     0.55320   0.85557   0.59979   0.00000  Uiso   1.00
C1050  C     0.38775   0.81439   0.92752   0.00000  Uiso   1.00
C1051  C     0.36989   0.81466   0.98151   0.00000  Uiso   1.00
C1052  C     0.47724   0.84765   0.98812   0.00000  Uiso   1.00
C1053  C     0.41406   0.83597   0.51200   0.00000  Uiso   1.00
C1054  C     0.34887   0.76116   0.66920   0.00000  Uiso   1.00
C1055  C     0.64108   0.71429   0.64635   0.00000  Uiso   1.00
C1056  C     0.41355   0.90265   0.57547   0.00000  Uiso   1.00
C1057  C     0.40109   0.91462   0.63340   0.00000  Uiso   1.00
C1058  C     0.62828   0.74055   0.50012   0.00000  Uiso   1.00
C1059  C     0.56221   0.71945   0.52759   0.00000  Uiso   1.00
C1060  C     0.49281   0.85821   0.93536   0.00000  Uiso   1.00
C1061  C     0.52433   0.85719   0.51703   0.00000  Uiso   1.00
C1062  C     0.57805   0.89585   0.50071   0.00000  Uiso   1.00
C1063  C     0.59067   0.91380   0.95061   0.00000  Uiso   1.00
C1064  C     0.54989   0.89319   0.91732   0.00000  Uiso   1.00
C1065  C     0.51539   0.83411   0.56468   0.00000  Uiso   1.00
C1066  C     0.60042   0.90022   0.58653   0.00000  Uiso   1.00
Cu1067 Cu    0.44043   0.82772   0.74436   0.00000  Uiso   1.00
Cu1068 Cu    0.55957   0.83895   0.75564   0.00000  Uiso   1.00
H1069  H     0.62428   0.92203   0.61546   0.00000  Uiso   1.00
H1070  H     0.35656   0.79528   0.64439   0.00000  Uiso   1.00
H1071  H     0.39330   0.75004   0.66887   0.00000  Uiso   1.00
H1072  H     0.59533   0.72323   0.64657   0.00000  Uiso   1.00
H1073  H     0.66309   0.70561   0.60613   0.00000  Uiso   1.00
H1074  H     0.63447   0.67880   0.66916   0.00000  Uiso   1.00
H1075  H     0.38938   0.92521   0.55643   0.00000  Uiso   1.00
H1076  H     0.46312   0.91967   0.56170   0.00000  Uiso   1.00
H1077  H     0.43969   0.90843   0.65015   0.00000  Uiso   1.00
H1078  H     0.39791   0.95666   0.64118   0.00000  Uiso   1.00
H1079  H     0.35758   0.88900   0.65260   0.00000  Uiso   1.00
H1080  H     0.43260   0.98669   0.74087   0.00000  Uiso   1.00
H1081  H     0.65982   0.72377   0.51805   0.00000  Uiso   1.00
H1082  H     0.63208   0.72647   0.95904   0.00000  Uiso   1.00
H1083  H     0.52941   0.73337   0.50883   0.00000  Uiso   1.00
H1084  H     0.55166   0.67556   0.52563   0.00000  Uiso   1.00
H1085  H     0.55607   0.73327   0.56864   0.00000  Uiso   1.00
H1086  H     0.33910   0.87995   0.78222   0.00000  Uiso   1.00
H1087  H     0.63180   0.94361   0.93726   0.00000  Uiso   1.00
H1088  H     0.65123   0.95340   0.52662   0.00000  Uiso   1.00
H1089  H     0.47633   0.80169   0.57593   0.00000  Uiso   1.00
H1090  H     0.35341   0.79797   0.90418   0.00000  Uiso   1.00
H1091  H     0.56120   0.90878   0.87921   0.00000  Uiso   1.00
H1092  H     0.56713   0.67992   0.75938   0.00000  Uiso   1.00
N1093  N     0.64908   0.84741   0.76416   0.00000  Uiso   1.00
N1094  N     0.35092   0.81926   0.73584   0.00000  Uiso   1.00
O1095  O     0.46131   0.90474   0.74633   0.00000  Uiso   1.00
O1096  O     0.39485   0.84735   0.56424   0.00000  Uiso   1.00
O1097  O     0.64221   0.79638   0.50463   0.00000  Uiso   1.00
O1098  O     0.56191   0.91422   0.75586   0.00000  Uiso   1.00
O1099  O     0.42515   0.82627   0.81840   0.00000  Uiso   1.00
O1100  O     0.52575   0.83575   0.82793   0.00000  Uiso   1.00
O1101  O     0.43809   0.75245   0.74414   0.00000  Uiso   1.00
O1102  O     0.53869   0.76193   0.75367   0.00000  Uiso   1.00
O1103  O     0.47425   0.83092   0.67207   0.00000  Uiso   1.00
O1104  O     0.57485   0.84040   0.68160   0.00000  Uiso   1.00
O1105  O     0.65291   0.77255   0.71961   0.00000  Uiso   1.00
C1106  C     0.84831   0.93326   0.75171   0.00000  Uiso   1.00
C1107  C     0.78222   0.83651   0.90390   0.00000  Uiso   1.00
C1108  C     0.85630   0.98935   0.75311   0.00000  Uiso   1.00
C1109  C     0.80064   0.83327   0.84724   0.00000  Uiso   1.00
C1110  C     0.81020   0.67727   0.74695   0.00000  Uiso   1.00
C1111  C     0.81834   0.73339   0.74825   0.00000  Uiso   1.00
C1112  C     0.86680   0.83965   0.65336   0.00000  Uiso   1.00
C1113  C     0.94783   0.91897   0.53652   0.00000  Uiso   1.00
C1114  C     0.88653   0.85557   0.59979   0.00000  Uiso   1.00
C1115  C     0.72108   0.81439   0.92752   0.00000  Uiso   1.00
C1116  C     0.70323   0.81466   0.98151   0.00000  Uiso   1.00
C1117  C     0.81057   0.84765   0.98812   0.00000  Uiso   1.00
C1118  C     0.74739   0.83597   0.51200   0.00000  Uiso   1.00
C1119  C     0.68220   0.76116   0.66920   0.00000  Uiso   1.00
C1120  C     0.97441   0.71429   0.64635   0.00000  Uiso   1.00
C1121  C     0.74688   0.90265   0.57547   0.00000  Uiso   1.00
C1122  C     0.73442   0.91462   0.63340   0.00000  Uiso   1.00
C1123  C     0.96161   0.74055   0.50012   0.00000  Uiso   1.00
C1124  C     0.89554   0.71945   0.52759   0.00000  Uiso   1.00
C1125  C     0.82615   0.85821   0.93536   0.00000  Uiso   1.00
C1126  C     0.85767   0.85719   0.51703   0.00000  Uiso   1.00
C1127  C     0.91138   0.89585   0.50071   0.00000  Uiso   1.00
C1128  C     0.92401   0.91380   0.95061   0.00000  Uiso   1.00
C1129  C     0.88322   0.89319   0.91732   0.00000  Uiso   1.00
C1130  C     0.84872   0.83411   0.56468   0.00000  Uiso   1.00
C1131  C     0.93375   0.90022   0.58653   0.00000  Uiso   1.00
Cu1132 Cu    0.77377   0.82772   0.74436   0.00000  Uiso   1.00
Cu1133 Cu    0.89290   0.83895   0.75564   0.00000  Uiso   1.00
H1134  H     0.95761   0.92203   0.61546   0.00000  Uiso   1.00
H1135  H     0.68989   0.79528   0.64439   0.00000  Uiso   1.00
H1136  H     0.72664   0.75004   0.66887   0.00000  Uiso   1.00
H1137  H     0.92866   0.72323   0.64657   0.00000  Uiso   1.00
H1138  H     0.99643   0.70561   0.60613   0.00000  Uiso   1.00
H1139  H     0.96781   0.67880   0.66916   0.00000  Uiso   1.00
H1140  H     0.72271   0.92521   0.55643   0.00000  Uiso   1.00
H1141  H     0.79646   0.91967   0.56170   0.00000  Uiso   1.00
H1142  H     0.77302   0.90843   0.65015   0.00000  Uiso   1.00
H1143  H     0.73124   0.95666   0.64118   0.00000  Uiso   1.00
H1144  H     0.69092   0.88900   0.65260   0.00000  Uiso   1.00
H1145  H     0.76593   0.98669   0.74087   0.00000  Uiso   1.00
H1146  H     0.99315   0.72377   0.51805   0.00000  Uiso   1.00
H1147  H     0.96541   0.72647   0.95904   0.00000  Uiso   1.00
H1148  H     0.86274   0.73337   0.50883   0.00000  Uiso   1.00
H1149  H     0.88499   0.67556   0.52563   0.00000  Uiso   1.00
H1150  H     0.88941   0.73327   0.56864   0.00000  Uiso   1.00
H1151  H     0.67244   0.87995   0.78222   0.00000  Uiso   1.00
H1152  H     0.96514   0.94361   0.93726   0.00000  Uiso   1.00
H1153  H     0.98456   0.95340   0.52662   0.00000  Uiso   1.00
H1154  H     0.80966   0.80169   0.57593   0.00000  Uiso   1.00
H1155  H     0.68675   0.79797   0.90418   0.00000  Uiso   1.00
H1156  H     0.89454   0.90878   0.87921   0.00000  Uiso   1.00
H1157  H     0.90047   0.67992   0.75938   0.00000  Uiso   1.00
N1158  N     0.98241   0.84741   0.76416   0.00000  Uiso   1.00
N1159  N     0.68426   0.81926   0.73584   0.00000  Uiso   1.00
O1160  O     0.79464   0.90474   0.74633   0.00000  Uiso   1.00
O1161  O     0.72819   0.84735   0.56424   0.00000  Uiso   1.00
O1162  O     0.97554   0.79638   0.50463   0.00000  Uiso   1.00
O1163  O     0.89524   0.91422   0.75586   0.00000  Uiso   1.00
O1164  O     0.75848   0.82627   0.81840   0.00000  Uiso   1.00
O1165  O     0.85908   0.83575   0.82793   0.00000  Uiso   1.00
O1166  O     0.77142   0.75245   0.74414   0.00000  Uiso   1.00
O1167  O     0.87203   0.76193   0.75367   0.00000  Uiso   1.00
O1168  O     0.80758   0.83092   0.67207   0.00000  Uiso   1.00
O1169  O     0.90819   0.84040   0.68160   0.00000  Uiso   1.00
O1170  O     0.98625   0.77255   0.71961   0.00000  Uiso   1.00
loop_
_geom_bond_atom_site_label_1
_geom_bond_atom_site_label_2
_geom_bond_distance
_geom_bond_site_symmetry_2
_ccdc_geom_bond_type
C1     O55     1.300   .     A
C1     O58     1.297   .     A
C1     C3      1.426   .     S
C2     C10     1.407   .     A
C2     C4      1.476   .     S
C2     C20     1.418   .     A
C3     C200    1.329   .     S
C3     H247    1.087   .     S
C4     O60     1.306   .     A
C4     O59     1.314   .     A
C5     C6      1.427   .     S
C5     C393    1.329   1_545 S
C5     H430    1.088   1_545 S
C6     O62     1.301   .     A
C6     O61     1.296   .     A
C7     O63     1.304   .     A
C7     O64     1.310   .     A
C7     C9      1.465   .     S
C8     C26     1.401   .     A
C8     C22     1.395   .     A
C8     H48     1.083   .     S
C9     C25     1.392   .     A
C9     C26     1.401   .     A
C10    C11     1.406   .     A
C10    H50     1.083   .     S
C11    C598    1.403   .     S
C11    O772    1.382   1_455 S
C12    C20     1.406   .     A
C12    C598    1.414   .     S
C12    C606    1.404   .     S
C13    O56     1.393   .     S
C13    C596    1.403   1_554 S
C13    C597    1.414   1_554 S
C14    H31     1.106   .     S
C14    H30     1.109   .     S
C14    C145    1.521   1_455 S
C14    O195    1.406   1_455 S
C15    H32     1.110   .     S
C15    H34     1.110   .     S
C15    H33     1.110   .     S
C15    C79     1.521   .     S
C16    O56     1.428   .     S
C16    H36     1.105   .     S
C16    H35     1.098   .     S
C16    C17     1.524   .     S
C17    H37     1.105   .     S
C17    H38     1.111   .     S
C17    H39     1.107   .     S
C18    O57     1.414   .     S
C18    C19     1.521   .     S
C18    H41     1.114   .     S
C18    H627    1.113   1_554 S
C19    H44     1.110   .     S
C19    H43     1.111   .     S
C19    H45     1.110   .     S
C20    C24     1.417   .     A
C21    C25     1.402   .     A
C21    C22     1.406   .     A
C21    C597    1.404   1_554 S
C22    C608    1.398   1_554 S
C23    C24     1.397   .     A
C23    H47     1.084   .     S
C23    C607    1.398   .     S
C24    H51     1.080   .     S
C25    H49     1.084   .     S
C26    H29     1.078   .     S
Cu27   N54     2.045   .     S
Cu27   O63     1.915   .     S
Cu27   O55     1.949   .     S
Cu27   Cu28    2.721   .     S
Cu27   O59     1.926   .     S
Cu27   O61     1.945   .     S
Cu28   N53     2.045   .     S
Cu28   O58     1.945   .     S
Cu28   O64     1.926   .     S
Cu28   O60     1.915   .     S
Cu28   O62     1.949   .     S
H40    C200    1.088   .     S
H42    C603    1.113   .     S
H46    N183    1.029   1_455 S
H52    C393    1.087   1_545 S
N53    H111    1.029   .     S
N53    N119    1.289   .     S
N54    N183    1.289   1_455 S
N54    O195    1.346   1_455 S
O57    C661    1.382   1_554 S
O65    C79     1.406   .     S
O65    N119    1.346   .     S
C66    O120    1.300   .     A
C66    O123    1.297   .     A
C66    C68     1.426   .     S
C67    C75     1.407   .     A
C67    C69     1.476   .     S
C67    C85     1.418   .     A
C68    C265    1.329   .     S
C68    H312    1.087   .     S
C69    O125    1.306   .     A
C69    O124    1.314   .     A
C70    C71     1.427   .     S
C70    C458    1.329   1_545 S
C70    H495    1.088   1_545 S
C71    O127    1.301   .     A
C71    O126    1.296   .     A
C72    O128    1.304   .     A
C72    O129    1.310   .     A
C72    C74     1.465   .     S
C73    C91     1.401   .     A
C73    C87     1.395   .     A
C73    H113    1.083   .     S
C74    C90     1.392   .     A
C74    C91     1.401   .     A
C75    C76     1.406   .     A
C75    H115    1.083   .     S
C76    C663    1.403   .     S
C76    O642    1.382   .     S
C77    C85     1.406   .     A
C77    C663    1.414   .     S
C77    C671    1.404   .     S
C78    O121    1.393   .     S
C78    C661    1.403   1_554 S
C78    C662    1.414   1_554 S
C79    H96     1.106   .     S
C79    H95     1.109   .     S
C80    H97     1.110   .     S
C80    H99     1.110   .     S
C80    H98     1.110   .     S
C80    C144    1.521   .     S
C81    O121    1.428   .     S
C81    H101    1.105   .     S
C81    H100    1.098   .     S
C81    C82     1.524   .     S
C82    H102    1.105   .     S
C82    H103    1.111   .     S
C82    H104    1.107   .     S
C83    O122    1.414   .     S
C83    C84     1.521   .     S
C83    H106    1.114   .     S
C83    H692    1.113   1_554 S
C84    H109    1.110   .     S
C84    H108    1.111   .     S
C84    H110    1.110   .     S
C85    C89     1.417   .     A
C86    C90     1.402   .     A
C86    C87     1.406   .     A
C86    C662    1.404   1_554 S
C87    C673    1.398   1_554 S
C88    C89     1.397   .     A
C88    H112    1.084   .     S
C88    C672    1.398   .     S
C89    H116    1.080   .     S
C90    H114    1.084   .     S
C91    H94     1.078   .     S
Cu92   N119    2.045   .     S
Cu92   O128    1.915   .     S
Cu92   O120    1.949   .     S
Cu92   Cu93    2.721   .     S
Cu92   O124    1.926   .     S
Cu92   O126    1.945   .     S
Cu93   N118    2.045   .     S
Cu93   O123    1.945   .     S
Cu93   O129    1.926   .     S
Cu93   O125    1.915   .     S
Cu93   O127    1.949   .     S
H105   C265    1.088   .     S
H107   C668    1.113   .     S
H117   C458    1.087   1_545 S
N118   H176    1.029   .     S
N118   N184    1.289   .     S
O122   C726    1.382   1_554 S
O130   C144    1.406   .     S
O130   N184    1.346   .     S
C131   O185    1.300   .     A
C131   O188    1.297   .     A
C131   C133    1.426   .     S
C132   C140    1.407   .     A
C132   C134    1.476   .     S
C132   C150    1.418   .     A
C133   C330    1.329   .     S
C133   H377    1.087   .     S
C134   O190    1.306   .     A
C134   O189    1.314   .     A
C135   C136    1.427   .     S
C135   C523    1.329   1_545 S
C135   H560    1.088   1_545 S
C136   O192    1.301   .     A
C136   O191    1.296   .     A
C137   O193    1.304   .     A
C137   O194    1.310   .     A
C137   C139    1.465   .     S
C138   C156    1.401   .     A
C138   C152    1.395   .     A
C138   H178    1.083   .     S
C139   C155    1.392   .     A
C139   C156    1.401   .     A
C140   C141    1.406   .     A
C140   H180    1.083   .     S
C141   C728    1.403   .     S
C141   O707    1.382   .     S
C142   C150    1.406   .     A
C142   C728    1.414   .     S
C142   C736    1.404   .     S
C143   O186    1.393   .     S
C143   C726    1.403   1_554 S
C143   C727    1.414   1_554 S
C144   H161    1.106   .     S
C144   H160    1.109   .     S
C145   H162    1.110   .     S
C145   H164    1.110   .     S
C145   H163    1.110   .     S
C145   C14     1.521   1_655 S
C146   O186    1.428   .     S
C146   H166    1.105   .     S
C146   H165    1.098   .     S
C146   C147    1.524   .     S
C147   H167    1.105   .     S
C147   H168    1.111   .     S
C147   H169    1.107   .     S
C148   O187    1.414   .     S
C148   C149    1.521   .     S
C148   H171    1.114   .     S
C148   H757    1.113   1_554 S
C149   H174    1.110   .     S
C149   H173    1.111   .     S
C149   H175    1.110   .     S
C150   C154    1.417   .     A
C151   C155    1.402   .     A
C151   C152    1.406   .     A
C151   C727    1.404   1_554 S
C152   C738    1.398   1_554 S
C153   C154    1.397   .     A
C153   H177    1.084   .     S
C153   C737    1.398   .     S
C154   H181    1.080   .     S
C155   H179    1.084   .     S
C156   H159    1.078   .     S
Cu157  N184    2.045   .     S
Cu157  O193    1.915   .     S
Cu157  O185    1.949   .     S
Cu157  Cu158   2.721   .     S
Cu157  O189    1.926   .     S
Cu157  O191    1.945   .     S
Cu158  N183    2.045   .     S
Cu158  O188    1.945   .     S
Cu158  O194    1.926   .     S
Cu158  O190    1.915   .     S
Cu158  O192    1.949   .     S
H170   C330    1.088   .     S
H172   C733    1.113   .     S
H182   C523    1.087   1_545 S
N183   H46     1.029   1_655 S
N183   N54     1.289   1_655 S
O187   C596    1.382   1_654 S
O195   C14     1.406   1_655 S
O195   N54     1.346   1_655 S
C196   O250    1.300   .     A
C196   O253    1.297   .     A
C196   C198    1.426   .     S
C197   C205    1.407   .     A
C197   C199    1.476   .     S
C197   C215    1.418   .     A
C198   C395    1.329   .     S
C198   H442    1.087   .     S
C199   O255    1.306   .     A
C199   O254    1.314   .     A
C200   C201    1.427   .     S
C201   O257    1.301   .     A
C201   O256    1.296   .     A
C202   O258    1.304   .     A
C202   O259    1.310   .     A
C202   C204    1.465   .     S
C203   C221    1.401   .     A
C203   C217    1.395   .     A
C203   H243    1.083   .     S
C204   C220    1.392   .     A
C204   C221    1.401   .     A
C205   C206    1.406   .     A
C205   H245    1.083   .     S
C206   C793    1.403   .     S
C206   O967    1.382   1_455 S
C207   C215    1.406   .     A
C207   C793    1.414   .     S
C207   C801    1.404   .     S
C208   O251    1.393   .     S
C208   C791    1.403   1_554 S
C208   C792    1.414   1_554 S
C209   H226    1.106   .     S
C209   H225    1.109   .     S
C209   C340    1.521   1_455 S
C209   O390    1.406   1_455 S
C210   H227    1.110   .     S
C210   H229    1.110   .     S
C210   H228    1.110   .     S
C210   C274    1.521   .     S
C211   O251    1.428   .     S
C211   H231    1.105   .     S
C211   H230    1.098   .     S
C211   C212    1.524   .     S
C212   H232    1.105   .     S
C212   H233    1.111   .     S
C212   H234    1.107   .     S
C213   O252    1.414   .     S
C213   C214    1.521   .     S
C213   H236    1.114   .     S
C213   H822    1.113   1_554 S
C214   H239    1.110   .     S
C214   H238    1.111   .     S
C214   H240    1.110   .     S
C215   C219    1.417   .     A
C216   C220    1.402   .     A
C216   C217    1.406   .     A
C216   C792    1.404   1_554 S
C217   C803    1.398   1_554 S
C218   C219    1.397   .     A
C218   H242    1.084   .     S
C218   C802    1.398   .     S
C219   H246    1.080   .     S
C220   H244    1.084   .     S
C221   H224    1.078   .     S
Cu222  N249    2.045   .     S
Cu222  O258    1.915   .     S
Cu222  O250    1.949   .     S
Cu222  Cu223   2.721   .     S
Cu222  O254    1.926   .     S
Cu222  O256    1.945   .     S
Cu223  N248    2.045   .     S
Cu223  O253    1.945   .     S
Cu223  O259    1.926   .     S
Cu223  O255    1.915   .     S
Cu223  O257    1.949   .     S
H235   C395    1.088   .     S
H237   C798    1.113   .     S
H241   N378    1.029   1_455 S
N248   H306    1.029   .     S
N248   N314    1.289   .     S
N249   N378    1.289   1_455 S
N249   O390    1.346   1_455 S
O252   C856    1.382   1_554 S
O260   C274    1.406   .     S
O260   N314    1.346   .     S
C261   O315    1.300   .     A
C261   O318    1.297   .     A
C261   C263    1.426   .     S
C262   C270    1.407   .     A
C262   C264    1.476   .     S
C262   C280    1.418   .     A
C263   C460    1.329   .     S
C263   H507    1.087   .     S
C264   O320    1.306   .     A
C264   O319    1.314   .     A
C265   C266    1.427   .     S
C266   O322    1.301   .     A
C266   O321    1.296   .     A
C267   O323    1.304   .     A
C267   O324    1.310   .     A
C267   C269    1.465   .     S
C268   C286    1.401   .     A
C268   C282    1.395   .     A
C268   H308    1.083   .     S
C269   C285    1.392   .     A
C269   C286    1.401   .     A
C270   C271    1.406   .     A
C270   H310    1.083   .     S
C271   C858    1.403   .     S
C271   O837    1.382   .     S
C272   C280    1.406   .     A
C272   C858    1.414   .     S
C272   C866    1.404   .     S
C273   O316    1.393   .     S
C273   C856    1.403   1_554 S
C273   C857    1.414   1_554 S
C274   H291    1.106   .     S
C274   H290    1.109   .     S
C275   H292    1.110   .     S
C275   H294    1.110   .     S
C275   H293    1.110   .     S
C275   C339    1.521   .     S
C276   O316    1.428   .     S
C276   H296    1.105   .     S
C276   H295    1.098   .     S
C276   C277    1.524   .     S
C277   H297    1.105   .     S
C277   H298    1.111   .     S
C277   H299    1.107   .     S
C278   O317    1.414   .     S
C278   C279    1.521   .     S
C278   H301    1.114   .     S
C278   H887    1.113   1_554 S
C279   H304    1.110   .     S
C279   H303    1.111   .     S
C279   H305    1.110   .     S
C280   C284    1.417   .     A
C281   C285    1.402   .     A
C281   C282    1.406   .     A
C281   C857    1.404   1_554 S
C282   C868    1.398   1_554 S
C283   C284    1.397   .     A
C283   H307    1.084   .     S
C283   C867    1.398   .     S
C284   H311    1.080   .     S
C285   H309    1.084   .     S
C286   H289    1.078   .     S
Cu287  N314    2.045   .     S
Cu287  O323    1.915   .     S
Cu287  O315    1.949   .     S
Cu287  Cu288   2.721   .     S
Cu287  O319    1.926   .     S
Cu287  O321    1.945   .     S
Cu288  N313    2.045   .     S
Cu288  O318    1.945   .     S
Cu288  O324    1.926   .     S
Cu288  O320    1.915   .     S
Cu288  O322    1.949   .     S
H300   C460    1.088   .     S
H302   C863    1.113   .     S
N313   H371    1.029   .     S
N313   N379    1.289   .     S
O317   C921    1.382   1_554 S
O325   C339    1.406   .     S
O325   N379    1.346   .     S
C326   O380    1.300   .     A
C326   O383    1.297   .     A
C326   C328    1.426   .     S
C327   C335    1.407   .     A
C327   C329    1.476   .     S
C327   C345    1.418   .     A
C328   C525    1.329   .     S
C328   H572    1.087   .     S
C329   O385    1.306   .     A
C329   O384    1.314   .     A
C330   C331    1.427   .     S
C331   O387    1.301   .     A
C331   O386    1.296   .     A
C332   O388    1.304   .     A
C332   O389    1.310   .     A
C332   C334    1.465   .     S
C333   C351    1.401   .     A
C333   C347    1.395   .     A
C333   H373    1.083   .     S
C334   C350    1.392   .     A
C334   C351    1.401   .     A
C335   C336    1.406   .     A
C335   H375    1.083   .     S
C336   C923    1.403   .     S
C336   O902    1.382   .     S
C337   C345    1.406   .     A
C337   C923    1.414   .     S
C337   C931    1.404   .     S
C338   O381    1.393   .     S
C338   C921    1.403   1_554 S
C338   C922    1.414   1_554 S
C339   H356    1.106   .     S
C339   H355    1.109   .     S
C340   H357    1.110   .     S
C340   H359    1.110   .     S
C340   H358    1.110   .     S
C340   C209    1.521   1_655 S
C341   O381    1.428   .     S
C341   H361    1.105   .     S
C341   H360    1.098   .     S
C341   C342    1.524   .     S
C342   H362    1.105   .     S
C342   H363    1.111   .     S
C342   H364    1.107   .     S
C343   O382    1.414   .     S
C343   C344    1.521   .     S
C343   H366    1.114   .     S
C343   H952    1.113   1_554 S
C344   H369    1.110   .     S
C344   H368    1.111   .     S
C344   H370    1.110   .     S
C345   C349    1.417   .     A
C346   C350    1.402   .     A
C346   C347    1.406   .     A
C346   C922    1.404   1_554 S
C347   C933    1.398   1_554 S
C348   C349    1.397   .     A
C348   H372    1.084   .     S
C348   C932    1.398   .     S
C349   H376    1.080   .     S
C350   H374    1.084   .     S
C351   H354    1.078   .     S
Cu352  N379    2.045   .     S
Cu352  O388    1.915   .     S
Cu352  O380    1.949   .     S
Cu352  Cu353   2.721   .     S
Cu352  O384    1.926   .     S
Cu352  O386    1.945   .     S
Cu353  N378    2.045   .     S
Cu353  O383    1.945   .     S
Cu353  O389    1.926   .     S
Cu353  O385    1.915   .     S
Cu353  O387    1.949   .     S
H365   C525    1.088   .     S
H367   C928    1.113   .     S
N378   H241    1.029   1_655 S
N378   N249    1.289   1_655 S
O382   C791    1.382   1_654 S
O390   C209    1.406   1_655 S
O390   N249    1.346   1_655 S
C391   O445    1.300   .     A
C391   O448    1.297   .     A
C391   C393    1.426   .     S
C392   C400    1.407   .     A
C392   C394    1.476   .     S
C392   C410    1.418   .     A
C393   C5      1.329   1_565 S
C393   H52     1.087   1_565 S
C394   O450    1.306   .     A
C394   O449    1.314   .     A
C395   C396    1.427   .     S
C396   O452    1.301   .     A
C396   O451    1.296   .     A
C397   O453    1.304   .     A
C397   O454    1.310   .     A
C397   C399    1.465   .     S
C398   C416    1.401   .     A
C398   C412    1.395   .     A
C398   H438    1.083   .     S
C399   C415    1.392   .     A
C399   C416    1.401   .     A
C400   C401    1.406   .     A
C400   H440    1.083   .     S
C401   C988    1.403   .     S
C401   O1162   1.382   1_455 S
C402   C410    1.406   .     A
C402   C988    1.414   .     S
C402   C996    1.404   .     S
C403   O446    1.393   .     S
C403   C986    1.403   1_554 S
C403   C987    1.414   1_554 S
C404   H421    1.106   .     S
C404   H420    1.109   .     S
C404   C535    1.521   1_455 S
C404   O585    1.406   1_455 S
C405   H422    1.110   .     S
C405   H424    1.110   .     S
C405   H423    1.110   .     S
C405   C469    1.521   .     S
C406   O446    1.428   .     S
C406   H426    1.105   .     S
C406   H425    1.098   .     S
C406   C407    1.524   .     S
C407   H427    1.105   .     S
C407   H428    1.111   .     S
C407   H429    1.107   .     S
C408   O447    1.414   .     S
C408   C409    1.521   .     S
C408   H431    1.114   .     S
C408   H1017   1.113   1_554 S
C409   H434    1.110   .     S
C409   H433    1.111   .     S
C409   H435    1.110   .     S
C410   C414    1.417   .     A
C411   C415    1.402   .     A
C411   C412    1.406   .     A
C411   C987    1.404   1_554 S
C412   C998    1.398   1_554 S
C413   C414    1.397   .     A
C413   H437    1.084   .     S
C413   C997    1.398   .     S
C414   H441    1.080   .     S
C415   H439    1.084   .     S
C416   H419    1.078   .     S
Cu417  N444    2.045   .     S
Cu417  O453    1.915   .     S
Cu417  O445    1.949   .     S
Cu417  Cu418   2.721   .     S
Cu417  O449    1.926   .     S
Cu417  O451    1.945   .     S
Cu418  N443    2.045   .     S
Cu418  O448    1.945   .     S
Cu418  O454    1.926   .     S
Cu418  O450    1.915   .     S
Cu418  O452    1.949   .     S
H430   C5      1.088   1_565 S
H432   C993    1.113   .     S
H436   N573    1.029   1_455 S
N443   H501    1.029   .     S
N443   N509    1.289   .     S
N444   N573    1.289   1_455 S
N444   O585    1.346   1_455 S
O447   C1051   1.382   1_554 S
O455   C469    1.406   .     S
O455   N509    1.346   .     S
C456   O510    1.300   .     A
C456   O513    1.297   .     A
C456   C458    1.426   .     S
C457   C465    1.407   .     A
C457   C459    1.476   .     S
C457   C475    1.418   .     A
C458   C70     1.329   1_565 S
C458   H117    1.087   1_565 S
C459   O515    1.306   .     A
C459   O514    1.314   .     A
C460   C461    1.427   .     S
C461   O517    1.301   .     A
C461   O516    1.296   .     A
C462   O518    1.304   .     A
C462   O519    1.310   .     A
C462   C464    1.465   .     S
C463   C481    1.401   .     A
C463   C477    1.395   .     A
C463   H503    1.083   .     S
C464   C480    1.392   .     A
C464   C481    1.401   .     A
C465   C466    1.406   .     A
C465   H505    1.083   .     S
C466   C1053   1.403   .     S
C466   O1032   1.382   .     S
C467   C475    1.406   .     A
C467   C1053   1.414   .     S
C467   C1061   1.404   .     S
C468   O511    1.393   .     S
C468   C1051   1.403   1_554 S
C468   C1052   1.414   1_554 S
C469   H486    1.106   .     S
C469   H485    1.109   .     S
C470   H487    1.110   .     S
C470   H489    1.110   .     S
C470   H488    1.110   .     S
C470   C534    1.521   .     S
C471   O511    1.428   .     S
C471   H491    1.105   .     S
C471   H490    1.098   .     S
C471   C472    1.524   .     S
C472   H492    1.105   .     S
C472   H493    1.111   .     S
C472   H494    1.107   .     S
C473   O512    1.414   .     S
C473   C474    1.521   .     S
C473   H496    1.114   .     S
C473   H1082   1.113   1_554 S
C474   H499    1.110   .     S
C474   H498    1.111   .     S
C474   H500    1.110   .     S
C475   C479    1.417   .     A
C476   C480    1.402   .     A
C476   C477    1.406   .     A
C476   C1052   1.404   1_554 S
C477   C1063   1.398   1_554 S
C478   C479    1.397   .     A
C478   H502    1.084   .     S
C478   C1062   1.398   .     S
C479   H506    1.080   .     S
C480   H504    1.084   .     S
C481   H484    1.078   .     S
Cu482  N509    2.045   .     S
Cu482  O518    1.915   .     S
Cu482  O510    1.949   .     S
Cu482  Cu483   2.721   .     S
Cu482  O514    1.926   .     S
Cu482  O516    1.945   .     S
Cu483  N508    2.045   .     S
Cu483  O513    1.945   .     S
Cu483  O519    1.926   .     S
Cu483  O515    1.915   .     S
Cu483  O517    1.949   .     S
H495   C70     1.088   1_565 S
H497   C1058   1.113   .     S
N508   H566    1.029   .     S
N508   N574    1.289   .     S
O512   C1116   1.382   1_554 S
O520   C534    1.406   .     S
O520   N574    1.346   .     S
C521   O575    1.300   .     A
C521   O578    1.297   .     A
C521   C523    1.426   .     S
C522   C530    1.407   .     A
C522   C524    1.476   .     S
C522   C540    1.418   .     A
C523   C135    1.329   1_565 S
C523   H182    1.087   1_565 S
C524   O580    1.306   .     A
C524   O579    1.314   .     A
C525   C526    1.427   .     S
C526   O582    1.301   .     A
C526   O581    1.296   .     A
C527   O583    1.304   .     A
C527   O584    1.310   .     A
C527   C529    1.465   .     S
C528   C546    1.401   .     A
C528   C542    1.395   .     A
C528   H568    1.083   .     S
C529   C545    1.392   .     A
C529   C546    1.401   .     A
C530   C531    1.406   .     A
C530   H570    1.083   .     S
C531   C1118   1.403   .     S
C531   O1097   1.382   .     S
C532   C540    1.406   .     A
C532   C1118   1.414   .     S
C532   C1126   1.404   .     S
C533   O576    1.393   .     S
C533   C1116   1.403   1_554 S
C533   C1117   1.414   1_554 S
C534   H551    1.106   .     S
C534   H550    1.109   .     S
C535   H552    1.110   .     S
C535   H554    1.110   .     S
C535   H553    1.110   .     S
C535   C404    1.521   1_655 S
C536   O576    1.428   .     S
C536   H556    1.105   .     S
C536   H555    1.098   .     S
C536   C537    1.524   .     S
C537   H557    1.105   .     S
C537   H558    1.111   .     S
C537   H559    1.107   .     S
C538   O577    1.414   .     S
C538   C539    1.521   .     S
C538   H561    1.114   .     S
C538   H1147   1.113   1_554 S
C539   H564    1.110   .     S
C539   H563    1.111   .     S
C539   H565    1.110   .     S
C540   C544    1.417   .     A
C541   C545    1.402   .     A
C541   C542    1.406   .     A
C541   C1117   1.404   1_554 S
C542   C1128   1.398   1_554 S
C543   C544    1.397   .     A
C543   H567    1.084   .     S
C543   C1127   1.398   .     S
C544   H571    1.080   .     S
C545   H569    1.084   .     S
C546   H549    1.078   .     S
Cu547  N574    2.045   .     S
Cu547  O583    1.915   .     S
Cu547  O575    1.949   .     S
Cu547  Cu548   2.721   .     S
Cu547  O579    1.926   .     S
Cu547  O581    1.945   .     S
Cu548  N573    2.045   .     S
Cu548  O578    1.945   .     S
Cu548  O584    1.926   .     S
Cu548  O580    1.915   .     S
Cu548  O582    1.949   .     S
H560   C135    1.088   1_565 S
H562   C1123   1.113   .     S
N573   H436    1.029   1_655 S
N573   N444    1.289   1_655 S
O577   C986    1.382   1_654 S
O585   C404    1.406   1_655 S
O585   N444    1.346   1_655 S
C586   O640    1.300   .     A
C586   O643    1.297   .     A
C586   C588    1.426   .     S
C587   C595    1.407   .     A
C587   C589    1.476   .     S
C587   C605    1.418   .     A
C588   C785    1.329   .     S
C588   H832    1.087   .     S
C589   O645    1.306   .     A
C589   O644    1.314   .     A
C590   C591    1.427   .     S
C590   C978    1.329   1_545 S
C590   H1015   1.088   1_545 S
C591   O647    1.301   .     A
C591   O646    1.296   .     A
C592   O648    1.304   .     A
C592   O649    1.310   .     A
C592   C594    1.465   .     S
C593   C611    1.401   .     A
C593   C607    1.395   .     A
C593   H633    1.083   .     S
C594   C610    1.392   .     A
C594   C611    1.401   .     A
C595   C596    1.406   .     A
C595   H635    1.083   .     S
C596   C13     1.403   1_556 S
C596   O187    1.382   1_456 S
C597   C605    1.406   .     A
C597   C13     1.414   1_556 S
C597   C21     1.404   1_556 S
C598   O641    1.393   .     S
C599   H616    1.106   .     S
C599   H615    1.109   .     S
C599   C730    1.521   1_455 S
C599   O780    1.406   1_455 S
C600   H617    1.110   .     S
C600   H619    1.110   .     S
C600   H618    1.110   .     S
C600   C664    1.521   .     S
C601   O641    1.428   .     S
C601   H621    1.105   .     S
C601   H620    1.098   .     S
C601   C602    1.524   .     S
C602   H622    1.105   .     S
C602   H623    1.111   .     S
C602   H624    1.107   .     S
C603   O642    1.414   .     S
C603   C604    1.521   .     S
C603   H626    1.114   .     S
C604   H629    1.110   .     S
C604   H628    1.111   .     S
C604   H630    1.110   .     S
C605   C609    1.417   .     A
C606   C610    1.402   .     A
C606   C607    1.406   .     A
C608   C609    1.397   .     A
C608   H632    1.084   .     S
C608   C22     1.398   1_556 S
C609   H636    1.080   .     S
C610   H634    1.084   .     S
C611   H614    1.078   .     S
Cu612  N639    2.045   .     S
Cu612  O648    1.915   .     S
Cu612  O640    1.949   .     S
Cu612  Cu613   2.721   .     S
Cu612  O644    1.926   .     S
Cu612  O646    1.945   .     S
Cu613  N638    2.045   .     S
Cu613  O643    1.945   .     S
Cu613  O649    1.926   .     S
Cu613  O645    1.915   .     S
Cu613  O647    1.949   .     S
H625   C785    1.088   .     S
H627   C18     1.113   1_556 S
H631   N768    1.029   1_455 S
H637   C978    1.087   1_545 S
N638   H696    1.029   .     S
N638   N704    1.289   .     S
N639   N768    1.289   1_455 S
N639   O780    1.346   1_455 S
O650   C664    1.406   .     S
O650   N704    1.346   .     S
C651   O705    1.300   .     A
C651   O708    1.297   .     A
C651   C653    1.426   .     S
C652   C660    1.407   .     A
C652   C654    1.476   .     S
C652   C670    1.418   .     A
C653   C850    1.329   .     S
C653   H897    1.087   .     S
C654   O710    1.306   .     A
C654   O709    1.314   .     A
C655   C656    1.427   .     S
C655   C1043   1.329   1_545 S
C655   H1080   1.088   1_545 S
C656   O712    1.301   .     A
C656   O711    1.296   .     A
C657   O713    1.304   .     A
C657   O714    1.310   .     A
C657   C659    1.465   .     S
C658   C676    1.401   .     A
C658   C672    1.395   .     A
C658   H698    1.083   .     S
C659   C675    1.392   .     A
C659   C676    1.401   .     A
C660   C661    1.406   .     A
C660   H700    1.083   .     S
C661   C78     1.403   1_556 S
C661   O57     1.382   1_556 S
C662   C670    1.406   .     A
C662   C78     1.414   1_556 S
C662   C86     1.404   1_556 S
C663   O706    1.393   .     S
C664   H681    1.106   .     S
C664   H680    1.109   .     S
C665   H682    1.110   .     S
C665   H684    1.110   .     S
C665   H683    1.110   .     S
C665   C729    1.521   .     S
C666   O706    1.428   .     S
C666   H686    1.105   .     S
C666   H685    1.098   .     S
C666   C667    1.524   .     S
C667   H687    1.105   .     S
C667   H688    1.111   .     S
C667   H689    1.107   .     S
C668   O707    1.414   .     S
C668   C669    1.521   .     S
C668   H691    1.114   .     S
C669   H694    1.110   .     S
C669   H693    1.111   .     S
C669   H695    1.110   .     S
C670   C674    1.417   .     A
C671   C675    1.402   .     A
C671   C672    1.406   .     A
C673   C674    1.397   .     A
C673   H697    1.084   .     S
C673   C87     1.398   1_556 S
C674   H701    1.080   .     S
C675   H699    1.084   .     S
C676   H679    1.078   .     S
Cu677  N704    2.045   .     S
Cu677  O713    1.915   .     S
Cu677  O705    1.949   .     S
Cu677  Cu678   2.721   .     S
Cu677  O709    1.926   .     S
Cu677  O711    1.945   .     S
Cu678  N703    2.045   .     S
Cu678  O708    1.945   .     S
Cu678  O714    1.926   .     S
Cu678  O710    1.915   .     S
Cu678  O712    1.949   .     S
H690   C850    1.088   .     S
H692   C83     1.113   1_556 S
H702   C1043   1.087   1_545 S
N703   H761    1.029   .     S
N703   N769    1.289   .     S
O715   C729    1.406   .     S
O715   N769    1.346   .     S
C716   O770    1.300   .     A
C716   O773    1.297   .     A
C716   C718    1.426   .     S
C717   C725    1.407   .     A
C717   C719    1.476   .     S
C717   C735    1.418   .     A
C718   C915    1.329   .     S
C718   H962    1.087   .     S
C719   O775    1.306   .     A
C719   O774    1.314   .     A
C720   C721    1.427   .     S
C720   C1108   1.329   1_545 S
C720   H1145   1.088   1_545 S
C721   O777    1.301   .     A
C721   O776    1.296   .     A
C722   O778    1.304   .     A
C722   O779    1.310   .     A
C722   C724    1.465   .     S
C723   C741    1.401   .     A
C723   C737    1.395   .     A
C723   H763    1.083   .     S
C724   C740    1.392   .     A
C724   C741    1.401   .     A
C725   C726    1.406   .     A
C725   H765    1.083   .     S
C726   C143    1.403   1_556 S
C726   O122    1.382   1_556 S
C727   C735    1.406   .     A
C727   C143    1.414   1_556 S
C727   C151    1.404   1_556 S
C728   O771    1.393   .     S
C729   H746    1.106   .     S
C729   H745    1.109   .     S
C730   H747    1.110   .     S
C730   H749    1.110   .     S
C730   H748    1.110   .     S
C730   C599    1.521   1_655 S
C731   O771    1.428   .     S
C731   H751    1.105   .     S
C731   H750    1.098   .     S
C731   C732    1.524   .     S
C732   H752    1.105   .     S
C732   H753    1.111   .     S
C732   H754    1.107   .     S
C733   O772    1.414   .     S
C733   C734    1.521   .     S
C733   H756    1.114   .     S
C734   H759    1.110   .     S
C734   H758    1.111   .     S
C734   H760    1.110   .     S
C735   C739    1.417   .     A
C736   C740    1.402   .     A
C736   C737    1.406   .     A
C738   C739    1.397   .     A
C738   H762    1.084   .     S
C738   C152    1.398   1_556 S
C739   H766    1.080   .     S
C740   H764    1.084   .     S
C741   H744    1.078   .     S
Cu742  N769    2.045   .     S
Cu742  O778    1.915   .     S
Cu742  O770    1.949   .     S
Cu742  Cu743   2.721   .     S
Cu742  O774    1.926   .     S
Cu742  O776    1.945   .     S
Cu743  N768    2.045   .     S
Cu743  O773    1.945   .     S
Cu743  O779    1.926   .     S
Cu743  O775    1.915   .     S
Cu743  O777    1.949   .     S
H755   C915    1.088   .     S
H757   C148    1.113   1_556 S
H767   C1108   1.087   1_545 S
N768   H631    1.029   1_655 S
N768   N639    1.289   1_655 S
O772   C11     1.382   1_655 S
O780   C599    1.406   1_655 S
O780   N639    1.346   1_655 S
C781   O835    1.300   .     A
C781   O838    1.297   .     A
C781   C783    1.426   .     S
C782   C790    1.407   .     A
C782   C784    1.476   .     S
C782   C800    1.418   .     A
C783   C980    1.329   .     S
C783   H1027   1.087   .     S
C784   O840    1.306   .     A
C784   O839    1.314   .     A
C785   C786    1.427   .     S
C786   O842    1.301   .     A
C786   O841    1.296   .     A
C787   O843    1.304   .     A
C787   O844    1.310   .     A
C787   C789    1.465   .     S
C788   C806    1.401   .     A
C788   C802    1.395   .     A
C788   H828    1.083   .     S
C789   C805    1.392   .     A
C789   C806    1.401   .     A
C790   C791    1.406   .     A
C790   H830    1.083   .     S
C791   C208    1.403   1_556 S
C791   O382    1.382   1_456 S
C792   C800    1.406   .     A
C792   C208    1.414   1_556 S
C792   C216    1.404   1_556 S
C793   O836    1.393   .     S
C794   H811    1.106   .     S
C794   H810    1.109   .     S
C794   C925    1.521   1_455 S
C794   O975    1.406   1_455 S
C795   H812    1.110   .     S
C795   H814    1.110   .     S
C795   H813    1.110   .     S
C795   C859    1.521   .     S
C796   O836    1.428   .     S
C796   H816    1.105   .     S
C796   H815    1.098   .     S
C796   C797    1.524   .     S
C797   H817    1.105   .     S
C797   H818    1.111   .     S
C797   H819    1.107   .     S
C798   O837    1.414   .     S
C798   C799    1.521   .     S
C798   H821    1.114   .     S
C799   H824    1.110   .     S
C799   H823    1.111   .     S
C799   H825    1.110   .     S
C800   C804    1.417   .     A
C801   C805    1.402   .     A
C801   C802    1.406   .     A
C803   C804    1.397   .     A
C803   H827    1.084   .     S
C803   C217    1.398   1_556 S
C804   H831    1.080   .     S
C805   H829    1.084   .     S
C806   H809    1.078   .     S
Cu807  N834    2.045   .     S
Cu807  O843    1.915   .     S
Cu807  O835    1.949   .     S
Cu807  Cu808   2.721   .     S
Cu807  O839    1.926   .     S
Cu807  O841    1.945   .     S
Cu808  N833    2.045   .     S
Cu808  O838    1.945   .     S
Cu808  O844    1.926   .     S
Cu808  O840    1.915   .     S
Cu808  O842    1.949   .     S
H820   C980    1.088   .     S
H822   C213    1.113   1_556 S
H826   N963    1.029   1_455 S
N833   H891    1.029   .     S
N833   N899    1.289   .     S
N834   N963    1.289   1_455 S
N834   O975    1.346   1_455 S
O845   C859    1.406   .     S
O845   N899    1.346   .     S
C846   O900    1.300   .     A
C846   O903    1.297   .     A
C846   C848    1.426   .     S
C847   C855    1.407   .     A
C847   C849    1.476   .     S
C847   C865    1.418   .     A
C848   C1045   1.329   .     S
C848   H1092   1.087   .     S
C849   O905    1.306   .     A
C849   O904    1.314   .     A
C850   C851    1.427   .     S
C851   O907    1.301   .     A
C851   O906    1.296   .     A
C852   O908    1.304   .     A
C852   O909    1.310   .     A
C852   C854    1.465   .     S
C853   C871    1.401   .     A
C853   C867    1.395   .     A
C853   H893    1.083   .     S
C854   C870    1.392   .     A
C854   C871    1.401   .     A
C855   C856    1.406   .     A
C855   H895    1.083   .     S
C856   C273    1.403   1_556 S
C856   O252    1.382   1_556 S
C857   C865    1.406   .     A
C857   C273    1.414   1_556 S
C857   C281    1.404   1_556 S
C858   O901    1.393   .     S
C859   H876    1.106   .     S
C859   H875    1.109   .     S
C860   H877    1.110   .     S
C860   H879    1.110   .     S
C860   H878    1.110   .     S
C860   C924    1.521   .     S
C861   O901    1.428   .     S
C861   H881    1.105   .     S
C861   H880    1.098   .     S
C861   C862    1.524   .     S
C862   H882    1.105   .     S
C862   H883    1.111   .     S
C862   H884    1.107   .     S
C863   O902    1.414   .     S
C863   C864    1.521   .     S
C863   H886    1.114   .     S
C864   H889    1.110   .     S
C864   H888    1.111   .     S
C864   H890    1.110   .     S
C865   C869    1.417   .     A
C866   C870    1.402   .     A
C866   C867    1.406   .     A
C868   C869    1.397   .     A
C868   H892    1.084   .     S
C868   C282    1.398   1_556 S
C869   H896    1.080   .     S
C870   H894    1.084   .     S
C871   H874    1.078   .     S
Cu872  N899    2.045   .     S
Cu872  O908    1.915   .     S
Cu872  O900    1.949   .     S
Cu872  Cu873   2.721   .     S
Cu872  O904    1.926   .     S
Cu872  O906    1.945   .     S
Cu873  N898    2.045   .     S
Cu873  O903    1.945   .     S
Cu873  O909    1.926   .     S
Cu873  O905    1.915   .     S
Cu873  O907    1.949   .     S
H885   C1045   1.088   .     S
H887   C278    1.113   1_556 S
N898   H956    1.029   .     S
N898   N964    1.289   .     S
O910   C924    1.406   .     S
O910   N964    1.346   .     S
C911   O965    1.300   .     A
C911   O968    1.297   .     A
C911   C913    1.426   .     S
C912   C920    1.407   .     A
C912   C914    1.476   .     S
C912   C930    1.418   .     A
C913   C1110   1.329   .     S
C913   H1157   1.087   .     S
C914   O970    1.306   .     A
C914   O969    1.314   .     A
C915   C916    1.427   .     S
C916   O972    1.301   .     A
C916   O971    1.296   .     A
C917   O973    1.304   .     A
C917   O974    1.310   .     A
C917   C919    1.465   .     S
C918   C936    1.401   .     A
C918   C932    1.395   .     A
C918   H958    1.083   .     S
C919   C935    1.392   .     A
C919   C936    1.401   .     A
C920   C921    1.406   .     A
C920   H960    1.083   .     S
C921   C338    1.403   1_556 S
C921   O317    1.382   1_556 S
C922   C930    1.406   .     A
C922   C338    1.414   1_556 S
C922   C346    1.404   1_556 S
C923   O966    1.393   .     S
C924   H941    1.106   .     S
C924   H940    1.109   .     S
C925   H942    1.110   .     S
C925   H944    1.110   .     S
C925   H943    1.110   .     S
C925   C794    1.521   1_655 S
C926   O966    1.428   .     S
C926   H946    1.105   .     S
C926   H945    1.098   .     S
C926   C927    1.524   .     S
C927   H947    1.105   .     S
C927   H948    1.111   .     S
C927   H949    1.107   .     S
C928   O967    1.414   .     S
C928   C929    1.521   .     S
C928   H951    1.114   .     S
C929   H954    1.110   .     S
C929   H953    1.111   .     S
C929   H955    1.110   .     S
C930   C934    1.417   .     A
C931   C935    1.402   .     A
C931   C932    1.406   .     A
C933   C934    1.397   .     A
C933   H957    1.084   .     S
C933   C347    1.398   1_556 S
C934   H961    1.080   .     S
C935   H959    1.084   .     S
C936   H939    1.078   .     S
Cu937  N964    2.045   .     S
Cu937  O973    1.915   .     S
Cu937  O965    1.949   .     S
Cu937  Cu938   2.721   .     S
Cu937  O969    1.926   .     S
Cu937  O971    1.945   .     S
Cu938  N963    2.045   .     S
Cu938  O968    1.945   .     S
Cu938  O974    1.926   .     S
Cu938  O970    1.915   .     S
Cu938  O972    1.949   .     S
H950   C1110   1.088   .     S
H952   C343    1.113   1_556 S
N963   H826    1.029   1_655 S
N963   N834    1.289   1_655 S
O967   C206    1.382   1_655 S
O975   C794    1.406   1_655 S
O975   N834    1.346   1_655 S
C976   O1030   1.300   .     A
C976   O1033   1.297   .     A
C976   C978    1.426   .     S
C977   C985    1.407   .     A
C977   C979    1.476   .     S
C977   C995    1.418   .     A
C978   C590    1.329   1_565 S
C978   H637    1.087   1_565 S
C979   O1035   1.306   .     A
C979   O1034   1.314   .     A
C980   C981    1.427   .     S
C981   O1037   1.301   .     A
C981   O1036   1.296   .     A
C982   O1038   1.304   .     A
C982   O1039   1.310   .     A
C982   C984    1.465   .     S
C983   C1001   1.401   .     A
C983   C997    1.395   .     A
C983   H1023   1.083   .     S
C984   C1000   1.392   .     A
C984   C1001   1.401   .     A
C985   C986    1.406   .     A
C985   H1025   1.083   .     S
C986   C403    1.403   1_556 S
C986   O577    1.382   1_456 S
C987   C995    1.406   .     A
C987   C403    1.414   1_556 S
C987   C411    1.404   1_556 S
C988   O1031   1.393   .     S
C989   H1006   1.106   .     S
C989   H1005   1.109   .     S
C989   C1120   1.521   1_455 S
C989   O1170   1.406   1_455 S
C990   H1007   1.110   .     S
C990   H1009   1.110   .     S
C990   H1008   1.110   .     S
C990   C1054   1.521   .     S
C991   O1031   1.428   .     S
C991   H1011   1.105   .     S
C991   H1010   1.098   .     S
C991   C992    1.524   .     S
C992   H1012   1.105   .     S
C992   H1013   1.111   .     S
C992   H1014   1.107   .     S
C993   O1032   1.414   .     S
C993   C994    1.521   .     S
C993   H1016   1.114   .     S
C994   H1019   1.110   .     S
C994   H1018   1.111   .     S
C994   H1020   1.110   .     S
C995   C999    1.417   .     A
C996   C1000   1.402   .     A
C996   C997    1.406   .     A
C998   C999    1.397   .     A
C998   H1022   1.084   .     S
C998   C412    1.398   1_556 S
C999   H1026   1.080   .     S
C1000  H1024   1.084   .     S
C1001  H1004   1.078   .     S
Cu1002 N1029   2.045   .     S
Cu1002 O1038   1.915   .     S
Cu1002 O1030   1.949   .     S
Cu1002 Cu1003  2.721   .     S
Cu1002 O1034   1.926   .     S
Cu1002 O1036   1.945   .     S
Cu1003 N1028   2.045   .     S
Cu1003 O1033   1.945   .     S
Cu1003 O1039   1.926   .     S
Cu1003 O1035   1.915   .     S
Cu1003 O1037   1.949   .     S
H1015  C590    1.088   1_565 S
H1017  C408    1.113   1_556 S
H1021  N1158   1.029   1_455 S
N1028  H1086   1.029   .     S
N1028  N1094   1.289   .     S
N1029  N1158   1.289   1_455 S
N1029  O1170   1.346   1_455 S
O1040  C1054   1.406   .     S
O1040  N1094   1.346   .     S
C1041  O1095   1.300   .     A
C1041  O1098   1.297   .     A
C1041  C1043   1.426   .     S
C1042  C1050   1.407   .     A
C1042  C1044   1.476   .     S
C1042  C1060   1.418   .     A
C1043  C655    1.329   1_565 S
C1043  H702    1.087   1_565 S
C1044  O1100   1.306   .     A
C1044  O1099   1.314   .     A
C1045  C1046   1.427   .     S
C1046  O1102   1.301   .     A
C1046  O1101   1.296   .     A
C1047  O1103   1.304   .     A
C1047  O1104   1.310   .     A
C1047  C1049   1.465   .     S
C1048  C1066   1.401   .     A
C1048  C1062   1.395   .     A
C1048  H1088   1.083   .     S
C1049  C1065   1.392   .     A
C1049  C1066   1.401   .     A
C1050  C1051   1.406   .     A
C1050  H1090   1.083   .     S
C1051  C468    1.403   1_556 S
C1051  O447    1.382   1_556 S
C1052  C1060   1.406   .     A
C1052  C468    1.414   1_556 S
C1052  C476    1.404   1_556 S
C1053  O1096   1.393   .     S
C1054  H1071   1.106   .     S
C1054  H1070   1.109   .     S
C1055  H1072   1.110   .     S
C1055  H1074   1.110   .     S
C1055  H1073   1.110   .     S
C1055  C1119   1.521   .     S
C1056  O1096   1.428   .     S
C1056  H1076   1.105   .     S
C1056  H1075   1.098   .     S
C1056  C1057   1.524   .     S
C1057  H1077   1.105   .     S
C1057  H1078   1.111   .     S
C1057  H1079   1.107   .     S
C1058  O1097   1.414   .     S
C1058  C1059   1.521   .     S
C1058  H1081   1.114   .     S
C1059  H1084   1.110   .     S
C1059  H1083   1.111   .     S
C1059  H1085   1.110   .     S
C1060  C1064   1.417   .     A
C1061  C1065   1.402   .     A
C1061  C1062   1.406   .     A
C1063  C1064   1.397   .     A
C1063  H1087   1.084   .     S
C1063  C477    1.398   1_556 S
C1064  H1091   1.080   .     S
C1065  H1089   1.084   .     S
C1066  H1069   1.078   .     S
Cu1067 N1094   2.045   .     S
Cu1067 O1103   1.915   .     S
Cu1067 O1095   1.949   .     S
Cu1067 Cu1068  2.721   .     S
Cu1067 O1099   1.926   .     S
Cu1067 O1101   1.945   .     S
Cu1068 N1093   2.045   .     S
Cu1068 O1098   1.945   .     S
Cu1068 O1104   1.926   .     S
Cu1068 O1100   1.915   .     S
Cu1068 O1102   1.949   .     S
H1080  C655    1.088   1_565 S
H1082  C473    1.113   1_556 S
N1093  H1151   1.029   .     S
N1093  N1159   1.289   .     S
O1105  C1119   1.406   .     S
O1105  N1159   1.346   .     S
C1106  O1160   1.300   .     A
C1106  O1163   1.297   .     A
C1106  C1108   1.426   .     S
C1107  C1115   1.407   .     A
C1107  C1109   1.476   .     S
C1107  C1125   1.418   .     A
C1108  C720    1.329   1_565 S
C1108  H767    1.087   1_565 S
C1109  O1165   1.306   .     A
C1109  O1164   1.314   .     A
C1110  C1111   1.427   .     S
C1111  O1167   1.301   .     A
C1111  O1166   1.296   .     A
C1112  O1168   1.304   .     A
C1112  O1169   1.310   .     A
C1112  C1114   1.465   .     S
C1113  C1131   1.401   .     A
C1113  C1127   1.395   .     A
C1113  H1153   1.083   .     S
C1114  C1130   1.392   .     A
C1114  C1131   1.401   .     A
C1115  C1116   1.406   .     A
C1115  H1155   1.083   .     S
C1116  C533    1.403   1_556 S
C1116  O512    1.382   1_556 S
C1117  C1125   1.406   .     A
C1117  C533    1.414   1_556 S
C1117  C541    1.404   1_556 S
C1118  O1161   1.393   .     S
C1119  H1136   1.106   .     S
C1119  H1135   1.109   .     S
C1120  H1137   1.110   .     S
C1120  H1139   1.110   .     S
C1120  H1138   1.110   .     S
C1120  C989    1.521   1_655 S
C1121  O1161   1.428   .     S
C1121  H1141   1.105   .     S
C1121  H1140   1.098   .     S
C1121  C1122   1.524   .     S
C1122  H1142   1.105   .     S
C1122  H1143   1.111   .     S
C1122  H1144   1.107   .     S
C1123  O1162   1.414   .     S
C1123  C1124   1.521   .     S
C1123  H1146   1.114   .     S
C1124  H1149   1.110   .     S
C1124  H1148   1.111   .     S
C1124  H1150   1.110   .     S
C1125  C1129   1.417   .     A
C1126  C1130   1.402   .     A
C1126  C1127   1.406   .     A
C1128  C1129   1.397   .     A
C1128  H1152   1.084   .     S
C1128  C542    1.398   1_556 S
C1129  H1156   1.080   .     S
C1130  H1154   1.084   .     S
C1131  H1134   1.078   .     S
Cu1132 N1159   2.045   .     S
Cu1132 O1168   1.915   .     S
Cu1132 O1160   1.949   .     S
Cu1132 Cu1133  2.721   .     S
Cu1132 O1164   1.926   .     S
Cu1132 O1166   1.945   .     S
Cu1133 N1158   2.045   .     S
Cu1133 O1163   1.945   .     S
Cu1133 O1169   1.926   .     S
Cu1133 O1165   1.915   .     S
Cu1133 O1167   1.949   .     S
H1145  C720    1.088   1_565 S
H1147  C538    1.113   1_556 S
N1158  H1021   1.029   1_655 S
N1158  N1029   1.289   1_655 S
O1162  C401    1.382   1_655 S
O1170  C989    1.406   1_655 S
O1170  N1029   1.346   1_655 S
