data_str_m2_o10_o16_pcu_sym.129
_audit_creation_date              2020-01-03
_audit_creation_method            'Materials Studio'
_symmetry_space_group_name_H-M    'P1'
_symmetry_Int_Tables_number       1
_symmetry_cell_setting            triclinic
loop_
_symmetry_equiv_pos_as_xyz
  x,y,z
_cell_length_a                    22.4604
_cell_length_b                    26.0061
_cell_length_c                    26.8822
_cell_angle_alpha                 93.8176
_cell_angle_beta                  79.3577
_cell_angle_gamma                 102.9972
loop_
_atom_site_label
_atom_site_type_symbol
_atom_site_fract_x
_atom_site_fract_y
_atom_site_fract_z
_atom_site_U_iso_or_equiv
_atom_site_adp_type
_atom_site_occupancy
C1     C     0.18179   0.26668   0.25134   0.00000  Uiso   1.00
C2     C     0.14786   0.16536   0.48413   0.00000  Uiso   1.00
C3     C     0.15396   0.14756   0.43312   0.00000  Uiso   1.00
C4     C     0.18559   0.15194   0.01515   0.00000  Uiso   1.00
C5     C     0.24074   0.13676   0.49329   0.00000  Uiso   1.00
C6     C     0.24629   0.11667   0.44352   0.00000  Uiso   1.00
C7     C     0.19881   0.11612   0.41558   0.00000  Uiso   1.00
C8     C     0.16862   0.15037   0.06757   0.00000  Uiso   1.00
C9     C     0.27706   0.16107   0.07296   0.00000  Uiso   1.00
C10    C     0.11761   0.16435   0.40159   0.00000  Uiso   1.00
C11    C     0.19039   0.32267   0.25171   0.00000  Uiso   1.00
C12    C     0.13393   0.16182   0.34653   0.00000  Uiso   1.00
C13    C     0.14358   0.01066   0.24648   0.00000  Uiso   1.00
C14    C     0.15183   0.06667   0.24784   0.00000  Uiso   1.00
C15    C     0.19907   0.16737   0.15303   0.00000  Uiso   1.00
C16    C     0.28712   0.14093   0.02288   0.00000  Uiso   1.00
C17    C     0.21566   0.16083   0.09738   0.00000  Uiso   1.00
C18    C     0.07643   0.19694   0.42164   0.00000  Uiso   1.00
C19    C     0.07468   0.21700   0.47085   0.00000  Uiso   1.00
C20    C     0.11018   0.20149   0.00183   0.00000  Uiso   1.00
Cu21   Cu    0.10710   0.16105   0.24436   0.00000  Uiso   1.00
Cu22   Cu    0.22623   0.17228   0.25565   0.00000  Uiso   1.00
H23    H     0.09844   0.32022   0.24166   0.00000  Uiso   1.00
H24    H     0.00404   0.20638   0.28946   0.00000  Uiso   1.00
H25    H     0.32926   0.12688   0.21061   0.00000  Uiso   1.00
H26    H     0.28468   0.09825   0.42790   0.00000  Uiso   1.00
H27    H     0.33097   0.13105   0.00661   0.00000  Uiso   1.00
H28    H     0.04994   0.21114   0.39773   0.00000  Uiso   1.00
H29    H     0.11099   0.22011   0.03884   0.00000  Uiso   1.00
H30    H     0.04607   0.24504   0.48495   0.00000  Uiso   1.00
H31    H     0.23549   0.01312   0.25664   0.00000  Uiso   1.00
N32    N     0.31574   0.18074   0.26416   0.00000  Uiso   1.00
N33    N     0.01759   0.15259   0.23584   0.00000  Uiso   1.00
O34    O     0.12797   0.23807   0.24633   0.00000  Uiso   1.00
O35    O     0.22858   0.24755   0.25587   0.00000  Uiso   1.00
O36    O     0.09181   0.15960   0.31840   0.00000  Uiso   1.00
O37    O     0.19242   0.16908   0.32793   0.00000  Uiso   1.00
O38    O     0.10476   0.08578   0.24414   0.00000  Uiso   1.00
O39    O     0.20536   0.09526   0.25367   0.00000  Uiso   1.00
O40    O     0.14092   0.16425   0.17207   0.00000  Uiso   1.00
O41    O     0.24152   0.17373   0.18161   0.00000  Uiso   1.00
C42    C     0.32857   0.18347   0.09829   0.00000  Uiso   1.00
N43    N     0.03503   0.20269   0.11995   0.00000  Uiso   1.00
C44    C     0.10739   0.11944   0.08684   0.00000  Uiso   1.00
N45    N     0.05915   0.09348   0.10197   0.00000  Uiso   1.00
N46    N     0.19430   0.08152   0.37245   0.00000  Uiso   1.00
H47    H     0.23514   0.07104   0.35547   0.00000  Uiso   1.00
C48    C     0.14094   0.03751   0.37826   0.00000  Uiso   1.00
H49    H     0.15608   0.33308   0.36804   0.00000  Uiso   1.00
H50    H     0.10905   0.04235   0.35284   0.00000  Uiso   1.00
H51    H     0.11478   0.03474   0.41776   0.00000  Uiso   1.00
C52    C     0.51513   0.26668   0.25134   0.00000  Uiso   1.00
C53    C     0.48119   0.16536   0.48413   0.00000  Uiso   1.00
C54    C     0.48729   0.14756   0.43312   0.00000  Uiso   1.00
C55    C     0.51892   0.15194   0.01515   0.00000  Uiso   1.00
C56    C     0.57407   0.13676   0.49329   0.00000  Uiso   1.00
C57    C     0.57962   0.11667   0.44352   0.00000  Uiso   1.00
C58    C     0.53214   0.11612   0.41558   0.00000  Uiso   1.00
C59    C     0.50195   0.15037   0.06757   0.00000  Uiso   1.00
C60    C     0.61039   0.16107   0.07296   0.00000  Uiso   1.00
C61    C     0.45094   0.16435   0.40159   0.00000  Uiso   1.00
C62    C     0.52372   0.32267   0.25171   0.00000  Uiso   1.00
C63    C     0.46727   0.16182   0.34653   0.00000  Uiso   1.00
C64    C     0.47692   0.01066   0.24648   0.00000  Uiso   1.00
C65    C     0.48516   0.06667   0.24784   0.00000  Uiso   1.00
C66    C     0.53240   0.16737   0.15303   0.00000  Uiso   1.00
C67    C     0.62045   0.14093   0.02288   0.00000  Uiso   1.00
C68    C     0.54899   0.16083   0.09738   0.00000  Uiso   1.00
C69    C     0.40977   0.19694   0.42164   0.00000  Uiso   1.00
C70    C     0.40801   0.21700   0.47085   0.00000  Uiso   1.00
C71    C     0.44351   0.20149   0.00183   0.00000  Uiso   1.00
Cu72   Cu    0.44043   0.16105   0.24436   0.00000  Uiso   1.00
Cu73   Cu    0.55957   0.17228   0.25565   0.00000  Uiso   1.00
H74    H     0.43177   0.32022   0.24166   0.00000  Uiso   1.00
H75    H     0.33737   0.20638   0.28946   0.00000  Uiso   1.00
H76    H     0.66259   0.12688   0.21061   0.00000  Uiso   1.00
H77    H     0.61801   0.09825   0.42790   0.00000  Uiso   1.00
H78    H     0.66431   0.13105   0.00661   0.00000  Uiso   1.00
H79    H     0.38328   0.21114   0.39773   0.00000  Uiso   1.00
H80    H     0.44432   0.22011   0.03884   0.00000  Uiso   1.00
H81    H     0.37940   0.24504   0.48495   0.00000  Uiso   1.00
H82    H     0.56883   0.01312   0.25664   0.00000  Uiso   1.00
N83    N     0.64908   0.18074   0.26416   0.00000  Uiso   1.00
N84    N     0.35092   0.15259   0.23584   0.00000  Uiso   1.00
O85    O     0.46131   0.23807   0.24633   0.00000  Uiso   1.00
O86    O     0.56191   0.24755   0.25587   0.00000  Uiso   1.00
O87    O     0.42515   0.15960   0.31840   0.00000  Uiso   1.00
O88    O     0.52575   0.16908   0.32793   0.00000  Uiso   1.00
O89    O     0.43809   0.08578   0.24414   0.00000  Uiso   1.00
O90    O     0.53869   0.09526   0.25367   0.00000  Uiso   1.00
O91    O     0.47425   0.16425   0.17207   0.00000  Uiso   1.00
O92    O     0.57485   0.17373   0.18161   0.00000  Uiso   1.00
C93    C     0.66191   0.18347   0.09829   0.00000  Uiso   1.00
N94    N     0.36836   0.20269   0.11995   0.00000  Uiso   1.00
C95    C     0.44073   0.11944   0.08684   0.00000  Uiso   1.00
N96    N     0.39248   0.09348   0.10197   0.00000  Uiso   1.00
N97    N     0.52763   0.08152   0.37245   0.00000  Uiso   1.00
H98    H     0.56847   0.07104   0.35547   0.00000  Uiso   1.00
C99    C     0.47428   0.03751   0.37826   0.00000  Uiso   1.00
H100   H     0.48941   0.33308   0.36804   0.00000  Uiso   1.00
H101   H     0.44238   0.04235   0.35284   0.00000  Uiso   1.00
H102   H     0.44812   0.03474   0.41776   0.00000  Uiso   1.00
C103   C     0.84846   0.26668   0.25134   0.00000  Uiso   1.00
C104   C     0.81453   0.16536   0.48413   0.00000  Uiso   1.00
C105   C     0.82062   0.14756   0.43312   0.00000  Uiso   1.00
C106   C     0.85226   0.15194   0.01515   0.00000  Uiso   1.00
C107   C     0.90740   0.13676   0.49329   0.00000  Uiso   1.00
C108   C     0.91296   0.11667   0.44352   0.00000  Uiso   1.00
C109   C     0.86547   0.11612   0.41558   0.00000  Uiso   1.00
C110   C     0.83529   0.15037   0.06757   0.00000  Uiso   1.00
C111   C     0.94373   0.16107   0.07296   0.00000  Uiso   1.00
C112   C     0.78427   0.16435   0.40159   0.00000  Uiso   1.00
C113   C     0.85706   0.32267   0.25171   0.00000  Uiso   1.00
C114   C     0.80060   0.16182   0.34653   0.00000  Uiso   1.00
C115   C     0.81025   0.01066   0.24648   0.00000  Uiso   1.00
C116   C     0.81850   0.06667   0.24784   0.00000  Uiso   1.00
C117   C     0.86573   0.16737   0.15303   0.00000  Uiso   1.00
C118   C     0.95378   0.14093   0.02288   0.00000  Uiso   1.00
C119   C     0.88232   0.16083   0.09738   0.00000  Uiso   1.00
C120   C     0.74310   0.19694   0.42164   0.00000  Uiso   1.00
C121   C     0.74134   0.21700   0.47085   0.00000  Uiso   1.00
C122   C     0.77685   0.20149   0.00183   0.00000  Uiso   1.00
Cu123  Cu    0.77377   0.16105   0.24436   0.00000  Uiso   1.00
Cu124  Cu    0.89290   0.17228   0.25565   0.00000  Uiso   1.00
H125   H     0.76511   0.32022   0.24166   0.00000  Uiso   1.00
H126   H     0.67070   0.20638   0.28946   0.00000  Uiso   1.00
H127   H     0.99593   0.12688   0.21061   0.00000  Uiso   1.00
H128   H     0.95134   0.09825   0.42790   0.00000  Uiso   1.00
H129   H     0.99764   0.13105   0.00661   0.00000  Uiso   1.00
H130   H     0.71661   0.21114   0.39773   0.00000  Uiso   1.00
H131   H     0.77766   0.22011   0.03884   0.00000  Uiso   1.00
H132   H     0.71274   0.24504   0.48495   0.00000  Uiso   1.00
H133   H     0.90216   0.01312   0.25664   0.00000  Uiso   1.00
N134   N     0.98241   0.18074   0.26416   0.00000  Uiso   1.00
N135   N     0.68426   0.15259   0.23584   0.00000  Uiso   1.00
O136   O     0.79464   0.23807   0.24633   0.00000  Uiso   1.00
O137   O     0.89524   0.24755   0.25587   0.00000  Uiso   1.00
O138   O     0.75848   0.15960   0.31840   0.00000  Uiso   1.00
O139   O     0.85908   0.16908   0.32793   0.00000  Uiso   1.00
O140   O     0.77142   0.08578   0.24414   0.00000  Uiso   1.00
O141   O     0.87203   0.09526   0.25367   0.00000  Uiso   1.00
O142   O     0.80758   0.16425   0.17207   0.00000  Uiso   1.00
O143   O     0.90819   0.17373   0.18161   0.00000  Uiso   1.00
C144   C     0.99524   0.18347   0.09829   0.00000  Uiso   1.00
N145   N     0.70170   0.20269   0.11995   0.00000  Uiso   1.00
C146   C     0.77406   0.11944   0.08684   0.00000  Uiso   1.00
N147   N     0.72581   0.09348   0.10197   0.00000  Uiso   1.00
N148   N     0.86097   0.08152   0.37245   0.00000  Uiso   1.00
H149   H     0.90180   0.07104   0.35547   0.00000  Uiso   1.00
C150   C     0.80761   0.03751   0.37826   0.00000  Uiso   1.00
H151   H     0.82274   0.33308   0.36804   0.00000  Uiso   1.00
H152   H     0.77572   0.04235   0.35284   0.00000  Uiso   1.00
H153   H     0.78145   0.03474   0.41776   0.00000  Uiso   1.00
C154   C     0.18179   0.60001   0.25134   0.00000  Uiso   1.00
C155   C     0.14786   0.49869   0.48413   0.00000  Uiso   1.00
C156   C     0.15396   0.48090   0.43312   0.00000  Uiso   1.00
C157   C     0.18559   0.48527   0.01515   0.00000  Uiso   1.00
C158   C     0.24074   0.47010   0.49329   0.00000  Uiso   1.00
C159   C     0.24629   0.45001   0.44352   0.00000  Uiso   1.00
C160   C     0.19881   0.44945   0.41558   0.00000  Uiso   1.00
C161   C     0.16862   0.48370   0.06757   0.00000  Uiso   1.00
C162   C     0.27706   0.49440   0.07296   0.00000  Uiso   1.00
C163   C     0.11761   0.49769   0.40159   0.00000  Uiso   1.00
C164   C     0.19039   0.65601   0.25171   0.00000  Uiso   1.00
C165   C     0.13393   0.49515   0.34653   0.00000  Uiso   1.00
C166   C     0.14358   0.34400   0.24648   0.00000  Uiso   1.00
C167   C     0.15183   0.40000   0.24784   0.00000  Uiso   1.00
C168   C     0.19907   0.50070   0.15303   0.00000  Uiso   1.00
C169   C     0.28712   0.47427   0.02288   0.00000  Uiso   1.00
C170   C     0.21566   0.49416   0.09738   0.00000  Uiso   1.00
C171   C     0.07643   0.53027   0.42164   0.00000  Uiso   1.00
C172   C     0.07468   0.55034   0.47085   0.00000  Uiso   1.00
C173   C     0.11018   0.53483   0.00183   0.00000  Uiso   1.00
Cu174  Cu    0.10710   0.49439   0.24436   0.00000  Uiso   1.00
Cu175  Cu    0.22623   0.50561   0.25565   0.00000  Uiso   1.00
H176   H     0.09844   0.65356   0.24166   0.00000  Uiso   1.00
H177   H     0.00404   0.53972   0.28946   0.00000  Uiso   1.00
H178   H     0.32926   0.46021   0.21061   0.00000  Uiso   1.00
H179   H     0.28468   0.43158   0.42790   0.00000  Uiso   1.00
H180   H     0.33097   0.46438   0.00661   0.00000  Uiso   1.00
H181   H     0.04994   0.54447   0.39773   0.00000  Uiso   1.00
H182   H     0.11099   0.55345   0.03884   0.00000  Uiso   1.00
H183   H     0.04607   0.57837   0.48495   0.00000  Uiso   1.00
H184   H     0.23549   0.34646   0.25664   0.00000  Uiso   1.00
N185   N     0.31574   0.51407   0.26416   0.00000  Uiso   1.00
N186   N     0.01759   0.48593   0.23584   0.00000  Uiso   1.00
O187   O     0.12797   0.57141   0.24633   0.00000  Uiso   1.00
O188   O     0.22858   0.58089   0.25587   0.00000  Uiso   1.00
O189   O     0.09181   0.49293   0.31840   0.00000  Uiso   1.00
O190   O     0.19242   0.50241   0.32793   0.00000  Uiso   1.00
O191   O     0.10476   0.41911   0.24414   0.00000  Uiso   1.00
O192   O     0.20536   0.42859   0.25367   0.00000  Uiso   1.00
O193   O     0.14092   0.49759   0.17207   0.00000  Uiso   1.00
O194   O     0.24152   0.50707   0.18161   0.00000  Uiso   1.00
C195   C     0.32857   0.51680   0.09829   0.00000  Uiso   1.00
N196   N     0.03503   0.53603   0.11995   0.00000  Uiso   1.00
C197   C     0.10739   0.45277   0.08684   0.00000  Uiso   1.00
N198   N     0.05915   0.42682   0.10197   0.00000  Uiso   1.00
N199   N     0.19430   0.41485   0.37245   0.00000  Uiso   1.00
H200   H     0.23514   0.40437   0.35547   0.00000  Uiso   1.00
C201   C     0.14094   0.37084   0.37826   0.00000  Uiso   1.00
H202   H     0.15608   0.66641   0.36804   0.00000  Uiso   1.00
H203   H     0.10905   0.37568   0.35284   0.00000  Uiso   1.00
H204   H     0.11478   0.36808   0.41776   0.00000  Uiso   1.00
C205   C     0.51513   0.60001   0.25134   0.00000  Uiso   1.00
C206   C     0.48119   0.49869   0.48413   0.00000  Uiso   1.00
C207   C     0.48729   0.48090   0.43312   0.00000  Uiso   1.00
C208   C     0.51892   0.48527   0.01515   0.00000  Uiso   1.00
C209   C     0.57407   0.47010   0.49329   0.00000  Uiso   1.00
C210   C     0.57962   0.45001   0.44352   0.00000  Uiso   1.00
C211   C     0.53214   0.44945   0.41558   0.00000  Uiso   1.00
C212   C     0.50195   0.48370   0.06757   0.00000  Uiso   1.00
C213   C     0.61039   0.49440   0.07296   0.00000  Uiso   1.00
C214   C     0.45094   0.49769   0.40159   0.00000  Uiso   1.00
C215   C     0.52372   0.65601   0.25171   0.00000  Uiso   1.00
C216   C     0.46727   0.49515   0.34653   0.00000  Uiso   1.00
C217   C     0.47692   0.34400   0.24648   0.00000  Uiso   1.00
C218   C     0.48516   0.40000   0.24784   0.00000  Uiso   1.00
C219   C     0.53240   0.50070   0.15303   0.00000  Uiso   1.00
C220   C     0.62045   0.47427   0.02288   0.00000  Uiso   1.00
C221   C     0.54899   0.49416   0.09738   0.00000  Uiso   1.00
C222   C     0.40977   0.53027   0.42164   0.00000  Uiso   1.00
C223   C     0.40801   0.55034   0.47085   0.00000  Uiso   1.00
C224   C     0.44351   0.53483   0.00183   0.00000  Uiso   1.00
Cu225  Cu    0.44043   0.49439   0.24436   0.00000  Uiso   1.00
Cu226  Cu    0.55957   0.50561   0.25565   0.00000  Uiso   1.00
H227   H     0.43177   0.65356   0.24166   0.00000  Uiso   1.00
H228   H     0.33737   0.53972   0.28946   0.00000  Uiso   1.00
H229   H     0.66259   0.46021   0.21061   0.00000  Uiso   1.00
H230   H     0.61801   0.43158   0.42790   0.00000  Uiso   1.00
H231   H     0.66431   0.46438   0.00661   0.00000  Uiso   1.00
H232   H     0.38328   0.54447   0.39773   0.00000  Uiso   1.00
H233   H     0.44432   0.55345   0.03884   0.00000  Uiso   1.00
H234   H     0.37940   0.57837   0.48495   0.00000  Uiso   1.00
H235   H     0.56883   0.34646   0.25664   0.00000  Uiso   1.00
N236   N     0.64908   0.51407   0.26416   0.00000  Uiso   1.00
N237   N     0.35092   0.48593   0.23584   0.00000  Uiso   1.00
O238   O     0.46131   0.57141   0.24633   0.00000  Uiso   1.00
O239   O     0.56191   0.58089   0.25587   0.00000  Uiso   1.00
O240   O     0.42515   0.49293   0.31840   0.00000  Uiso   1.00
O241   O     0.52575   0.50241   0.32793   0.00000  Uiso   1.00
O242   O     0.43809   0.41911   0.24414   0.00000  Uiso   1.00
O243   O     0.53869   0.42859   0.25367   0.00000  Uiso   1.00
O244   O     0.47425   0.49759   0.17207   0.00000  Uiso   1.00
O245   O     0.57485   0.50707   0.18161   0.00000  Uiso   1.00
C246   C     0.66191   0.51680   0.09829   0.00000  Uiso   1.00
N247   N     0.36836   0.53603   0.11995   0.00000  Uiso   1.00
C248   C     0.44073   0.45277   0.08684   0.00000  Uiso   1.00
N249   N     0.39248   0.42682   0.10197   0.00000  Uiso   1.00
N250   N     0.52763   0.41485   0.37245   0.00000  Uiso   1.00
H251   H     0.56847   0.40437   0.35547   0.00000  Uiso   1.00
C252   C     0.47428   0.37084   0.37826   0.00000  Uiso   1.00
H253   H     0.48941   0.66641   0.36804   0.00000  Uiso   1.00
H254   H     0.44238   0.37568   0.35284   0.00000  Uiso   1.00
H255   H     0.44812   0.36808   0.41776   0.00000  Uiso   1.00
C256   C     0.84846   0.60001   0.25134   0.00000  Uiso   1.00
C257   C     0.81453   0.49869   0.48413   0.00000  Uiso   1.00
C258   C     0.82062   0.48090   0.43312   0.00000  Uiso   1.00
C259   C     0.85226   0.48527   0.01515   0.00000  Uiso   1.00
C260   C     0.90740   0.47010   0.49329   0.00000  Uiso   1.00
C261   C     0.91296   0.45001   0.44352   0.00000  Uiso   1.00
C262   C     0.86547   0.44945   0.41558   0.00000  Uiso   1.00
C263   C     0.83529   0.48370   0.06757   0.00000  Uiso   1.00
C264   C     0.94373   0.49440   0.07296   0.00000  Uiso   1.00
C265   C     0.78427   0.49769   0.40159   0.00000  Uiso   1.00
C266   C     0.85706   0.65601   0.25171   0.00000  Uiso   1.00
C267   C     0.80060   0.49515   0.34653   0.00000  Uiso   1.00
C268   C     0.81025   0.34400   0.24648   0.00000  Uiso   1.00
C269   C     0.81850   0.40000   0.24784   0.00000  Uiso   1.00
C270   C     0.86573   0.50070   0.15303   0.00000  Uiso   1.00
C271   C     0.95378   0.47427   0.02288   0.00000  Uiso   1.00
C272   C     0.88232   0.49416   0.09738   0.00000  Uiso   1.00
C273   C     0.74310   0.53027   0.42164   0.00000  Uiso   1.00
C274   C     0.74134   0.55034   0.47085   0.00000  Uiso   1.00
C275   C     0.77685   0.53483   0.00183   0.00000  Uiso   1.00
Cu276  Cu    0.77377   0.49439   0.24436   0.00000  Uiso   1.00
Cu277  Cu    0.89290   0.50561   0.25565   0.00000  Uiso   1.00
H278   H     0.76511   0.65356   0.24166   0.00000  Uiso   1.00
H279   H     0.67070   0.53972   0.28946   0.00000  Uiso   1.00
H280   H     0.99593   0.46021   0.21061   0.00000  Uiso   1.00
H281   H     0.95134   0.43158   0.42790   0.00000  Uiso   1.00
H282   H     0.99764   0.46438   0.00661   0.00000  Uiso   1.00
H283   H     0.71661   0.54447   0.39773   0.00000  Uiso   1.00
H284   H     0.77766   0.55345   0.03884   0.00000  Uiso   1.00
H285   H     0.71274   0.57837   0.48495   0.00000  Uiso   1.00
H286   H     0.90216   0.34646   0.25664   0.00000  Uiso   1.00
N287   N     0.98241   0.51407   0.26416   0.00000  Uiso   1.00
N288   N     0.68426   0.48593   0.23584   0.00000  Uiso   1.00
O289   O     0.79464   0.57141   0.24633   0.00000  Uiso   1.00
O290   O     0.89524   0.58089   0.25587   0.00000  Uiso   1.00
O291   O     0.75848   0.49293   0.31840   0.00000  Uiso   1.00
O292   O     0.85908   0.50241   0.32793   0.00000  Uiso   1.00
O293   O     0.77142   0.41911   0.24414   0.00000  Uiso   1.00
O294   O     0.87203   0.42859   0.25367   0.00000  Uiso   1.00
O295   O     0.80758   0.49759   0.17207   0.00000  Uiso   1.00
O296   O     0.90819   0.50707   0.18161   0.00000  Uiso   1.00
C297   C     0.99524   0.51680   0.09829   0.00000  Uiso   1.00
N298   N     0.70170   0.53603   0.11995   0.00000  Uiso   1.00
C299   C     0.77406   0.45277   0.08684   0.00000  Uiso   1.00
N300   N     0.72581   0.42682   0.10197   0.00000  Uiso   1.00
N301   N     0.86097   0.41485   0.37245   0.00000  Uiso   1.00
H302   H     0.90180   0.40437   0.35547   0.00000  Uiso   1.00
C303   C     0.80761   0.37084   0.37826   0.00000  Uiso   1.00
H304   H     0.82274   0.66641   0.36804   0.00000  Uiso   1.00
H305   H     0.77572   0.37568   0.35284   0.00000  Uiso   1.00
H306   H     0.78145   0.36808   0.41776   0.00000  Uiso   1.00
C307   C     0.18179   0.93334   0.25134   0.00000  Uiso   1.00
C308   C     0.14786   0.83202   0.48413   0.00000  Uiso   1.00
C309   C     0.15396   0.81423   0.43312   0.00000  Uiso   1.00
C310   C     0.18559   0.81861   0.01515   0.00000  Uiso   1.00
C311   C     0.24074   0.80343   0.49329   0.00000  Uiso   1.00
C312   C     0.24629   0.78334   0.44352   0.00000  Uiso   1.00
C313   C     0.19881   0.78279   0.41558   0.00000  Uiso   1.00
C314   C     0.16862   0.81704   0.06757   0.00000  Uiso   1.00
C315   C     0.27706   0.82773   0.07296   0.00000  Uiso   1.00
C316   C     0.11761   0.83102   0.40159   0.00000  Uiso   1.00
C317   C     0.19039   0.98934   0.25171   0.00000  Uiso   1.00
C318   C     0.13393   0.82849   0.34653   0.00000  Uiso   1.00
C319   C     0.14358   0.67733   0.24648   0.00000  Uiso   1.00
C320   C     0.15183   0.73333   0.24784   0.00000  Uiso   1.00
C321   C     0.19907   0.83404   0.15303   0.00000  Uiso   1.00
C322   C     0.28712   0.80760   0.02288   0.00000  Uiso   1.00
C323   C     0.21566   0.82749   0.09738   0.00000  Uiso   1.00
C324   C     0.07643   0.86361   0.42164   0.00000  Uiso   1.00
C325   C     0.07468   0.88367   0.47085   0.00000  Uiso   1.00
C326   C     0.11018   0.86816   0.00183   0.00000  Uiso   1.00
Cu327  Cu    0.10710   0.82772   0.24436   0.00000  Uiso   1.00
Cu328  Cu    0.22623   0.83895   0.25565   0.00000  Uiso   1.00
H329   H     0.09844   0.98689   0.24166   0.00000  Uiso   1.00
H330   H     0.00404   0.87305   0.28946   0.00000  Uiso   1.00
H331   H     0.32926   0.79354   0.21061   0.00000  Uiso   1.00
H332   H     0.28468   0.76491   0.42790   0.00000  Uiso   1.00
H333   H     0.33097   0.79772   0.00661   0.00000  Uiso   1.00
H334   H     0.04994   0.87780   0.39773   0.00000  Uiso   1.00
H335   H     0.11099   0.88678   0.03884   0.00000  Uiso   1.00
H336   H     0.04607   0.91171   0.48495   0.00000  Uiso   1.00
H337   H     0.23549   0.67979   0.25664   0.00000  Uiso   1.00
N338   N     0.31574   0.84741   0.26416   0.00000  Uiso   1.00
N339   N     0.01759   0.81926   0.23584   0.00000  Uiso   1.00
O340   O     0.12797   0.90474   0.24633   0.00000  Uiso   1.00
O341   O     0.22858   0.91422   0.25587   0.00000  Uiso   1.00
O342   O     0.09181   0.82627   0.31840   0.00000  Uiso   1.00
O343   O     0.19242   0.83575   0.32793   0.00000  Uiso   1.00
O344   O     0.10476   0.75245   0.24414   0.00000  Uiso   1.00
O345   O     0.20536   0.76193   0.25367   0.00000  Uiso   1.00
O346   O     0.14092   0.83092   0.17207   0.00000  Uiso   1.00
O347   O     0.24152   0.84040   0.18161   0.00000  Uiso   1.00
C348   C     0.32857   0.85014   0.09829   0.00000  Uiso   1.00
N349   N     0.03503   0.86936   0.11995   0.00000  Uiso   1.00
C350   C     0.10739   0.78611   0.08684   0.00000  Uiso   1.00
N351   N     0.05915   0.76015   0.10197   0.00000  Uiso   1.00
N352   N     0.19430   0.74818   0.37245   0.00000  Uiso   1.00
H353   H     0.23514   0.73770   0.35547   0.00000  Uiso   1.00
C354   C     0.14094   0.70418   0.37826   0.00000  Uiso   1.00
H355   H     0.15608   0.99974   0.36804   0.00000  Uiso   1.00
H356   H     0.10905   0.70902   0.35284   0.00000  Uiso   1.00
H357   H     0.11478   0.70141   0.41776   0.00000  Uiso   1.00
C358   C     0.51513   0.93334   0.25134   0.00000  Uiso   1.00
C359   C     0.48119   0.83202   0.48413   0.00000  Uiso   1.00
C360   C     0.48729   0.81423   0.43312   0.00000  Uiso   1.00
C361   C     0.51892   0.81861   0.01515   0.00000  Uiso   1.00
C362   C     0.57407   0.80343   0.49329   0.00000  Uiso   1.00
C363   C     0.57962   0.78334   0.44352   0.00000  Uiso   1.00
C364   C     0.53214   0.78279   0.41558   0.00000  Uiso   1.00
C365   C     0.50195   0.81704   0.06757   0.00000  Uiso   1.00
C366   C     0.61039   0.82773   0.07296   0.00000  Uiso   1.00
C367   C     0.45094   0.83102   0.40159   0.00000  Uiso   1.00
C368   C     0.52372   0.98934   0.25171   0.00000  Uiso   1.00
C369   C     0.46727   0.82849   0.34653   0.00000  Uiso   1.00
C370   C     0.47692   0.67733   0.24648   0.00000  Uiso   1.00
C371   C     0.48516   0.73333   0.24784   0.00000  Uiso   1.00
C372   C     0.53240   0.83404   0.15303   0.00000  Uiso   1.00
C373   C     0.62045   0.80760   0.02288   0.00000  Uiso   1.00
C374   C     0.54899   0.82749   0.09738   0.00000  Uiso   1.00
C375   C     0.40977   0.86361   0.42164   0.00000  Uiso   1.00
C376   C     0.40801   0.88367   0.47085   0.00000  Uiso   1.00
C377   C     0.44351   0.86816   0.00183   0.00000  Uiso   1.00
Cu378  Cu    0.44043   0.82772   0.24436   0.00000  Uiso   1.00
Cu379  Cu    0.55957   0.83895   0.25565   0.00000  Uiso   1.00
H380   H     0.43177   0.98689   0.24166   0.00000  Uiso   1.00
H381   H     0.33737   0.87305   0.28946   0.00000  Uiso   1.00
H382   H     0.66259   0.79354   0.21061   0.00000  Uiso   1.00
H383   H     0.61801   0.76491   0.42790   0.00000  Uiso   1.00
H384   H     0.66431   0.79772   0.00661   0.00000  Uiso   1.00
H385   H     0.38328   0.87780   0.39773   0.00000  Uiso   1.00
H386   H     0.44432   0.88678   0.03884   0.00000  Uiso   1.00
H387   H     0.37940   0.91171   0.48495   0.00000  Uiso   1.00
H388   H     0.56883   0.67979   0.25664   0.00000  Uiso   1.00
N389   N     0.64908   0.84741   0.26416   0.00000  Uiso   1.00
N390   N     0.35092   0.81926   0.23584   0.00000  Uiso   1.00
O391   O     0.46131   0.90474   0.24633   0.00000  Uiso   1.00
O392   O     0.56191   0.91422   0.25587   0.00000  Uiso   1.00
O393   O     0.42515   0.82627   0.31840   0.00000  Uiso   1.00
O394   O     0.52575   0.83575   0.32793   0.00000  Uiso   1.00
O395   O     0.43809   0.75245   0.24414   0.00000  Uiso   1.00
O396   O     0.53869   0.76193   0.25367   0.00000  Uiso   1.00
O397   O     0.47425   0.83092   0.17207   0.00000  Uiso   1.00
O398   O     0.57485   0.84040   0.18161   0.00000  Uiso   1.00
C399   C     0.66191   0.85014   0.09829   0.00000  Uiso   1.00
N400   N     0.36836   0.86936   0.11995   0.00000  Uiso   1.00
C401   C     0.44073   0.78611   0.08684   0.00000  Uiso   1.00
N402   N     0.39248   0.76015   0.10197   0.00000  Uiso   1.00
N403   N     0.52763   0.74818   0.37245   0.00000  Uiso   1.00
H404   H     0.56847   0.73770   0.35547   0.00000  Uiso   1.00
C405   C     0.47428   0.70418   0.37826   0.00000  Uiso   1.00
H406   H     0.48941   0.99974   0.36804   0.00000  Uiso   1.00
H407   H     0.44238   0.70902   0.35284   0.00000  Uiso   1.00
H408   H     0.44812   0.70141   0.41776   0.00000  Uiso   1.00
C409   C     0.84846   0.93334   0.25134   0.00000  Uiso   1.00
C410   C     0.81453   0.83202   0.48413   0.00000  Uiso   1.00
C411   C     0.82062   0.81423   0.43312   0.00000  Uiso   1.00
C412   C     0.85226   0.81861   0.01515   0.00000  Uiso   1.00
C413   C     0.90740   0.80343   0.49329   0.00000  Uiso   1.00
C414   C     0.91296   0.78334   0.44352   0.00000  Uiso   1.00
C415   C     0.86547   0.78279   0.41558   0.00000  Uiso   1.00
C416   C     0.83529   0.81704   0.06757   0.00000  Uiso   1.00
C417   C     0.94373   0.82773   0.07296   0.00000  Uiso   1.00
C418   C     0.78427   0.83102   0.40159   0.00000  Uiso   1.00
C419   C     0.85706   0.98934   0.25171   0.00000  Uiso   1.00
C420   C     0.80060   0.82849   0.34653   0.00000  Uiso   1.00
C421   C     0.81025   0.67733   0.24648   0.00000  Uiso   1.00
C422   C     0.81850   0.73333   0.24784   0.00000  Uiso   1.00
C423   C     0.86573   0.83404   0.15303   0.00000  Uiso   1.00
C424   C     0.95378   0.80760   0.02288   0.00000  Uiso   1.00
C425   C     0.88232   0.82749   0.09738   0.00000  Uiso   1.00
C426   C     0.74310   0.86361   0.42164   0.00000  Uiso   1.00
C427   C     0.74134   0.88367   0.47085   0.00000  Uiso   1.00
C428   C     0.77685   0.86816   0.00183   0.00000  Uiso   1.00
Cu429  Cu    0.77377   0.82772   0.24436   0.00000  Uiso   1.00
Cu430  Cu    0.89290   0.83895   0.25565   0.00000  Uiso   1.00
H431   H     0.76511   0.98689   0.24166   0.00000  Uiso   1.00
H432   H     0.67070   0.87305   0.28946   0.00000  Uiso   1.00
H433   H     0.99593   0.79354   0.21061   0.00000  Uiso   1.00
H434   H     0.95134   0.76491   0.42790   0.00000  Uiso   1.00
H435   H     0.99764   0.79772   0.00661   0.00000  Uiso   1.00
H436   H     0.71661   0.87780   0.39773   0.00000  Uiso   1.00
H437   H     0.77766   0.88678   0.03884   0.00000  Uiso   1.00
H438   H     0.71274   0.91171   0.48495   0.00000  Uiso   1.00
H439   H     0.90216   0.67979   0.25664   0.00000  Uiso   1.00
N440   N     0.98241   0.84741   0.26416   0.00000  Uiso   1.00
N441   N     0.68426   0.81926   0.23584   0.00000  Uiso   1.00
O442   O     0.79464   0.90474   0.24633   0.00000  Uiso   1.00
O443   O     0.89524   0.91422   0.25587   0.00000  Uiso   1.00
O444   O     0.75848   0.82627   0.31840   0.00000  Uiso   1.00
O445   O     0.85908   0.83575   0.32793   0.00000  Uiso   1.00
O446   O     0.77142   0.75245   0.24414   0.00000  Uiso   1.00
O447   O     0.87203   0.76193   0.25367   0.00000  Uiso   1.00
O448   O     0.80758   0.83092   0.17207   0.00000  Uiso   1.00
O449   O     0.90819   0.84040   0.18161   0.00000  Uiso   1.00
C450   C     0.99524   0.85014   0.09829   0.00000  Uiso   1.00
N451   N     0.70170   0.86936   0.11995   0.00000  Uiso   1.00
C452   C     0.77406   0.78611   0.08684   0.00000  Uiso   1.00
N453   N     0.72581   0.76015   0.10197   0.00000  Uiso   1.00
N454   N     0.86097   0.74818   0.37245   0.00000  Uiso   1.00
H455   H     0.90180   0.73770   0.35547   0.00000  Uiso   1.00
C456   C     0.80761   0.70418   0.37826   0.00000  Uiso   1.00
H457   H     0.82274   0.99974   0.36804   0.00000  Uiso   1.00
H458   H     0.77572   0.70902   0.35284   0.00000  Uiso   1.00
H459   H     0.78145   0.70141   0.41776   0.00000  Uiso   1.00
C460   C     0.18179   0.26668   0.75134   0.00000  Uiso   1.00
C461   C     0.14786   0.16536   0.98413   0.00000  Uiso   1.00
C462   C     0.15396   0.14756   0.93312   0.00000  Uiso   1.00
C463   C     0.18559   0.15194   0.51515   0.00000  Uiso   1.00
C464   C     0.24074   0.13676   0.99329   0.00000  Uiso   1.00
C465   C     0.24629   0.11667   0.94352   0.00000  Uiso   1.00
C466   C     0.19881   0.11612   0.91558   0.00000  Uiso   1.00
C467   C     0.16862   0.15037   0.56757   0.00000  Uiso   1.00
C468   C     0.27706   0.16107   0.57296   0.00000  Uiso   1.00
C469   C     0.11761   0.16435   0.90159   0.00000  Uiso   1.00
C470   C     0.19039   0.32267   0.75171   0.00000  Uiso   1.00
C471   C     0.13393   0.16182   0.84653   0.00000  Uiso   1.00
C472   C     0.14358   0.01066   0.74648   0.00000  Uiso   1.00
C473   C     0.15183   0.06667   0.74784   0.00000  Uiso   1.00
C474   C     0.19907   0.16737   0.65303   0.00000  Uiso   1.00
C475   C     0.28712   0.14093   0.52288   0.00000  Uiso   1.00
C476   C     0.21566   0.16083   0.59738   0.00000  Uiso   1.00
C477   C     0.07643   0.19694   0.92164   0.00000  Uiso   1.00
C478   C     0.07468   0.21700   0.97085   0.00000  Uiso   1.00
C479   C     0.11018   0.20149   0.50183   0.00000  Uiso   1.00
Cu480  Cu    0.10710   0.16105   0.74436   0.00000  Uiso   1.00
Cu481  Cu    0.22623   0.17228   0.75565   0.00000  Uiso   1.00
H482   H     0.09844   0.32022   0.74166   0.00000  Uiso   1.00
H483   H     0.00404   0.20638   0.78946   0.00000  Uiso   1.00
H484   H     0.32926   0.12688   0.71061   0.00000  Uiso   1.00
H485   H     0.28468   0.09825   0.92790   0.00000  Uiso   1.00
H486   H     0.33097   0.13105   0.50661   0.00000  Uiso   1.00
H487   H     0.04994   0.21114   0.89773   0.00000  Uiso   1.00
H488   H     0.11099   0.22011   0.53884   0.00000  Uiso   1.00
H489   H     0.04607   0.24504   0.98495   0.00000  Uiso   1.00
H490   H     0.23549   0.01312   0.75664   0.00000  Uiso   1.00
N491   N     0.31574   0.18074   0.76416   0.00000  Uiso   1.00
N492   N     0.01759   0.15259   0.73584   0.00000  Uiso   1.00
O493   O     0.12797   0.23807   0.74633   0.00000  Uiso   1.00
O494   O     0.22858   0.24755   0.75587   0.00000  Uiso   1.00
O495   O     0.09181   0.15960   0.81840   0.00000  Uiso   1.00
O496   O     0.19242   0.16908   0.82793   0.00000  Uiso   1.00
O497   O     0.10476   0.08578   0.74414   0.00000  Uiso   1.00
O498   O     0.20536   0.09526   0.75367   0.00000  Uiso   1.00
O499   O     0.14092   0.16425   0.67207   0.00000  Uiso   1.00
O500   O     0.24152   0.17373   0.68161   0.00000  Uiso   1.00
C501   C     0.32857   0.18347   0.59829   0.00000  Uiso   1.00
N502   N     0.03503   0.20269   0.61995   0.00000  Uiso   1.00
C503   C     0.10739   0.11944   0.58684   0.00000  Uiso   1.00
N504   N     0.05915   0.09348   0.60197   0.00000  Uiso   1.00
N505   N     0.19430   0.08152   0.87245   0.00000  Uiso   1.00
H506   H     0.23514   0.07104   0.85547   0.00000  Uiso   1.00
C507   C     0.14094   0.03751   0.87826   0.00000  Uiso   1.00
H508   H     0.15608   0.33308   0.86804   0.00000  Uiso   1.00
H509   H     0.10905   0.04235   0.85284   0.00000  Uiso   1.00
H510   H     0.11478   0.03474   0.91776   0.00000  Uiso   1.00
C511   C     0.51513   0.26668   0.75134   0.00000  Uiso   1.00
C512   C     0.48119   0.16536   0.98413   0.00000  Uiso   1.00
C513   C     0.48729   0.14756   0.93312   0.00000  Uiso   1.00
C514   C     0.51892   0.15194   0.51515   0.00000  Uiso   1.00
C515   C     0.57407   0.13676   0.99329   0.00000  Uiso   1.00
C516   C     0.57962   0.11667   0.94352   0.00000  Uiso   1.00
C517   C     0.53214   0.11612   0.91558   0.00000  Uiso   1.00
C518   C     0.50195   0.15037   0.56757   0.00000  Uiso   1.00
C519   C     0.61039   0.16107   0.57296   0.00000  Uiso   1.00
C520   C     0.45094   0.16435   0.90159   0.00000  Uiso   1.00
C521   C     0.52372   0.32267   0.75171   0.00000  Uiso   1.00
C522   C     0.46727   0.16182   0.84653   0.00000  Uiso   1.00
C523   C     0.47692   0.01066   0.74648   0.00000  Uiso   1.00
C524   C     0.48516   0.06667   0.74784   0.00000  Uiso   1.00
C525   C     0.53240   0.16737   0.65303   0.00000  Uiso   1.00
C526   C     0.62045   0.14093   0.52288   0.00000  Uiso   1.00
C527   C     0.54899   0.16083   0.59738   0.00000  Uiso   1.00
C528   C     0.40977   0.19694   0.92164   0.00000  Uiso   1.00
C529   C     0.40801   0.21700   0.97085   0.00000  Uiso   1.00
C530   C     0.44351   0.20149   0.50183   0.00000  Uiso   1.00
Cu531  Cu    0.44043   0.16105   0.74436   0.00000  Uiso   1.00
Cu532  Cu    0.55957   0.17228   0.75565   0.00000  Uiso   1.00
H533   H     0.43177   0.32022   0.74166   0.00000  Uiso   1.00
H534   H     0.33737   0.20638   0.78946   0.00000  Uiso   1.00
H535   H     0.66259   0.12688   0.71061   0.00000  Uiso   1.00
H536   H     0.61801   0.09825   0.92790   0.00000  Uiso   1.00
H537   H     0.66431   0.13105   0.50661   0.00000  Uiso   1.00
H538   H     0.38328   0.21114   0.89773   0.00000  Uiso   1.00
H539   H     0.44432   0.22011   0.53884   0.00000  Uiso   1.00
H540   H     0.37940   0.24504   0.98495   0.00000  Uiso   1.00
H541   H     0.56883   0.01312   0.75664   0.00000  Uiso   1.00
N542   N     0.64908   0.18074   0.76416   0.00000  Uiso   1.00
N543   N     0.35092   0.15259   0.73584   0.00000  Uiso   1.00
O544   O     0.46131   0.23807   0.74633   0.00000  Uiso   1.00
O545   O     0.56191   0.24755   0.75587   0.00000  Uiso   1.00
O546   O     0.42515   0.15960   0.81840   0.00000  Uiso   1.00
O547   O     0.52575   0.16908   0.82793   0.00000  Uiso   1.00
O548   O     0.43809   0.08578   0.74414   0.00000  Uiso   1.00
O549   O     0.53869   0.09526   0.75367   0.00000  Uiso   1.00
O550   O     0.47425   0.16425   0.67207   0.00000  Uiso   1.00
O551   O     0.57485   0.17373   0.68161   0.00000  Uiso   1.00
C552   C     0.66191   0.18347   0.59829   0.00000  Uiso   1.00
N553   N     0.36836   0.20269   0.61995   0.00000  Uiso   1.00
C554   C     0.44073   0.11944   0.58684   0.00000  Uiso   1.00
N555   N     0.39248   0.09348   0.60197   0.00000  Uiso   1.00
N556   N     0.52763   0.08152   0.87245   0.00000  Uiso   1.00
H557   H     0.56847   0.07104   0.85547   0.00000  Uiso   1.00
C558   C     0.47428   0.03751   0.87826   0.00000  Uiso   1.00
H559   H     0.48941   0.33308   0.86804   0.00000  Uiso   1.00
H560   H     0.44238   0.04235   0.85284   0.00000  Uiso   1.00
H561   H     0.44812   0.03474   0.91776   0.00000  Uiso   1.00
C562   C     0.84846   0.26668   0.75134   0.00000  Uiso   1.00
C563   C     0.81453   0.16536   0.98413   0.00000  Uiso   1.00
C564   C     0.82062   0.14756   0.93312   0.00000  Uiso   1.00
C565   C     0.85226   0.15194   0.51515   0.00000  Uiso   1.00
C566   C     0.90740   0.13676   0.99329   0.00000  Uiso   1.00
C567   C     0.91296   0.11667   0.94352   0.00000  Uiso   1.00
C568   C     0.86547   0.11612   0.91558   0.00000  Uiso   1.00
C569   C     0.83529   0.15037   0.56757   0.00000  Uiso   1.00
C570   C     0.94373   0.16107   0.57296   0.00000  Uiso   1.00
C571   C     0.78427   0.16435   0.90159   0.00000  Uiso   1.00
C572   C     0.85706   0.32267   0.75171   0.00000  Uiso   1.00
C573   C     0.80060   0.16182   0.84653   0.00000  Uiso   1.00
C574   C     0.81025   0.01066   0.74648   0.00000  Uiso   1.00
C575   C     0.81850   0.06667   0.74784   0.00000  Uiso   1.00
C576   C     0.86573   0.16737   0.65303   0.00000  Uiso   1.00
C577   C     0.95378   0.14093   0.52288   0.00000  Uiso   1.00
C578   C     0.88232   0.16083   0.59738   0.00000  Uiso   1.00
C579   C     0.74310   0.19694   0.92164   0.00000  Uiso   1.00
C580   C     0.74134   0.21700   0.97085   0.00000  Uiso   1.00
C581   C     0.77685   0.20149   0.50183   0.00000  Uiso   1.00
Cu582  Cu    0.77377   0.16105   0.74436   0.00000  Uiso   1.00
Cu583  Cu    0.89290   0.17228   0.75565   0.00000  Uiso   1.00
H584   H     0.76511   0.32022   0.74166   0.00000  Uiso   1.00
H585   H     0.67070   0.20638   0.78946   0.00000  Uiso   1.00
H586   H     0.99593   0.12688   0.71061   0.00000  Uiso   1.00
H587   H     0.95134   0.09825   0.92790   0.00000  Uiso   1.00
H588   H     0.99764   0.13105   0.50661   0.00000  Uiso   1.00
H589   H     0.71661   0.21114   0.89773   0.00000  Uiso   1.00
H590   H     0.77766   0.22011   0.53884   0.00000  Uiso   1.00
H591   H     0.71274   0.24504   0.98495   0.00000  Uiso   1.00
H592   H     0.90216   0.01312   0.75664   0.00000  Uiso   1.00
N593   N     0.98241   0.18074   0.76416   0.00000  Uiso   1.00
N594   N     0.68426   0.15259   0.73584   0.00000  Uiso   1.00
O595   O     0.79464   0.23807   0.74633   0.00000  Uiso   1.00
O596   O     0.89524   0.24755   0.75587   0.00000  Uiso   1.00
O597   O     0.75848   0.15960   0.81840   0.00000  Uiso   1.00
O598   O     0.85908   0.16908   0.82793   0.00000  Uiso   1.00
O599   O     0.77142   0.08578   0.74414   0.00000  Uiso   1.00
O600   O     0.87203   0.09526   0.75367   0.00000  Uiso   1.00
O601   O     0.80758   0.16425   0.67207   0.00000  Uiso   1.00
O602   O     0.90819   0.17373   0.68161   0.00000  Uiso   1.00
C603   C     0.99524   0.18347   0.59829   0.00000  Uiso   1.00
N604   N     0.70170   0.20269   0.61995   0.00000  Uiso   1.00
C605   C     0.77406   0.11944   0.58684   0.00000  Uiso   1.00
N606   N     0.72581   0.09348   0.60197   0.00000  Uiso   1.00
N607   N     0.86097   0.08152   0.87245   0.00000  Uiso   1.00
H608   H     0.90180   0.07104   0.85547   0.00000  Uiso   1.00
C609   C     0.80761   0.03751   0.87826   0.00000  Uiso   1.00
H610   H     0.82274   0.33308   0.86804   0.00000  Uiso   1.00
H611   H     0.77572   0.04235   0.85284   0.00000  Uiso   1.00
H612   H     0.78145   0.03474   0.91776   0.00000  Uiso   1.00
C613   C     0.18179   0.60001   0.75134   0.00000  Uiso   1.00
C614   C     0.14786   0.49869   0.98413   0.00000  Uiso   1.00
C615   C     0.15396   0.48090   0.93312   0.00000  Uiso   1.00
C616   C     0.18559   0.48527   0.51515   0.00000  Uiso   1.00
C617   C     0.24074   0.47010   0.99329   0.00000  Uiso   1.00
C618   C     0.24629   0.45001   0.94352   0.00000  Uiso   1.00
C619   C     0.19881   0.44945   0.91558   0.00000  Uiso   1.00
C620   C     0.16862   0.48370   0.56757   0.00000  Uiso   1.00
C621   C     0.27706   0.49440   0.57296   0.00000  Uiso   1.00
C622   C     0.11761   0.49769   0.90159   0.00000  Uiso   1.00
C623   C     0.19039   0.65601   0.75171   0.00000  Uiso   1.00
C624   C     0.13393   0.49515   0.84653   0.00000  Uiso   1.00
C625   C     0.14358   0.34400   0.74648   0.00000  Uiso   1.00
C626   C     0.15183   0.40000   0.74784   0.00000  Uiso   1.00
C627   C     0.19907   0.50070   0.65303   0.00000  Uiso   1.00
C628   C     0.28712   0.47427   0.52288   0.00000  Uiso   1.00
C629   C     0.21566   0.49416   0.59738   0.00000  Uiso   1.00
C630   C     0.07643   0.53027   0.92164   0.00000  Uiso   1.00
C631   C     0.07468   0.55034   0.97085   0.00000  Uiso   1.00
C632   C     0.11018   0.53483   0.50183   0.00000  Uiso   1.00
Cu633  Cu    0.10710   0.49439   0.74436   0.00000  Uiso   1.00
Cu634  Cu    0.22623   0.50561   0.75565   0.00000  Uiso   1.00
H635   H     0.09844   0.65356   0.74166   0.00000  Uiso   1.00
H636   H     0.00404   0.53972   0.78946   0.00000  Uiso   1.00
H637   H     0.32926   0.46021   0.71061   0.00000  Uiso   1.00
H638   H     0.28468   0.43158   0.92790   0.00000  Uiso   1.00
H639   H     0.33097   0.46438   0.50661   0.00000  Uiso   1.00
H640   H     0.04994   0.54447   0.89773   0.00000  Uiso   1.00
H641   H     0.11099   0.55345   0.53884   0.00000  Uiso   1.00
H642   H     0.04607   0.57837   0.98495   0.00000  Uiso   1.00
H643   H     0.23549   0.34646   0.75664   0.00000  Uiso   1.00
N644   N     0.31574   0.51407   0.76416   0.00000  Uiso   1.00
N645   N     0.01759   0.48593   0.73584   0.00000  Uiso   1.00
O646   O     0.12797   0.57141   0.74633   0.00000  Uiso   1.00
O647   O     0.22858   0.58089   0.75587   0.00000  Uiso   1.00
O648   O     0.09181   0.49293   0.81840   0.00000  Uiso   1.00
O649   O     0.19242   0.50241   0.82793   0.00000  Uiso   1.00
O650   O     0.10476   0.41911   0.74414   0.00000  Uiso   1.00
O651   O     0.20536   0.42859   0.75367   0.00000  Uiso   1.00
O652   O     0.14092   0.49759   0.67207   0.00000  Uiso   1.00
O653   O     0.24152   0.50707   0.68161   0.00000  Uiso   1.00
C654   C     0.32857   0.51680   0.59829   0.00000  Uiso   1.00
N655   N     0.03503   0.53603   0.61995   0.00000  Uiso   1.00
C656   C     0.10739   0.45277   0.58684   0.00000  Uiso   1.00
N657   N     0.05915   0.42682   0.60197   0.00000  Uiso   1.00
N658   N     0.19430   0.41485   0.87245   0.00000  Uiso   1.00
H659   H     0.23514   0.40437   0.85547   0.00000  Uiso   1.00
C660   C     0.14094   0.37084   0.87826   0.00000  Uiso   1.00
H661   H     0.15608   0.66641   0.86804   0.00000  Uiso   1.00
H662   H     0.10905   0.37568   0.85284   0.00000  Uiso   1.00
H663   H     0.11478   0.36808   0.91776   0.00000  Uiso   1.00
C664   C     0.51513   0.60001   0.75134   0.00000  Uiso   1.00
C665   C     0.48119   0.49869   0.98413   0.00000  Uiso   1.00
C666   C     0.48729   0.48090   0.93312   0.00000  Uiso   1.00
C667   C     0.51892   0.48527   0.51515   0.00000  Uiso   1.00
C668   C     0.57407   0.47010   0.99329   0.00000  Uiso   1.00
C669   C     0.57962   0.45001   0.94352   0.00000  Uiso   1.00
C670   C     0.53214   0.44945   0.91558   0.00000  Uiso   1.00
C671   C     0.50195   0.48370   0.56757   0.00000  Uiso   1.00
C672   C     0.61039   0.49440   0.57296   0.00000  Uiso   1.00
C673   C     0.45094   0.49769   0.90159   0.00000  Uiso   1.00
C674   C     0.52372   0.65601   0.75171   0.00000  Uiso   1.00
C675   C     0.46727   0.49515   0.84653   0.00000  Uiso   1.00
C676   C     0.47692   0.34400   0.74648   0.00000  Uiso   1.00
C677   C     0.48516   0.40000   0.74784   0.00000  Uiso   1.00
C678   C     0.53240   0.50070   0.65303   0.00000  Uiso   1.00
C679   C     0.62045   0.47427   0.52288   0.00000  Uiso   1.00
C680   C     0.54899   0.49416   0.59738   0.00000  Uiso   1.00
C681   C     0.40977   0.53027   0.92164   0.00000  Uiso   1.00
C682   C     0.40801   0.55034   0.97085   0.00000  Uiso   1.00
C683   C     0.44351   0.53483   0.50183   0.00000  Uiso   1.00
Cu684  Cu    0.44043   0.49439   0.74436   0.00000  Uiso   1.00
Cu685  Cu    0.55957   0.50561   0.75565   0.00000  Uiso   1.00
H686   H     0.43177   0.65356   0.74166   0.00000  Uiso   1.00
H687   H     0.33737   0.53972   0.78946   0.00000  Uiso   1.00
H688   H     0.66259   0.46021   0.71061   0.00000  Uiso   1.00
H689   H     0.61801   0.43158   0.92790   0.00000  Uiso   1.00
H690   H     0.66431   0.46438   0.50661   0.00000  Uiso   1.00
H691   H     0.38328   0.54447   0.89773   0.00000  Uiso   1.00
H692   H     0.44432   0.55345   0.53884   0.00000  Uiso   1.00
H693   H     0.37940   0.57837   0.98495   0.00000  Uiso   1.00
H694   H     0.56883   0.34646   0.75664   0.00000  Uiso   1.00
N695   N     0.64908   0.51407   0.76416   0.00000  Uiso   1.00
N696   N     0.35092   0.48593   0.73584   0.00000  Uiso   1.00
O697   O     0.46131   0.57141   0.74633   0.00000  Uiso   1.00
O698   O     0.56191   0.58089   0.75587   0.00000  Uiso   1.00
O699   O     0.42515   0.49293   0.81840   0.00000  Uiso   1.00
O700   O     0.52575   0.50241   0.82793   0.00000  Uiso   1.00
O701   O     0.43809   0.41911   0.74414   0.00000  Uiso   1.00
O702   O     0.53869   0.42859   0.75367   0.00000  Uiso   1.00
O703   O     0.47425   0.49759   0.67207   0.00000  Uiso   1.00
O704   O     0.57485   0.50707   0.68161   0.00000  Uiso   1.00
C705   C     0.66191   0.51680   0.59829   0.00000  Uiso   1.00
N706   N     0.36836   0.53603   0.61995   0.00000  Uiso   1.00
C707   C     0.44073   0.45277   0.58684   0.00000  Uiso   1.00
N708   N     0.39248   0.42682   0.60197   0.00000  Uiso   1.00
N709   N     0.52763   0.41485   0.87245   0.00000  Uiso   1.00
H710   H     0.56847   0.40437   0.85547   0.00000  Uiso   1.00
C711   C     0.47428   0.37084   0.87826   0.00000  Uiso   1.00
H712   H     0.48941   0.66641   0.86804   0.00000  Uiso   1.00
H713   H     0.44238   0.37568   0.85284   0.00000  Uiso   1.00
H714   H     0.44812   0.36808   0.91776   0.00000  Uiso   1.00
C715   C     0.84846   0.60001   0.75134   0.00000  Uiso   1.00
C716   C     0.81453   0.49869   0.98413   0.00000  Uiso   1.00
C717   C     0.82062   0.48090   0.93312   0.00000  Uiso   1.00
C718   C     0.85226   0.48527   0.51515   0.00000  Uiso   1.00
C719   C     0.90740   0.47010   0.99329   0.00000  Uiso   1.00
C720   C     0.91296   0.45001   0.94352   0.00000  Uiso   1.00
C721   C     0.86547   0.44945   0.91558   0.00000  Uiso   1.00
C722   C     0.83529   0.48370   0.56757   0.00000  Uiso   1.00
C723   C     0.94373   0.49440   0.57296   0.00000  Uiso   1.00
C724   C     0.78427   0.49769   0.90159   0.00000  Uiso   1.00
C725   C     0.85706   0.65601   0.75171   0.00000  Uiso   1.00
C726   C     0.80060   0.49515   0.84653   0.00000  Uiso   1.00
C727   C     0.81025   0.34400   0.74648   0.00000  Uiso   1.00
C728   C     0.81850   0.40000   0.74784   0.00000  Uiso   1.00
C729   C     0.86573   0.50070   0.65303   0.00000  Uiso   1.00
C730   C     0.95378   0.47427   0.52288   0.00000  Uiso   1.00
C731   C     0.88232   0.49416   0.59738   0.00000  Uiso   1.00
C732   C     0.74310   0.53027   0.92164   0.00000  Uiso   1.00
C733   C     0.74134   0.55034   0.97085   0.00000  Uiso   1.00
C734   C     0.77685   0.53483   0.50183   0.00000  Uiso   1.00
Cu735  Cu    0.77377   0.49439   0.74436   0.00000  Uiso   1.00
Cu736  Cu    0.89290   0.50561   0.75565   0.00000  Uiso   1.00
H737   H     0.76511   0.65356   0.74166   0.00000  Uiso   1.00
H738   H     0.67070   0.53972   0.78946   0.00000  Uiso   1.00
H739   H     0.99593   0.46021   0.71061   0.00000  Uiso   1.00
H740   H     0.95134   0.43158   0.92790   0.00000  Uiso   1.00
H741   H     0.99764   0.46438   0.50661   0.00000  Uiso   1.00
H742   H     0.71661   0.54447   0.89773   0.00000  Uiso   1.00
H743   H     0.77766   0.55345   0.53884   0.00000  Uiso   1.00
H744   H     0.71274   0.57837   0.98495   0.00000  Uiso   1.00
H745   H     0.90216   0.34646   0.75664   0.00000  Uiso   1.00
N746   N     0.98241   0.51407   0.76416   0.00000  Uiso   1.00
N747   N     0.68426   0.48593   0.73584   0.00000  Uiso   1.00
O748   O     0.79464   0.57141   0.74633   0.00000  Uiso   1.00
O749   O     0.89524   0.58089   0.75587   0.00000  Uiso   1.00
O750   O     0.75848   0.49293   0.81840   0.00000  Uiso   1.00
O751   O     0.85908   0.50241   0.82793   0.00000  Uiso   1.00
O752   O     0.77142   0.41911   0.74414   0.00000  Uiso   1.00
O753   O     0.87203   0.42859   0.75367   0.00000  Uiso   1.00
O754   O     0.80758   0.49759   0.67207   0.00000  Uiso   1.00
O755   O     0.90819   0.50707   0.68161   0.00000  Uiso   1.00
C756   C     0.99524   0.51680   0.59829   0.00000  Uiso   1.00
N757   N     0.70170   0.53603   0.61995   0.00000  Uiso   1.00
C758   C     0.77406   0.45277   0.58684   0.00000  Uiso   1.00
N759   N     0.72581   0.42682   0.60197   0.00000  Uiso   1.00
N760   N     0.86097   0.41485   0.87245   0.00000  Uiso   1.00
H761   H     0.90180   0.40437   0.85547   0.00000  Uiso   1.00
C762   C     0.80761   0.37084   0.87826   0.00000  Uiso   1.00
H763   H     0.82274   0.66641   0.86804   0.00000  Uiso   1.00
H764   H     0.77572   0.37568   0.85284   0.00000  Uiso   1.00
H765   H     0.78145   0.36808   0.91776   0.00000  Uiso   1.00
C766   C     0.18179   0.93334   0.75134   0.00000  Uiso   1.00
C767   C     0.14786   0.83202   0.98413   0.00000  Uiso   1.00
C768   C     0.15396   0.81423   0.93312   0.00000  Uiso   1.00
C769   C     0.18559   0.81861   0.51515   0.00000  Uiso   1.00
C770   C     0.24074   0.80343   0.99329   0.00000  Uiso   1.00
C771   C     0.24629   0.78334   0.94352   0.00000  Uiso   1.00
C772   C     0.19881   0.78279   0.91558   0.00000  Uiso   1.00
C773   C     0.16862   0.81704   0.56757   0.00000  Uiso   1.00
C774   C     0.27706   0.82773   0.57296   0.00000  Uiso   1.00
C775   C     0.11761   0.83102   0.90159   0.00000  Uiso   1.00
C776   C     0.19039   0.98934   0.75171   0.00000  Uiso   1.00
C777   C     0.13393   0.82849   0.84653   0.00000  Uiso   1.00
C778   C     0.14358   0.67733   0.74648   0.00000  Uiso   1.00
C779   C     0.15183   0.73333   0.74784   0.00000  Uiso   1.00
C780   C     0.19907   0.83404   0.65303   0.00000  Uiso   1.00
C781   C     0.28712   0.80760   0.52288   0.00000  Uiso   1.00
C782   C     0.21566   0.82749   0.59738   0.00000  Uiso   1.00
C783   C     0.07643   0.86361   0.92164   0.00000  Uiso   1.00
C784   C     0.07468   0.88367   0.97085   0.00000  Uiso   1.00
C785   C     0.11018   0.86816   0.50183   0.00000  Uiso   1.00
Cu786  Cu    0.10710   0.82772   0.74436   0.00000  Uiso   1.00
Cu787  Cu    0.22623   0.83895   0.75565   0.00000  Uiso   1.00
H788   H     0.09844   0.98689   0.74166   0.00000  Uiso   1.00
H789   H     0.00404   0.87305   0.78946   0.00000  Uiso   1.00
H790   H     0.32926   0.79354   0.71061   0.00000  Uiso   1.00
H791   H     0.28468   0.76491   0.92790   0.00000  Uiso   1.00
H792   H     0.33097   0.79772   0.50661   0.00000  Uiso   1.00
H793   H     0.04994   0.87780   0.89773   0.00000  Uiso   1.00
H794   H     0.11099   0.88678   0.53884   0.00000  Uiso   1.00
H795   H     0.04607   0.91171   0.98495   0.00000  Uiso   1.00
H796   H     0.23549   0.67979   0.75664   0.00000  Uiso   1.00
N797   N     0.31574   0.84741   0.76416   0.00000  Uiso   1.00
N798   N     0.01759   0.81926   0.73584   0.00000  Uiso   1.00
O799   O     0.12797   0.90474   0.74633   0.00000  Uiso   1.00
O800   O     0.22858   0.91422   0.75587   0.00000  Uiso   1.00
O801   O     0.09181   0.82627   0.81840   0.00000  Uiso   1.00
O802   O     0.19242   0.83575   0.82793   0.00000  Uiso   1.00
O803   O     0.10476   0.75245   0.74414   0.00000  Uiso   1.00
O804   O     0.20536   0.76193   0.75367   0.00000  Uiso   1.00
O805   O     0.14092   0.83092   0.67207   0.00000  Uiso   1.00
O806   O     0.24152   0.84040   0.68161   0.00000  Uiso   1.00
C807   C     0.32857   0.85014   0.59829   0.00000  Uiso   1.00
N808   N     0.03503   0.86936   0.61995   0.00000  Uiso   1.00
C809   C     0.10739   0.78611   0.58684   0.00000  Uiso   1.00
N810   N     0.05915   0.76015   0.60197   0.00000  Uiso   1.00
N811   N     0.19430   0.74818   0.87245   0.00000  Uiso   1.00
H812   H     0.23514   0.73770   0.85547   0.00000  Uiso   1.00
C813   C     0.14094   0.70418   0.87826   0.00000  Uiso   1.00
H814   H     0.15608   0.99974   0.86804   0.00000  Uiso   1.00
H815   H     0.10905   0.70902   0.85284   0.00000  Uiso   1.00
H816   H     0.11478   0.70141   0.91776   0.00000  Uiso   1.00
C817   C     0.51513   0.93334   0.75134   0.00000  Uiso   1.00
C818   C     0.48119   0.83202   0.98413   0.00000  Uiso   1.00
C819   C     0.48729   0.81423   0.93312   0.00000  Uiso   1.00
C820   C     0.51892   0.81861   0.51515   0.00000  Uiso   1.00
C821   C     0.57407   0.80343   0.99329   0.00000  Uiso   1.00
C822   C     0.57962   0.78334   0.94352   0.00000  Uiso   1.00
C823   C     0.53214   0.78279   0.91558   0.00000  Uiso   1.00
C824   C     0.50195   0.81704   0.56757   0.00000  Uiso   1.00
C825   C     0.61039   0.82773   0.57296   0.00000  Uiso   1.00
C826   C     0.45094   0.83102   0.90159   0.00000  Uiso   1.00
C827   C     0.52372   0.98934   0.75171   0.00000  Uiso   1.00
C828   C     0.46727   0.82849   0.84653   0.00000  Uiso   1.00
C829   C     0.47692   0.67733   0.74648   0.00000  Uiso   1.00
C830   C     0.48516   0.73333   0.74784   0.00000  Uiso   1.00
C831   C     0.53240   0.83404   0.65303   0.00000  Uiso   1.00
C832   C     0.62045   0.80760   0.52288   0.00000  Uiso   1.00
C833   C     0.54899   0.82749   0.59738   0.00000  Uiso   1.00
C834   C     0.40977   0.86361   0.92164   0.00000  Uiso   1.00
C835   C     0.40801   0.88367   0.97085   0.00000  Uiso   1.00
C836   C     0.44351   0.86816   0.50183   0.00000  Uiso   1.00
Cu837  Cu    0.44043   0.82772   0.74436   0.00000  Uiso   1.00
Cu838  Cu    0.55957   0.83895   0.75565   0.00000  Uiso   1.00
H839   H     0.43177   0.98689   0.74166   0.00000  Uiso   1.00
H840   H     0.33737   0.87305   0.78946   0.00000  Uiso   1.00
H841   H     0.66259   0.79354   0.71061   0.00000  Uiso   1.00
H842   H     0.61801   0.76491   0.92790   0.00000  Uiso   1.00
H843   H     0.66431   0.79772   0.50661   0.00000  Uiso   1.00
H844   H     0.38328   0.87780   0.89773   0.00000  Uiso   1.00
H845   H     0.44432   0.88678   0.53884   0.00000  Uiso   1.00
H846   H     0.37940   0.91171   0.98495   0.00000  Uiso   1.00
H847   H     0.56883   0.67979   0.75664   0.00000  Uiso   1.00
N848   N     0.64908   0.84741   0.76416   0.00000  Uiso   1.00
N849   N     0.35092   0.81926   0.73584   0.00000  Uiso   1.00
O850   O     0.46131   0.90474   0.74633   0.00000  Uiso   1.00
O851   O     0.56191   0.91422   0.75587   0.00000  Uiso   1.00
O852   O     0.42515   0.82627   0.81840   0.00000  Uiso   1.00
O853   O     0.52575   0.83575   0.82793   0.00000  Uiso   1.00
O854   O     0.43809   0.75245   0.74414   0.00000  Uiso   1.00
O855   O     0.53869   0.76193   0.75367   0.00000  Uiso   1.00
O856   O     0.47425   0.83092   0.67207   0.00000  Uiso   1.00
O857   O     0.57485   0.84040   0.68161   0.00000  Uiso   1.00
C858   C     0.66191   0.85014   0.59829   0.00000  Uiso   1.00
N859   N     0.36836   0.86936   0.61995   0.00000  Uiso   1.00
C860   C     0.44073   0.78611   0.58684   0.00000  Uiso   1.00
N861   N     0.39248   0.76015   0.60197   0.00000  Uiso   1.00
N862   N     0.52763   0.74818   0.87245   0.00000  Uiso   1.00
H863   H     0.56847   0.73770   0.85547   0.00000  Uiso   1.00
C864   C     0.47428   0.70418   0.87826   0.00000  Uiso   1.00
H865   H     0.48941   0.99974   0.86804   0.00000  Uiso   1.00
H866   H     0.44238   0.70902   0.85284   0.00000  Uiso   1.00
H867   H     0.44812   0.70141   0.91776   0.00000  Uiso   1.00
C868   C     0.84846   0.93334   0.75134   0.00000  Uiso   1.00
C869   C     0.81453   0.83202   0.98413   0.00000  Uiso   1.00
C870   C     0.82062   0.81423   0.93312   0.00000  Uiso   1.00
C871   C     0.85226   0.81861   0.51515   0.00000  Uiso   1.00
C872   C     0.90740   0.80343   0.99329   0.00000  Uiso   1.00
C873   C     0.91296   0.78334   0.94352   0.00000  Uiso   1.00
C874   C     0.86547   0.78279   0.91558   0.00000  Uiso   1.00
C875   C     0.83529   0.81704   0.56757   0.00000  Uiso   1.00
C876   C     0.94373   0.82773   0.57296   0.00000  Uiso   1.00
C877   C     0.78427   0.83102   0.90159   0.00000  Uiso   1.00
C878   C     0.85706   0.98934   0.75171   0.00000  Uiso   1.00
C879   C     0.80060   0.82849   0.84653   0.00000  Uiso   1.00
C880   C     0.81025   0.67733   0.74648   0.00000  Uiso   1.00
C881   C     0.81850   0.73333   0.74784   0.00000  Uiso   1.00
C882   C     0.86573   0.83404   0.65303   0.00000  Uiso   1.00
C883   C     0.95378   0.80760   0.52288   0.00000  Uiso   1.00
C884   C     0.88232   0.82749   0.59738   0.00000  Uiso   1.00
C885   C     0.74310   0.86361   0.92164   0.00000  Uiso   1.00
C886   C     0.74134   0.88367   0.97085   0.00000  Uiso   1.00
C887   C     0.77685   0.86816   0.50183   0.00000  Uiso   1.00
Cu888  Cu    0.77377   0.82772   0.74436   0.00000  Uiso   1.00
Cu889  Cu    0.89290   0.83895   0.75565   0.00000  Uiso   1.00
H890   H     0.76511   0.98689   0.74166   0.00000  Uiso   1.00
H891   H     0.67070   0.87305   0.78946   0.00000  Uiso   1.00
H892   H     0.99593   0.79354   0.71061   0.00000  Uiso   1.00
H893   H     0.95134   0.76491   0.92790   0.00000  Uiso   1.00
H894   H     0.99764   0.79772   0.50661   0.00000  Uiso   1.00
H895   H     0.71661   0.87780   0.89773   0.00000  Uiso   1.00
H896   H     0.77766   0.88678   0.53884   0.00000  Uiso   1.00
H897   H     0.71274   0.91171   0.98495   0.00000  Uiso   1.00
H898   H     0.90216   0.67979   0.75664   0.00000  Uiso   1.00
N899   N     0.98241   0.84741   0.76416   0.00000  Uiso   1.00
N900   N     0.68426   0.81926   0.73584   0.00000  Uiso   1.00
O901   O     0.79464   0.90474   0.74633   0.00000  Uiso   1.00
O902   O     0.89524   0.91422   0.75587   0.00000  Uiso   1.00
O903   O     0.75848   0.82627   0.81840   0.00000  Uiso   1.00
O904   O     0.85908   0.83575   0.82793   0.00000  Uiso   1.00
O905   O     0.77142   0.75245   0.74414   0.00000  Uiso   1.00
O906   O     0.87203   0.76193   0.75367   0.00000  Uiso   1.00
O907   O     0.80758   0.83092   0.67207   0.00000  Uiso   1.00
O908   O     0.90819   0.84040   0.68161   0.00000  Uiso   1.00
C909   C     0.99524   0.85014   0.59829   0.00000  Uiso   1.00
N910   N     0.70170   0.86936   0.61995   0.00000  Uiso   1.00
C911   C     0.77406   0.78611   0.58684   0.00000  Uiso   1.00
N912   N     0.72581   0.76015   0.60197   0.00000  Uiso   1.00
N913   N     0.86097   0.74818   0.87245   0.00000  Uiso   1.00
H914   H     0.90180   0.73770   0.85547   0.00000  Uiso   1.00
C915   C     0.80761   0.70418   0.87826   0.00000  Uiso   1.00
H916   H     0.82274   0.99974   0.86804   0.00000  Uiso   1.00
H917   H     0.77572   0.70902   0.85284   0.00000  Uiso   1.00
H918   H     0.78145   0.70141   0.91776   0.00000  Uiso   1.00
loop_
_geom_bond_atom_site_label_1
_geom_bond_atom_site_label_2
_geom_bond_distance
_geom_bond_site_symmetry_2
_ccdc_geom_bond_type
C1     C11     1.425   .     S
C1     O34     1.294   .     A
C1     O35     1.287   .     A
C2     C3      1.410   .     A
C2     C463    1.403   .     S
C2     C479    1.405   .     S
C3     C10     1.429   .     A
C3     C7      1.432   .     A
C4     C8      1.391   .     A
C4     C461    1.403   1_554 S
C4     C464    1.398   1_554 S
C5     C6      1.398   .     A
C5     C463    1.398   .     S
C5     C475    1.405   .     S
C6     C7      1.410   .     A
C6     H26     1.084   .     S
C7     N46     1.424   .     S
C8     C17     1.409   .     A
C8     C44     1.450   .     S
C9     C42     1.441   .     S
C9     C17     1.413   .     A
C9     C16     1.409   .     A
C10    C18     1.404   .     A
C10    C12     1.458   .     S
C11    C166    1.327   .     S
C11    H184    1.088   .     S
C12    O36     1.306   .     A
C12    O37     1.292   .     A
C13    C14     1.425   .     S
C13    C317    1.327   1_545 S
C13    H329    1.088   1_545 S
C14    O38     1.287   .     A
C14    O39     1.294   .     A
C15    O41     1.307   .     A
C15    O40     1.298   .     A
C15    C17     1.481   .     S
C16    H27     1.080   .     S
C16    C464    1.405   1_554 S
C18    H28     1.084   .     S
C18    C19     1.386   .     A
C19    H30     1.083   .     S
C19    C479    1.388   .     S
C20    H29     1.079   .     S
C20    C478    1.388   1_554 S
C20    C461    1.405   1_554 S
Cu21   O40     1.951   .     S
Cu21   N33     2.027   .     S
Cu21   O36     1.958   .     S
Cu21   O34     1.951   .     S
Cu21   Cu22    2.697   .     S
Cu21   O38     1.946   .     S
Cu22   O37     1.951   .     S
Cu22   O35     1.946   .     S
Cu22   N32     2.027   .     S
Cu22   O39     1.951   .     S
Cu22   O41     1.958   .     S
H23    C166    1.088   .     S
H24    N134    1.029   1_455 S
H25    N84     1.029   .     S
H31    C317    1.088   1_545 S
N32    H75     1.029   .     S
N32    N84     1.305   .     S
N33    N134    1.305   1_455 S
N33    H127    1.029   1_455 S
C42    N94     1.158   .     S
N43    C144    1.158   1_455 S
C44    N45     1.158   .     T
N46    C48     1.452   .     S
N46    H47     1.032   .     S
C48    H50     1.108   .     S
C48    H51     1.113   .     S
C48    H355    1.111   1_545 S
H49    C201    1.111   .     S
C52    C62     1.425   .     S
C52    O85     1.294   .     A
C52    O86     1.287   .     A
C53    C54     1.410   .     A
C53    C514    1.403   .     S
C53    C530    1.405   .     S
C54    C61     1.429   .     A
C54    C58     1.432   .     A
C55    C59     1.391   .     A
C55    C512    1.403   1_554 S
C55    C515    1.398   1_554 S
C56    C57     1.398   .     A
C56    C514    1.398   .     S
C56    C526    1.405   .     S
C57    C58     1.410   .     A
C57    H77     1.084   .     S
C58    N97     1.424   .     S
C59    C68     1.409   .     A
C59    C95     1.450   .     S
C60    C93     1.441   .     S
C60    C68     1.413   .     A
C60    C67     1.409   .     A
C61    C69     1.404   .     A
C61    C63     1.458   .     S
C62    C217    1.327   .     S
C62    H235    1.088   .     S
C63    O87     1.306   .     A
C63    O88     1.292   .     A
C64    C65     1.425   .     S
C64    C368    1.327   1_545 S
C64    H380    1.088   1_545 S
C65    O89     1.287   .     A
C65    O90     1.294   .     A
C66    O92     1.307   .     A
C66    O91     1.298   .     A
C66    C68     1.481   .     S
C67    H78     1.080   .     S
C67    C515    1.405   1_554 S
C69    H79     1.084   .     S
C69    C70     1.386   .     A
C70    H81     1.083   .     S
C70    C530    1.388   .     S
C71    H80     1.079   .     S
C71    C529    1.388   1_554 S
C71    C512    1.405   1_554 S
Cu72   O91     1.951   .     S
Cu72   N84     2.027   .     S
Cu72   O87     1.958   .     S
Cu72   O85     1.951   .     S
Cu72   Cu73    2.697   .     S
Cu72   O89     1.946   .     S
Cu73   O88     1.951   .     S
Cu73   O86     1.946   .     S
Cu73   N83     2.027   .     S
Cu73   O90     1.951   .     S
Cu73   O92     1.958   .     S
H74    C217    1.088   .     S
H76    N135    1.029   .     S
H82    C368    1.088   1_545 S
N83    H126    1.029   .     S
N83    N135    1.305   .     S
C93    N145    1.158   .     S
C95    N96     1.158   .     T
N97    C99     1.452   .     S
N97    H98     1.032   .     S
C99    H101    1.108   .     S
C99    H102    1.113   .     S
C99    H406    1.111   1_545 S
H100   C252    1.111   .     S
C103   C113    1.425   .     S
C103   O136    1.294   .     A
C103   O137    1.287   .     A
C104   C105    1.410   .     A
C104   C565    1.403   .     S
C104   C581    1.405   .     S
C105   C112    1.429   .     A
C105   C109    1.432   .     A
C106   C110    1.391   .     A
C106   C563    1.403   1_554 S
C106   C566    1.398   1_554 S
C107   C108    1.398   .     A
C107   C565    1.398   .     S
C107   C577    1.405   .     S
C108   C109    1.410   .     A
C108   H128    1.084   .     S
C109   N148    1.424   .     S
C110   C119    1.409   .     A
C110   C146    1.450   .     S
C111   C144    1.441   .     S
C111   C119    1.413   .     A
C111   C118    1.409   .     A
C112   C120    1.404   .     A
C112   C114    1.458   .     S
C113   C268    1.327   .     S
C113   H286    1.088   .     S
C114   O138    1.306   .     A
C114   O139    1.292   .     A
C115   C116    1.425   .     S
C115   C419    1.327   1_545 S
C115   H431    1.088   1_545 S
C116   O140    1.287   .     A
C116   O141    1.294   .     A
C117   O143    1.307   .     A
C117   O142    1.298   .     A
C117   C119    1.481   .     S
C118   H129    1.080   .     S
C118   C566    1.405   1_554 S
C120   H130    1.084   .     S
C120   C121    1.386   .     A
C121   H132    1.083   .     S
C121   C581    1.388   .     S
C122   H131    1.079   .     S
C122   C580    1.388   1_554 S
C122   C563    1.405   1_554 S
Cu123  O142    1.951   .     S
Cu123  N135    2.027   .     S
Cu123  O138    1.958   .     S
Cu123  O136    1.951   .     S
Cu123  Cu124   2.697   .     S
Cu123  O140    1.946   .     S
Cu124  O139    1.951   .     S
Cu124  O137    1.946   .     S
Cu124  N134    2.027   .     S
Cu124  O141    1.951   .     S
Cu124  O143    1.958   .     S
H125   C268    1.088   .     S
H127   N33     1.029   1_655 S
H133   C419    1.088   1_545 S
N134   H24     1.029   1_655 S
N134   N33     1.305   1_655 S
C144   N43     1.158   1_655 S
C146   N147    1.158   .     T
N148   C150    1.452   .     S
N148   H149    1.032   .     S
C150   H152    1.108   .     S
C150   H153    1.113   .     S
C150   H457    1.111   1_545 S
H151   C303    1.111   .     S
C154   C164    1.425   .     S
C154   O187    1.294   .     A
C154   O188    1.287   .     A
C155   C156    1.410   .     A
C155   C616    1.403   .     S
C155   C632    1.405   .     S
C156   C163    1.429   .     A
C156   C160    1.432   .     A
C157   C161    1.391   .     A
C157   C614    1.403   1_554 S
C157   C617    1.398   1_554 S
C158   C159    1.398   .     A
C158   C616    1.398   .     S
C158   C628    1.405   .     S
C159   C160    1.410   .     A
C159   H179    1.084   .     S
C160   N199    1.424   .     S
C161   C170    1.409   .     A
C161   C197    1.450   .     S
C162   C195    1.441   .     S
C162   C170    1.413   .     A
C162   C169    1.409   .     A
C163   C171    1.404   .     A
C163   C165    1.458   .     S
C164   C319    1.327   .     S
C164   H337    1.088   .     S
C165   O189    1.306   .     A
C165   O190    1.292   .     A
C166   C167    1.425   .     S
C167   O191    1.287   .     A
C167   O192    1.294   .     A
C168   O194    1.307   .     A
C168   O193    1.298   .     A
C168   C170    1.481   .     S
C169   H180    1.080   .     S
C169   C617    1.405   1_554 S
C171   H181    1.084   .     S
C171   C172    1.386   .     A
C172   H183    1.083   .     S
C172   C632    1.388   .     S
C173   H182    1.079   .     S
C173   C631    1.388   1_554 S
C173   C614    1.405   1_554 S
Cu174  O193    1.951   .     S
Cu174  N186    2.027   .     S
Cu174  O189    1.958   .     S
Cu174  O187    1.951   .     S
Cu174  Cu175   2.697   .     S
Cu174  O191    1.946   .     S
Cu175  O190    1.951   .     S
Cu175  O188    1.946   .     S
Cu175  N185    2.027   .     S
Cu175  O192    1.951   .     S
Cu175  O194    1.958   .     S
H176   C319    1.088   .     S
H177   N287    1.029   1_455 S
H178   N237    1.029   .     S
N185   H228    1.029   .     S
N185   N237    1.305   .     S
N186   N287    1.305   1_455 S
N186   H280    1.029   1_455 S
C195   N247    1.158   .     S
N196   C297    1.158   1_455 S
C197   N198    1.158   .     T
N199   C201    1.452   .     S
N199   H200    1.032   .     S
C201   H203    1.108   .     S
C201   H204    1.113   .     S
H202   C354    1.111   .     S
C205   C215    1.425   .     S
C205   O238    1.294   .     A
C205   O239    1.287   .     A
C206   C207    1.410   .     A
C206   C667    1.403   .     S
C206   C683    1.405   .     S
C207   C214    1.429   .     A
C207   C211    1.432   .     A
C208   C212    1.391   .     A
C208   C665    1.403   1_554 S
C208   C668    1.398   1_554 S
C209   C210    1.398   .     A
C209   C667    1.398   .     S
C209   C679    1.405   .     S
C210   C211    1.410   .     A
C210   H230    1.084   .     S
C211   N250    1.424   .     S
C212   C221    1.409   .     A
C212   C248    1.450   .     S
C213   C246    1.441   .     S
C213   C221    1.413   .     A
C213   C220    1.409   .     A
C214   C222    1.404   .     A
C214   C216    1.458   .     S
C215   C370    1.327   .     S
C215   H388    1.088   .     S
C216   O240    1.306   .     A
C216   O241    1.292   .     A
C217   C218    1.425   .     S
C218   O242    1.287   .     A
C218   O243    1.294   .     A
C219   O245    1.307   .     A
C219   O244    1.298   .     A
C219   C221    1.481   .     S
C220   H231    1.080   .     S
C220   C668    1.405   1_554 S
C222   H232    1.084   .     S
C222   C223    1.386   .     A
C223   H234    1.083   .     S
C223   C683    1.388   .     S
C224   H233    1.079   .     S
C224   C682    1.388   1_554 S
C224   C665    1.405   1_554 S
Cu225  O244    1.951   .     S
Cu225  N237    2.027   .     S
Cu225  O240    1.958   .     S
Cu225  O238    1.951   .     S
Cu225  Cu226   2.697   .     S
Cu225  O242    1.946   .     S
Cu226  O241    1.951   .     S
Cu226  O239    1.946   .     S
Cu226  N236    2.027   .     S
Cu226  O243    1.951   .     S
Cu226  O245    1.958   .     S
H227   C370    1.088   .     S
H229   N288    1.029   .     S
N236   H279    1.029   .     S
N236   N288    1.305   .     S
C246   N298    1.158   .     S
C248   N249    1.158   .     T
N250   C252    1.452   .     S
N250   H251    1.032   .     S
C252   H254    1.108   .     S
C252   H255    1.113   .     S
H253   C405    1.111   .     S
C256   C266    1.425   .     S
C256   O289    1.294   .     A
C256   O290    1.287   .     A
C257   C258    1.410   .     A
C257   C718    1.403   .     S
C257   C734    1.405   .     S
C258   C265    1.429   .     A
C258   C262    1.432   .     A
C259   C263    1.391   .     A
C259   C716    1.403   1_554 S
C259   C719    1.398   1_554 S
C260   C261    1.398   .     A
C260   C718    1.398   .     S
C260   C730    1.405   .     S
C261   C262    1.410   .     A
C261   H281    1.084   .     S
C262   N301    1.424   .     S
C263   C272    1.409   .     A
C263   C299    1.450   .     S
C264   C297    1.441   .     S
C264   C272    1.413   .     A
C264   C271    1.409   .     A
C265   C273    1.404   .     A
C265   C267    1.458   .     S
C266   C421    1.327   .     S
C266   H439    1.088   .     S
C267   O291    1.306   .     A
C267   O292    1.292   .     A
C268   C269    1.425   .     S
C269   O293    1.287   .     A
C269   O294    1.294   .     A
C270   O296    1.307   .     A
C270   O295    1.298   .     A
C270   C272    1.481   .     S
C271   H282    1.080   .     S
C271   C719    1.405   1_554 S
C273   H283    1.084   .     S
C273   C274    1.386   .     A
C274   H285    1.083   .     S
C274   C734    1.388   .     S
C275   H284    1.079   .     S
C275   C733    1.388   1_554 S
C275   C716    1.405   1_554 S
Cu276  O295    1.951   .     S
Cu276  N288    2.027   .     S
Cu276  O291    1.958   .     S
Cu276  O289    1.951   .     S
Cu276  Cu277   2.697   .     S
Cu276  O293    1.946   .     S
Cu277  O292    1.951   .     S
Cu277  O290    1.946   .     S
Cu277  N287    2.027   .     S
Cu277  O294    1.951   .     S
Cu277  O296    1.958   .     S
H278   C421    1.088   .     S
H280   N186    1.029   1_655 S
N287   H177    1.029   1_655 S
N287   N186    1.305   1_655 S
C297   N196    1.158   1_655 S
C299   N300    1.158   .     T
N301   C303    1.452   .     S
N301   H302    1.032   .     S
C303   H305    1.108   .     S
C303   H306    1.113   .     S
H304   C456    1.111   .     S
C307   C317    1.425   .     S
C307   O340    1.294   .     A
C307   O341    1.287   .     A
C308   C309    1.410   .     A
C308   C769    1.403   .     S
C308   C785    1.405   .     S
C309   C316    1.429   .     A
C309   C313    1.432   .     A
C310   C314    1.391   .     A
C310   C767    1.403   1_554 S
C310   C770    1.398   1_554 S
C311   C312    1.398   .     A
C311   C769    1.398   .     S
C311   C781    1.405   .     S
C312   C313    1.410   .     A
C312   H332    1.084   .     S
C313   N352    1.424   .     S
C314   C323    1.409   .     A
C314   C350    1.450   .     S
C315   C348    1.441   .     S
C315   C323    1.413   .     A
C315   C322    1.409   .     A
C316   C324    1.404   .     A
C316   C318    1.458   .     S
C317   C13     1.327   1_565 S
C317   H31     1.088   1_565 S
C318   O342    1.306   .     A
C318   O343    1.292   .     A
C319   C320    1.425   .     S
C320   O344    1.287   .     A
C320   O345    1.294   .     A
C321   O347    1.307   .     A
C321   O346    1.298   .     A
C321   C323    1.481   .     S
C322   H333    1.080   .     S
C322   C770    1.405   1_554 S
C324   H334    1.084   .     S
C324   C325    1.386   .     A
C325   H336    1.083   .     S
C325   C785    1.388   .     S
C326   H335    1.079   .     S
C326   C784    1.388   1_554 S
C326   C767    1.405   1_554 S
Cu327  O346    1.951   .     S
Cu327  N339    2.027   .     S
Cu327  O342    1.958   .     S
Cu327  O340    1.951   .     S
Cu327  Cu328   2.697   .     S
Cu327  O344    1.946   .     S
Cu328  O343    1.951   .     S
Cu328  O341    1.946   .     S
Cu328  N338    2.027   .     S
Cu328  O345    1.951   .     S
Cu328  O347    1.958   .     S
H329   C13     1.088   1_565 S
H330   N440    1.029   1_455 S
H331   N390    1.029   .     S
N338   H381    1.029   .     S
N338   N390    1.305   .     S
N339   N440    1.305   1_455 S
N339   H433    1.029   1_455 S
C348   N400    1.158   .     S
N349   C450    1.158   1_455 S
C350   N351    1.158   .     T
N352   C354    1.452   .     S
N352   H353    1.032   .     S
C354   H356    1.108   .     S
C354   H357    1.113   .     S
H355   C48     1.111   1_565 S
C358   C368    1.425   .     S
C358   O391    1.294   .     A
C358   O392    1.287   .     A
C359   C360    1.410   .     A
C359   C820    1.403   .     S
C359   C836    1.405   .     S
C360   C367    1.429   .     A
C360   C364    1.432   .     A
C361   C365    1.391   .     A
C361   C818    1.403   1_554 S
C361   C821    1.398   1_554 S
C362   C363    1.398   .     A
C362   C820    1.398   .     S
C362   C832    1.405   .     S
C363   C364    1.410   .     A
C363   H383    1.084   .     S
C364   N403    1.424   .     S
C365   C374    1.409   .     A
C365   C401    1.450   .     S
C366   C399    1.441   .     S
C366   C374    1.413   .     A
C366   C373    1.409   .     A
C367   C375    1.404   .     A
C367   C369    1.458   .     S
C368   C64     1.327   1_565 S
C368   H82     1.088   1_565 S
C369   O393    1.306   .     A
C369   O394    1.292   .     A
C370   C371    1.425   .     S
C371   O395    1.287   .     A
C371   O396    1.294   .     A
C372   O398    1.307   .     A
C372   O397    1.298   .     A
C372   C374    1.481   .     S
C373   H384    1.080   .     S
C373   C821    1.405   1_554 S
C375   H385    1.084   .     S
C375   C376    1.386   .     A
C376   H387    1.083   .     S
C376   C836    1.388   .     S
C377   H386    1.079   .     S
C377   C835    1.388   1_554 S
C377   C818    1.405   1_554 S
Cu378  O397    1.951   .     S
Cu378  N390    2.027   .     S
Cu378  O393    1.958   .     S
Cu378  O391    1.951   .     S
Cu378  Cu379   2.697   .     S
Cu378  O395    1.946   .     S
Cu379  O394    1.951   .     S
Cu379  O392    1.946   .     S
Cu379  N389    2.027   .     S
Cu379  O396    1.951   .     S
Cu379  O398    1.958   .     S
H380   C64     1.088   1_565 S
H382   N441    1.029   .     S
N389   H432    1.029   .     S
N389   N441    1.305   .     S
C399   N451    1.158   .     S
C401   N402    1.158   .     T
N403   C405    1.452   .     S
N403   H404    1.032   .     S
C405   H407    1.108   .     S
C405   H408    1.113   .     S
H406   C99     1.111   1_565 S
C409   C419    1.425   .     S
C409   O442    1.294   .     A
C409   O443    1.287   .     A
C410   C411    1.410   .     A
C410   C871    1.403   .     S
C410   C887    1.405   .     S
C411   C418    1.429   .     A
C411   C415    1.432   .     A
C412   C416    1.391   .     A
C412   C869    1.403   1_554 S
C412   C872    1.398   1_554 S
C413   C414    1.398   .     A
C413   C871    1.398   .     S
C413   C883    1.405   .     S
C414   C415    1.410   .     A
C414   H434    1.084   .     S
C415   N454    1.424   .     S
C416   C425    1.409   .     A
C416   C452    1.450   .     S
C417   C450    1.441   .     S
C417   C425    1.413   .     A
C417   C424    1.409   .     A
C418   C426    1.404   .     A
C418   C420    1.458   .     S
C419   C115    1.327   1_565 S
C419   H133    1.088   1_565 S
C420   O444    1.306   .     A
C420   O445    1.292   .     A
C421   C422    1.425   .     S
C422   O446    1.287   .     A
C422   O447    1.294   .     A
C423   O449    1.307   .     A
C423   O448    1.298   .     A
C423   C425    1.481   .     S
C424   H435    1.080   .     S
C424   C872    1.405   1_554 S
C426   H436    1.084   .     S
C426   C427    1.386   .     A
C427   H438    1.083   .     S
C427   C887    1.388   .     S
C428   H437    1.079   .     S
C428   C886    1.388   1_554 S
C428   C869    1.405   1_554 S
Cu429  O448    1.951   .     S
Cu429  N441    2.027   .     S
Cu429  O444    1.958   .     S
Cu429  O442    1.951   .     S
Cu429  Cu430   2.697   .     S
Cu429  O446    1.946   .     S
Cu430  O445    1.951   .     S
Cu430  O443    1.946   .     S
Cu430  N440    2.027   .     S
Cu430  O447    1.951   .     S
Cu430  O449    1.958   .     S
H431   C115    1.088   1_565 S
H433   N339    1.029   1_655 S
N440   H330    1.029   1_655 S
N440   N339    1.305   1_655 S
C450   N349    1.158   1_655 S
C452   N453    1.158   .     T
N454   C456    1.452   .     S
N454   H455    1.032   .     S
C456   H458    1.108   .     S
C456   H459    1.113   .     S
H457   C150    1.111   1_565 S
C460   C470    1.425   .     S
C460   O493    1.294   .     A
C460   O494    1.287   .     A
C461   C462    1.410   .     A
C461   C4      1.403   1_556 S
C461   C20     1.405   1_556 S
C462   C469    1.429   .     A
C462   C466    1.432   .     A
C463   C467    1.391   .     A
C464   C465    1.398   .     A
C464   C4      1.398   1_556 S
C464   C16     1.405   1_556 S
C465   C466    1.410   .     A
C465   H485    1.084   .     S
C466   N505    1.424   .     S
C467   C476    1.409   .     A
C467   C503    1.450   .     S
C468   C501    1.441   .     S
C468   C476    1.413   .     A
C468   C475    1.409   .     A
C469   C477    1.404   .     A
C469   C471    1.458   .     S
C470   C625    1.327   .     S
C470   H643    1.088   .     S
C471   O495    1.306   .     A
C471   O496    1.292   .     A
C472   C473    1.425   .     S
C472   C776    1.327   1_545 S
C472   H788    1.088   1_545 S
C473   O497    1.287   .     A
C473   O498    1.294   .     A
C474   O500    1.307   .     A
C474   O499    1.298   .     A
C474   C476    1.481   .     S
C475   H486    1.080   .     S
C477   H487    1.084   .     S
C477   C478    1.386   .     A
C478   H489    1.083   .     S
C478   C20     1.388   1_556 S
C479   H488    1.079   .     S
Cu480  O499    1.951   .     S
Cu480  N492    2.027   .     S
Cu480  O495    1.958   .     S
Cu480  O493    1.951   .     S
Cu480  Cu481   2.697   .     S
Cu480  O497    1.946   .     S
Cu481  O496    1.951   .     S
Cu481  O494    1.946   .     S
Cu481  N491    2.027   .     S
Cu481  O498    1.951   .     S
Cu481  O500    1.958   .     S
H482   C625    1.088   .     S
H483   N593    1.029   1_455 S
H484   N543    1.029   .     S
H490   C776    1.088   1_545 S
N491   H534    1.029   .     S
N491   N543    1.305   .     S
N492   N593    1.305   1_455 S
N492   H586    1.029   1_455 S
C501   N553    1.158   .     S
N502   C603    1.158   1_455 S
C503   N504    1.158   .     T
N505   C507    1.452   .     S
N505   H506    1.032   .     S
C507   H509    1.108   .     S
C507   H510    1.113   .     S
C507   H814    1.111   1_545 S
H508   C660    1.111   .     S
C511   C521    1.425   .     S
C511   O544    1.294   .     A
C511   O545    1.287   .     A
C512   C513    1.410   .     A
C512   C55     1.403   1_556 S
C512   C71     1.405   1_556 S
C513   C520    1.429   .     A
C513   C517    1.432   .     A
C514   C518    1.391   .     A
C515   C516    1.398   .     A
C515   C55     1.398   1_556 S
C515   C67     1.405   1_556 S
C516   C517    1.410   .     A
C516   H536    1.084   .     S
C517   N556    1.424   .     S
C518   C527    1.409   .     A
C518   C554    1.450   .     S
C519   C552    1.441   .     S
C519   C527    1.413   .     A
C519   C526    1.409   .     A
C520   C528    1.404   .     A
C520   C522    1.458   .     S
C521   C676    1.327   .     S
C521   H694    1.088   .     S
C522   O546    1.306   .     A
C522   O547    1.292   .     A
C523   C524    1.425   .     S
C523   C827    1.327   1_545 S
C523   H839    1.088   1_545 S
C524   O548    1.287   .     A
C524   O549    1.294   .     A
C525   O551    1.307   .     A
C525   O550    1.298   .     A
C525   C527    1.481   .     S
C526   H537    1.080   .     S
C528   H538    1.084   .     S
C528   C529    1.386   .     A
C529   H540    1.083   .     S
C529   C71     1.388   1_556 S
C530   H539    1.079   .     S
Cu531  O550    1.951   .     S
Cu531  N543    2.027   .     S
Cu531  O546    1.958   .     S
Cu531  O544    1.951   .     S
Cu531  Cu532   2.697   .     S
Cu531  O548    1.946   .     S
Cu532  O547    1.951   .     S
Cu532  O545    1.946   .     S
Cu532  N542    2.027   .     S
Cu532  O549    1.951   .     S
Cu532  O551    1.958   .     S
H533   C676    1.088   .     S
H535   N594    1.029   .     S
H541   C827    1.088   1_545 S
N542   H585    1.029   .     S
N542   N594    1.305   .     S
C552   N604    1.158   .     S
C554   N555    1.158   .     T
N556   C558    1.452   .     S
N556   H557    1.032   .     S
C558   H560    1.108   .     S
C558   H561    1.113   .     S
C558   H865    1.111   1_545 S
H559   C711    1.111   .     S
C562   C572    1.425   .     S
C562   O595    1.294   .     A
C562   O596    1.287   .     A
C563   C564    1.410   .     A
C563   C106    1.403   1_556 S
C563   C122    1.405   1_556 S
C564   C571    1.429   .     A
C564   C568    1.432   .     A
C565   C569    1.391   .     A
C566   C567    1.398   .     A
C566   C106    1.398   1_556 S
C566   C118    1.405   1_556 S
C567   C568    1.410   .     A
C567   H587    1.084   .     S
C568   N607    1.424   .     S
C569   C578    1.409   .     A
C569   C605    1.450   .     S
C570   C603    1.441   .     S
C570   C578    1.413   .     A
C570   C577    1.409   .     A
C571   C579    1.404   .     A
C571   C573    1.458   .     S
C572   C727    1.327   .     S
C572   H745    1.088   .     S
C573   O597    1.306   .     A
C573   O598    1.292   .     A
C574   C575    1.425   .     S
C574   C878    1.327   1_545 S
C574   H890    1.088   1_545 S
C575   O599    1.287   .     A
C575   O600    1.294   .     A
C576   O602    1.307   .     A
C576   O601    1.298   .     A
C576   C578    1.481   .     S
C577   H588    1.080   .     S
C579   H589    1.084   .     S
C579   C580    1.386   .     A
C580   H591    1.083   .     S
C580   C122    1.388   1_556 S
C581   H590    1.079   .     S
Cu582  O601    1.951   .     S
Cu582  N594    2.027   .     S
Cu582  O597    1.958   .     S
Cu582  O595    1.951   .     S
Cu582  Cu583   2.697   .     S
Cu582  O599    1.946   .     S
Cu583  O598    1.951   .     S
Cu583  O596    1.946   .     S
Cu583  N593    2.027   .     S
Cu583  O600    1.951   .     S
Cu583  O602    1.958   .     S
H584   C727    1.088   .     S
H586   N492    1.029   1_655 S
H592   C878    1.088   1_545 S
N593   H483    1.029   1_655 S
N593   N492    1.305   1_655 S
C603   N502    1.158   1_655 S
C605   N606    1.158   .     T
N607   C609    1.452   .     S
N607   H608    1.032   .     S
C609   H611    1.108   .     S
C609   H612    1.113   .     S
C609   H916    1.111   1_545 S
H610   C762    1.111   .     S
C613   C623    1.425   .     S
C613   O646    1.294   .     A
C613   O647    1.287   .     A
C614   C615    1.410   .     A
C614   C157    1.403   1_556 S
C614   C173    1.405   1_556 S
C615   C622    1.429   .     A
C615   C619    1.432   .     A
C616   C620    1.391   .     A
C617   C618    1.398   .     A
C617   C157    1.398   1_556 S
C617   C169    1.405   1_556 S
C618   C619    1.410   .     A
C618   H638    1.084   .     S
C619   N658    1.424   .     S
C620   C629    1.409   .     A
C620   C656    1.450   .     S
C621   C654    1.441   .     S
C621   C629    1.413   .     A
C621   C628    1.409   .     A
C622   C630    1.404   .     A
C622   C624    1.458   .     S
C623   C778    1.327   .     S
C623   H796    1.088   .     S
C624   O648    1.306   .     A
C624   O649    1.292   .     A
C625   C626    1.425   .     S
C626   O650    1.287   .     A
C626   O651    1.294   .     A
C627   O653    1.307   .     A
C627   O652    1.298   .     A
C627   C629    1.481   .     S
C628   H639    1.080   .     S
C630   H640    1.084   .     S
C630   C631    1.386   .     A
C631   H642    1.083   .     S
C631   C173    1.388   1_556 S
C632   H641    1.079   .     S
Cu633  O652    1.951   .     S
Cu633  N645    2.027   .     S
Cu633  O648    1.958   .     S
Cu633  O646    1.951   .     S
Cu633  Cu634   2.697   .     S
Cu633  O650    1.946   .     S
Cu634  O649    1.951   .     S
Cu634  O647    1.946   .     S
Cu634  N644    2.027   .     S
Cu634  O651    1.951   .     S
Cu634  O653    1.958   .     S
H635   C778    1.088   .     S
H636   N746    1.029   1_455 S
H637   N696    1.029   .     S
N644   H687    1.029   .     S
N644   N696    1.305   .     S
N645   N746    1.305   1_455 S
N645   H739    1.029   1_455 S
C654   N706    1.158   .     S
N655   C756    1.158   1_455 S
C656   N657    1.158   .     T
N658   C660    1.452   .     S
N658   H659    1.032   .     S
C660   H662    1.108   .     S
C660   H663    1.113   .     S
H661   C813    1.111   .     S
C664   C674    1.425   .     S
C664   O697    1.294   .     A
C664   O698    1.287   .     A
C665   C666    1.410   .     A
C665   C208    1.403   1_556 S
C665   C224    1.405   1_556 S
C666   C673    1.429   .     A
C666   C670    1.432   .     A
C667   C671    1.391   .     A
C668   C669    1.398   .     A
C668   C208    1.398   1_556 S
C668   C220    1.405   1_556 S
C669   C670    1.410   .     A
C669   H689    1.084   .     S
C670   N709    1.424   .     S
C671   C680    1.409   .     A
C671   C707    1.450   .     S
C672   C705    1.441   .     S
C672   C680    1.413   .     A
C672   C679    1.409   .     A
C673   C681    1.404   .     A
C673   C675    1.458   .     S
C674   C829    1.327   .     S
C674   H847    1.088   .     S
C675   O699    1.306   .     A
C675   O700    1.292   .     A
C676   C677    1.425   .     S
C677   O701    1.287   .     A
C677   O702    1.294   .     A
C678   O704    1.307   .     A
C678   O703    1.298   .     A
C678   C680    1.481   .     S
C679   H690    1.080   .     S
C681   H691    1.084   .     S
C681   C682    1.386   .     A
C682   H693    1.083   .     S
C682   C224    1.388   1_556 S
C683   H692    1.079   .     S
Cu684  O703    1.951   .     S
Cu684  N696    2.027   .     S
Cu684  O699    1.958   .     S
Cu684  O697    1.951   .     S
Cu684  Cu685   2.697   .     S
Cu684  O701    1.946   .     S
Cu685  O700    1.951   .     S
Cu685  O698    1.946   .     S
Cu685  N695    2.027   .     S
Cu685  O702    1.951   .     S
Cu685  O704    1.958   .     S
H686   C829    1.088   .     S
H688   N747    1.029   .     S
N695   H738    1.029   .     S
N695   N747    1.305   .     S
C705   N757    1.158   .     S
C707   N708    1.158   .     T
N709   C711    1.452   .     S
N709   H710    1.032   .     S
C711   H713    1.108   .     S
C711   H714    1.113   .     S
H712   C864    1.111   .     S
C715   C725    1.425   .     S
C715   O748    1.294   .     A
C715   O749    1.287   .     A
C716   C717    1.410   .     A
C716   C259    1.403   1_556 S
C716   C275    1.405   1_556 S
C717   C724    1.429   .     A
C717   C721    1.432   .     A
C718   C722    1.391   .     A
C719   C720    1.398   .     A
C719   C259    1.398   1_556 S
C719   C271    1.405   1_556 S
C720   C721    1.410   .     A
C720   H740    1.084   .     S
C721   N760    1.424   .     S
C722   C731    1.409   .     A
C722   C758    1.450   .     S
C723   C756    1.441   .     S
C723   C731    1.413   .     A
C723   C730    1.409   .     A
C724   C732    1.404   .     A
C724   C726    1.458   .     S
C725   C880    1.327   .     S
C725   H898    1.088   .     S
C726   O750    1.306   .     A
C726   O751    1.292   .     A
C727   C728    1.425   .     S
C728   O752    1.287   .     A
C728   O753    1.294   .     A
C729   O755    1.307   .     A
C729   O754    1.298   .     A
C729   C731    1.481   .     S
C730   H741    1.080   .     S
C732   H742    1.084   .     S
C732   C733    1.386   .     A
C733   H744    1.083   .     S
C733   C275    1.388   1_556 S
C734   H743    1.079   .     S
Cu735  O754    1.951   .     S
Cu735  N747    2.027   .     S
Cu735  O750    1.958   .     S
Cu735  O748    1.951   .     S
Cu735  Cu736   2.697   .     S
Cu735  O752    1.946   .     S
Cu736  O751    1.951   .     S
Cu736  O749    1.946   .     S
Cu736  N746    2.027   .     S
Cu736  O753    1.951   .     S
Cu736  O755    1.958   .     S
H737   C880    1.088   .     S
H739   N645    1.029   1_655 S
N746   H636    1.029   1_655 S
N746   N645    1.305   1_655 S
C756   N655    1.158   1_655 S
C758   N759    1.158   .     T
N760   C762    1.452   .     S
N760   H761    1.032   .     S
C762   H764    1.108   .     S
C762   H765    1.113   .     S
H763   C915    1.111   .     S
C766   C776    1.425   .     S
C766   O799    1.294   .     A
C766   O800    1.287   .     A
C767   C768    1.410   .     A
C767   C310    1.403   1_556 S
C767   C326    1.405   1_556 S
C768   C775    1.429   .     A
C768   C772    1.432   .     A
C769   C773    1.391   .     A
C770   C771    1.398   .     A
C770   C310    1.398   1_556 S
C770   C322    1.405   1_556 S
C771   C772    1.410   .     A
C771   H791    1.084   .     S
C772   N811    1.424   .     S
C773   C782    1.409   .     A
C773   C809    1.450   .     S
C774   C807    1.441   .     S
C774   C782    1.413   .     A
C774   C781    1.409   .     A
C775   C783    1.404   .     A
C775   C777    1.458   .     S
C776   C472    1.327   1_565 S
C776   H490    1.088   1_565 S
C777   O801    1.306   .     A
C777   O802    1.292   .     A
C778   C779    1.425   .     S
C779   O803    1.287   .     A
C779   O804    1.294   .     A
C780   O806    1.307   .     A
C780   O805    1.298   .     A
C780   C782    1.481   .     S
C781   H792    1.080   .     S
C783   H793    1.084   .     S
C783   C784    1.386   .     A
C784   H795    1.083   .     S
C784   C326    1.388   1_556 S
C785   H794    1.079   .     S
Cu786  O805    1.951   .     S
Cu786  N798    2.027   .     S
Cu786  O801    1.958   .     S
Cu786  O799    1.951   .     S
Cu786  Cu787   2.697   .     S
Cu786  O803    1.946   .     S
Cu787  O802    1.951   .     S
Cu787  O800    1.946   .     S
Cu787  N797    2.027   .     S
Cu787  O804    1.951   .     S
Cu787  O806    1.958   .     S
H788   C472    1.088   1_565 S
H789   N899    1.029   1_455 S
H790   N849    1.029   .     S
N797   H840    1.029   .     S
N797   N849    1.305   .     S
N798   N899    1.305   1_455 S
N798   H892    1.029   1_455 S
C807   N859    1.158   .     S
N808   C909    1.158   1_455 S
C809   N810    1.158   .     T
N811   C813    1.452   .     S
N811   H812    1.032   .     S
C813   H815    1.108   .     S
C813   H816    1.113   .     S
H814   C507    1.111   1_565 S
C817   C827    1.425   .     S
C817   O850    1.294   .     A
C817   O851    1.287   .     A
C818   C819    1.410   .     A
C818   C361    1.403   1_556 S
C818   C377    1.405   1_556 S
C819   C826    1.429   .     A
C819   C823    1.432   .     A
C820   C824    1.391   .     A
C821   C822    1.398   .     A
C821   C361    1.398   1_556 S
C821   C373    1.405   1_556 S
C822   C823    1.410   .     A
C822   H842    1.084   .     S
C823   N862    1.424   .     S
C824   C833    1.409   .     A
C824   C860    1.450   .     S
C825   C858    1.441   .     S
C825   C833    1.413   .     A
C825   C832    1.409   .     A
C826   C834    1.404   .     A
C826   C828    1.458   .     S
C827   C523    1.327   1_565 S
C827   H541    1.088   1_565 S
C828   O852    1.306   .     A
C828   O853    1.292   .     A
C829   C830    1.425   .     S
C830   O854    1.287   .     A
C830   O855    1.294   .     A
C831   O857    1.307   .     A
C831   O856    1.298   .     A
C831   C833    1.481   .     S
C832   H843    1.080   .     S
C834   H844    1.084   .     S
C834   C835    1.386   .     A
C835   H846    1.083   .     S
C835   C377    1.388   1_556 S
C836   H845    1.079   .     S
Cu837  O856    1.951   .     S
Cu837  N849    2.027   .     S
Cu837  O852    1.958   .     S
Cu837  O850    1.951   .     S
Cu837  Cu838   2.697   .     S
Cu837  O854    1.946   .     S
Cu838  O853    1.951   .     S
Cu838  O851    1.946   .     S
Cu838  N848    2.027   .     S
Cu838  O855    1.951   .     S
Cu838  O857    1.958   .     S
H839   C523    1.088   1_565 S
H841   N900    1.029   .     S
N848   H891    1.029   .     S
N848   N900    1.305   .     S
C858   N910    1.158   .     S
C860   N861    1.158   .     T
N862   C864    1.452   .     S
N862   H863    1.032   .     S
C864   H866    1.108   .     S
C864   H867    1.113   .     S
H865   C558    1.111   1_565 S
C868   C878    1.425   .     S
C868   O901    1.294   .     A
C868   O902    1.287   .     A
C869   C870    1.410   .     A
C869   C412    1.403   1_556 S
C869   C428    1.405   1_556 S
C870   C877    1.429   .     A
C870   C874    1.432   .     A
C871   C875    1.391   .     A
C872   C873    1.398   .     A
C872   C412    1.398   1_556 S
C872   C424    1.405   1_556 S
C873   C874    1.410   .     A
C873   H893    1.084   .     S
C874   N913    1.424   .     S
C875   C884    1.409   .     A
C875   C911    1.450   .     S
C876   C909    1.441   .     S
C876   C884    1.413   .     A
C876   C883    1.409   .     A
C877   C885    1.404   .     A
C877   C879    1.458   .     S
C878   C574    1.327   1_565 S
C878   H592    1.088   1_565 S
C879   O903    1.306   .     A
C879   O904    1.292   .     A
C880   C881    1.425   .     S
C881   O905    1.287   .     A
C881   O906    1.294   .     A
C882   O908    1.307   .     A
C882   O907    1.298   .     A
C882   C884    1.481   .     S
C883   H894    1.080   .     S
C885   H895    1.084   .     S
C885   C886    1.386   .     A
C886   H897    1.083   .     S
C886   C428    1.388   1_556 S
C887   H896    1.079   .     S
Cu888  O907    1.951   .     S
Cu888  N900    2.027   .     S
Cu888  O903    1.958   .     S
Cu888  O901    1.951   .     S
Cu888  Cu889   2.697   .     S
Cu888  O905    1.946   .     S
Cu889  O904    1.951   .     S
Cu889  O902    1.946   .     S
Cu889  N899    2.027   .     S
Cu889  O906    1.951   .     S
Cu889  O908    1.958   .     S
H890   C574    1.088   1_565 S
H892   N798    1.029   1_655 S
N899   H789    1.029   1_655 S
N899   N798    1.305   1_655 S
C909   N808    1.158   1_655 S
C911   N912    1.158   .     T
N913   C915    1.452   .     S
N913   H914    1.032   .     S
C915   H917    1.108   .     S
C915   H918    1.113   .     S
H916   C609    1.111   1_565 S
