data_str_m2_o1_o16_pcu_sym.158
_audit_creation_date              2020-01-03
_audit_creation_method            'Materials Studio'
_symmetry_space_group_name_H-M    'P1'
_symmetry_Int_Tables_number       1
_symmetry_cell_setting            triclinic
loop_
_symmetry_equiv_pos_as_xyz
  x,y,z
_cell_length_a                    28.5354
_cell_length_b                    32.5004
_cell_length_c                    26.9254
_cell_angle_alpha                 90.2984
_cell_angle_beta                  72.0727
_cell_angle_gamma                 90.2628
loop_
_atom_site_label
_atom_site_type_symbol
_atom_site_fract_x
_atom_site_fract_y
_atom_site_fract_z
_atom_site_U_iso_or_equiv
_atom_site_adp_type
_atom_site_occupancy
C1     C     0.16667   0.24591   0.25034   0.00000  Uiso   1.00
C2     C     0.14412   0.16142   0.48981   0.00000  Uiso   1.00
C3     C     0.15583   0.15119   0.43602   0.00000  Uiso   1.00
C4     C     0.18037   0.15508   0.01548   0.00000  Uiso   1.00
C5     C     0.22571   0.13616   0.48809   0.00000  Uiso   1.00
C6     C     0.23375   0.12183   0.43737   0.00000  Uiso   1.00
C7     C     0.19893   0.12841   0.41211   0.00000  Uiso   1.00
C8     C     0.17326   0.16732   0.06734   0.00000  Uiso   1.00
C9     C     0.25445   0.14256   0.06378   0.00000  Uiso   1.00
C10    C     0.12388   0.16376   0.40768   0.00000  Uiso   1.00
C11    C     0.21063   0.31229   0.23512   0.00000  Uiso   1.00
C12    C     0.14023   0.16477   0.35015   0.00000  Uiso   1.00
C13    C     0.20998   0.02151   0.23560   0.00000  Uiso   1.00
C14    C     0.16506   0.04260   0.25307   0.00000  Uiso   1.00
C15    C     0.12030   0.02036   0.27138   0.00000  Uiso   1.00
C16    C     0.12140   0.31105   0.27000   0.00000  Uiso   1.00
C17    C     0.16633   0.29038   0.25168   0.00000  Uiso   1.00
C18    C     0.30101   0.19627   0.27647   0.00000  Uiso   1.00
C19    C     0.01724   0.19617   0.27662   0.00000  Uiso   1.00
C20    C     0.03223   0.13691   0.22385   0.00000  Uiso   1.00
C21    C     0.31584   0.13671   0.22429   0.00000  Uiso   1.00
C22    C     0.16608   0.08735   0.25131   0.00000  Uiso   1.00
C23    C     0.19320   0.16556   0.14974   0.00000  Uiso   1.00
C24    C     0.26249   0.13098   0.01189   0.00000  Uiso   1.00
C25    C     0.20858   0.15965   0.09256   0.00000  Uiso   1.00
C26    C     0.07733   0.17967   0.43457   0.00000  Uiso   1.00
C27    C     0.06357   0.18556   0.48819   0.00000  Uiso   1.00
C28    C     0.09668   0.17749   0.01553   0.00000  Uiso   1.00
Cu29   Cu    0.11978   0.16666   0.25000   0.00000  Uiso   1.00
Cu30   Cu    0.21355   0.16667   0.25000   0.00000  Uiso   1.00
H31    H     0.24467   0.03792   0.22153   0.00000  Uiso   1.00
H32    H     0.08715   0.29392   0.28399   0.00000  Uiso   1.00
H33    H     0.27628   0.21994   0.29777   0.00000  Uiso   1.00
H34    H     0.02981   0.21973   0.29809   0.00000  Uiso   1.00
H35    H     0.05686   0.11310   0.20278   0.00000  Uiso   1.00
H36    H     0.30291   0.11247   0.20414   0.00000  Uiso   1.00
H37    H     0.26723   0.10546   0.41699   0.00000  Uiso   1.00
H38    H     0.29738   0.11712   0.49015   0.00000  Uiso   1.00
H39    H     0.14005   0.18269   0.08951   0.00000  Uiso   1.00
H40    H     0.05192   0.18874   0.41392   0.00000  Uiso   1.00
H41    H     0.08351   0.18354   0.05686   0.00000  Uiso   1.00
H42    H     0.02750   0.19781   0.00851   0.00000  Uiso   1.00
H43    H     0.20609   0.11469   0.37388   0.00000  Uiso   1.00
H44    H     0.24566   0.29656   0.22093   0.00000  Uiso   1.00
N45    N     0.04931   0.16666   0.24999   0.00000  Uiso   1.00
N46    N     0.28402   0.16669   0.25000   0.00000  Uiso   1.00
O47    O     0.12708   0.22678   0.25001   0.00000  Uiso   1.00
O48    O     0.20627   0.22679   0.25001   0.00000  Uiso   1.00
O49    O     0.10775   0.16665   0.32549   0.00000  Uiso   1.00
O50    O     0.18694   0.16666   0.32549   0.00000  Uiso   1.00
O51    O     0.12706   0.10654   0.25000   0.00000  Uiso   1.00
O52    O     0.20625   0.10655   0.25000   0.00000  Uiso   1.00
O53    O     0.14640   0.16667   0.17451   0.00000  Uiso   1.00
O54    O     0.22559   0.16668   0.17451   0.00000  Uiso   1.00
C55    C     0.29367   0.13529   0.08594   0.00000  Uiso   1.00
N56    N     0.32562   0.12940   0.10297   0.00000  Uiso   1.00
C57    C     0.07293   0.03993   0.29331   0.00000  Uiso   1.00
N58    N     0.03499   0.05551   0.31091   0.00000  Uiso   1.00
C59    C     0.50001   0.24591   0.25034   0.00000  Uiso   1.00
C60    C     0.47745   0.16142   0.48981   0.00000  Uiso   1.00
C61    C     0.48916   0.15119   0.43602   0.00000  Uiso   1.00
C62    C     0.51370   0.15508   0.01548   0.00000  Uiso   1.00
C63    C     0.55904   0.13616   0.48809   0.00000  Uiso   1.00
C64    C     0.56708   0.12183   0.43737   0.00000  Uiso   1.00
C65    C     0.53226   0.12841   0.41211   0.00000  Uiso   1.00
C66    C     0.50660   0.16732   0.06734   0.00000  Uiso   1.00
C67    C     0.58778   0.14256   0.06378   0.00000  Uiso   1.00
C68    C     0.45721   0.16376   0.40768   0.00000  Uiso   1.00
C69    C     0.54397   0.31229   0.23512   0.00000  Uiso   1.00
C70    C     0.47356   0.16477   0.35015   0.00000  Uiso   1.00
C71    C     0.54331   0.02151   0.23560   0.00000  Uiso   1.00
C72    C     0.49839   0.04260   0.25307   0.00000  Uiso   1.00
C73    C     0.45363   0.02036   0.27138   0.00000  Uiso   1.00
C74    C     0.45473   0.31105   0.27000   0.00000  Uiso   1.00
C75    C     0.49966   0.29038   0.25168   0.00000  Uiso   1.00
C76    C     0.63434   0.19627   0.27647   0.00000  Uiso   1.00
C77    C     0.35058   0.19617   0.27662   0.00000  Uiso   1.00
C78    C     0.36556   0.13691   0.22385   0.00000  Uiso   1.00
C79    C     0.64917   0.13671   0.22429   0.00000  Uiso   1.00
C80    C     0.49941   0.08735   0.25131   0.00000  Uiso   1.00
C81    C     0.52653   0.16556   0.14974   0.00000  Uiso   1.00
C82    C     0.59583   0.13098   0.01189   0.00000  Uiso   1.00
C83    C     0.54192   0.15965   0.09256   0.00000  Uiso   1.00
C84    C     0.41066   0.17967   0.43457   0.00000  Uiso   1.00
C85    C     0.39691   0.18556   0.48819   0.00000  Uiso   1.00
C86    C     0.43001   0.17749   0.01553   0.00000  Uiso   1.00
Cu87   Cu    0.45311   0.16666   0.25000   0.00000  Uiso   1.00
Cu88   Cu    0.54689   0.16667   0.25000   0.00000  Uiso   1.00
H89    H     0.57801   0.03792   0.22153   0.00000  Uiso   1.00
H90    H     0.42048   0.29392   0.28399   0.00000  Uiso   1.00
H91    H     0.60962   0.21994   0.29777   0.00000  Uiso   1.00
H92    H     0.36315   0.21973   0.29809   0.00000  Uiso   1.00
H93    H     0.39020   0.11310   0.20278   0.00000  Uiso   1.00
H94    H     0.63624   0.11247   0.20414   0.00000  Uiso   1.00
H95    H     0.60056   0.10546   0.41699   0.00000  Uiso   1.00
H96    H     0.63072   0.11712   0.49015   0.00000  Uiso   1.00
H97    H     0.47339   0.18269   0.08951   0.00000  Uiso   1.00
H98    H     0.38526   0.18874   0.41392   0.00000  Uiso   1.00
H99    H     0.41685   0.18354   0.05686   0.00000  Uiso   1.00
H100   H     0.36083   0.19781   0.00851   0.00000  Uiso   1.00
H101   H     0.53943   0.11469   0.37388   0.00000  Uiso   1.00
H102   H     0.57899   0.29656   0.22093   0.00000  Uiso   1.00
N103   N     0.38265   0.16666   0.24999   0.00000  Uiso   1.00
N104   N     0.61735   0.16669   0.25000   0.00000  Uiso   1.00
O105   O     0.46042   0.22678   0.25001   0.00000  Uiso   1.00
O106   O     0.53961   0.22679   0.25001   0.00000  Uiso   1.00
O107   O     0.44108   0.16665   0.32549   0.00000  Uiso   1.00
O108   O     0.52027   0.16666   0.32549   0.00000  Uiso   1.00
O109   O     0.46039   0.10654   0.25000   0.00000  Uiso   1.00
O110   O     0.53958   0.10655   0.25000   0.00000  Uiso   1.00
O111   O     0.47973   0.16667   0.17451   0.00000  Uiso   1.00
O112   O     0.55892   0.16668   0.17451   0.00000  Uiso   1.00
C113   C     0.62701   0.13529   0.08594   0.00000  Uiso   1.00
N114   N     0.65895   0.12940   0.10297   0.00000  Uiso   1.00
C115   C     0.40627   0.03993   0.29331   0.00000  Uiso   1.00
N116   N     0.36832   0.05551   0.31091   0.00000  Uiso   1.00
C117   C     0.83334   0.24591   0.25034   0.00000  Uiso   1.00
C118   C     0.81078   0.16142   0.48981   0.00000  Uiso   1.00
C119   C     0.82250   0.15119   0.43602   0.00000  Uiso   1.00
C120   C     0.84703   0.15508   0.01548   0.00000  Uiso   1.00
C121   C     0.89238   0.13616   0.48809   0.00000  Uiso   1.00
C122   C     0.90042   0.12183   0.43737   0.00000  Uiso   1.00
C123   C     0.86560   0.12841   0.41211   0.00000  Uiso   1.00
C124   C     0.83993   0.16732   0.06734   0.00000  Uiso   1.00
C125   C     0.92111   0.14256   0.06378   0.00000  Uiso   1.00
C126   C     0.79054   0.16376   0.40768   0.00000  Uiso   1.00
C127   C     0.87730   0.31229   0.23512   0.00000  Uiso   1.00
C128   C     0.80690   0.16477   0.35015   0.00000  Uiso   1.00
C129   C     0.87665   0.02151   0.23560   0.00000  Uiso   1.00
C130   C     0.83173   0.04260   0.25307   0.00000  Uiso   1.00
C131   C     0.78696   0.02036   0.27138   0.00000  Uiso   1.00
C132   C     0.78806   0.31105   0.27000   0.00000  Uiso   1.00
C133   C     0.83300   0.29038   0.25168   0.00000  Uiso   1.00
C134   C     0.96767   0.19627   0.27647   0.00000  Uiso   1.00
C135   C     0.68391   0.19617   0.27662   0.00000  Uiso   1.00
C136   C     0.69889   0.13691   0.22385   0.00000  Uiso   1.00
C137   C     0.98251   0.13671   0.22429   0.00000  Uiso   1.00
C138   C     0.83274   0.08735   0.25131   0.00000  Uiso   1.00
C139   C     0.85986   0.16556   0.14974   0.00000  Uiso   1.00
C140   C     0.92916   0.13098   0.01189   0.00000  Uiso   1.00
C141   C     0.87525   0.15965   0.09256   0.00000  Uiso   1.00
C142   C     0.74400   0.17967   0.43457   0.00000  Uiso   1.00
C143   C     0.73024   0.18556   0.48819   0.00000  Uiso   1.00
C144   C     0.76334   0.17749   0.01553   0.00000  Uiso   1.00
Cu145  Cu    0.78645   0.16666   0.25000   0.00000  Uiso   1.00
Cu146  Cu    0.88022   0.16667   0.25000   0.00000  Uiso   1.00
H147   H     0.91134   0.03792   0.22153   0.00000  Uiso   1.00
H148   H     0.75381   0.29392   0.28399   0.00000  Uiso   1.00
H149   H     0.94295   0.21994   0.29777   0.00000  Uiso   1.00
H150   H     0.69648   0.21973   0.29809   0.00000  Uiso   1.00
H151   H     0.72353   0.11310   0.20278   0.00000  Uiso   1.00
H152   H     0.96957   0.11247   0.20414   0.00000  Uiso   1.00
H153   H     0.93390   0.10546   0.41699   0.00000  Uiso   1.00
H154   H     0.96405   0.11712   0.49015   0.00000  Uiso   1.00
H155   H     0.80672   0.18269   0.08951   0.00000  Uiso   1.00
H156   H     0.71859   0.18874   0.41392   0.00000  Uiso   1.00
H157   H     0.75018   0.18354   0.05686   0.00000  Uiso   1.00
H158   H     0.69417   0.19781   0.00851   0.00000  Uiso   1.00
H159   H     0.87276   0.11469   0.37388   0.00000  Uiso   1.00
H160   H     0.91233   0.29656   0.22093   0.00000  Uiso   1.00
N161   N     0.71598   0.16666   0.24999   0.00000  Uiso   1.00
N162   N     0.95069   0.16669   0.25000   0.00000  Uiso   1.00
O163   O     0.79375   0.22678   0.25001   0.00000  Uiso   1.00
O164   O     0.87294   0.22679   0.25001   0.00000  Uiso   1.00
O165   O     0.77441   0.16665   0.32549   0.00000  Uiso   1.00
O166   O     0.85360   0.16666   0.32549   0.00000  Uiso   1.00
O167   O     0.79373   0.10654   0.25000   0.00000  Uiso   1.00
O168   O     0.87292   0.10655   0.25000   0.00000  Uiso   1.00
O169   O     0.81306   0.16667   0.17451   0.00000  Uiso   1.00
O170   O     0.89225   0.16668   0.17451   0.00000  Uiso   1.00
C171   C     0.96034   0.13529   0.08594   0.00000  Uiso   1.00
N172   N     0.99229   0.12940   0.10297   0.00000  Uiso   1.00
C173   C     0.73960   0.03993   0.29331   0.00000  Uiso   1.00
N174   N     0.70166   0.05551   0.31091   0.00000  Uiso   1.00
C175   C     0.16667   0.57924   0.25034   0.00000  Uiso   1.00
C176   C     0.14412   0.49475   0.48981   0.00000  Uiso   1.00
C177   C     0.15583   0.48453   0.43602   0.00000  Uiso   1.00
C178   C     0.18037   0.48841   0.01548   0.00000  Uiso   1.00
C179   C     0.22571   0.46949   0.48809   0.00000  Uiso   1.00
C180   C     0.23375   0.45517   0.43737   0.00000  Uiso   1.00
C181   C     0.19893   0.46174   0.41211   0.00000  Uiso   1.00
C182   C     0.17326   0.50065   0.06734   0.00000  Uiso   1.00
C183   C     0.25445   0.47589   0.06378   0.00000  Uiso   1.00
C184   C     0.12388   0.49709   0.40768   0.00000  Uiso   1.00
C185   C     0.21063   0.64562   0.23512   0.00000  Uiso   1.00
C186   C     0.14023   0.49811   0.35015   0.00000  Uiso   1.00
C187   C     0.20998   0.35485   0.23560   0.00000  Uiso   1.00
C188   C     0.16506   0.37593   0.25307   0.00000  Uiso   1.00
C189   C     0.12030   0.35370   0.27138   0.00000  Uiso   1.00
C190   C     0.12140   0.64438   0.27000   0.00000  Uiso   1.00
C191   C     0.16633   0.62372   0.25168   0.00000  Uiso   1.00
C192   C     0.30101   0.52960   0.27647   0.00000  Uiso   1.00
C193   C     0.01724   0.52950   0.27662   0.00000  Uiso   1.00
C194   C     0.03223   0.47024   0.22385   0.00000  Uiso   1.00
C195   C     0.31584   0.47005   0.22429   0.00000  Uiso   1.00
C196   C     0.16608   0.42068   0.25131   0.00000  Uiso   1.00
C197   C     0.19320   0.49889   0.14974   0.00000  Uiso   1.00
C198   C     0.26249   0.46432   0.01189   0.00000  Uiso   1.00
C199   C     0.20858   0.49298   0.09256   0.00000  Uiso   1.00
C200   C     0.07733   0.51300   0.43457   0.00000  Uiso   1.00
C201   C     0.06357   0.51889   0.48819   0.00000  Uiso   1.00
C202   C     0.09668   0.51082   0.01553   0.00000  Uiso   1.00
Cu203  Cu    0.11978   0.49999   0.25000   0.00000  Uiso   1.00
Cu204  Cu    0.21355   0.50001   0.25000   0.00000  Uiso   1.00
H205   H     0.24467   0.37125   0.22153   0.00000  Uiso   1.00
H206   H     0.08715   0.62725   0.28399   0.00000  Uiso   1.00
H207   H     0.27628   0.55327   0.29777   0.00000  Uiso   1.00
H208   H     0.02981   0.55306   0.29809   0.00000  Uiso   1.00
H209   H     0.05686   0.44643   0.20278   0.00000  Uiso   1.00
H210   H     0.30291   0.44581   0.20414   0.00000  Uiso   1.00
H211   H     0.26723   0.43880   0.41699   0.00000  Uiso   1.00
H212   H     0.29738   0.45045   0.49015   0.00000  Uiso   1.00
H213   H     0.14005   0.51603   0.08951   0.00000  Uiso   1.00
H214   H     0.05192   0.52208   0.41392   0.00000  Uiso   1.00
H215   H     0.08351   0.51688   0.05686   0.00000  Uiso   1.00
H216   H     0.02750   0.53114   0.00851   0.00000  Uiso   1.00
H217   H     0.20609   0.44802   0.37388   0.00000  Uiso   1.00
H218   H     0.24566   0.62989   0.22093   0.00000  Uiso   1.00
N219   N     0.04931   0.49999   0.24999   0.00000  Uiso   1.00
N220   N     0.28402   0.50002   0.25000   0.00000  Uiso   1.00
O221   O     0.12708   0.56011   0.25001   0.00000  Uiso   1.00
O222   O     0.20627   0.56012   0.25001   0.00000  Uiso   1.00
O223   O     0.10775   0.49998   0.32549   0.00000  Uiso   1.00
O224   O     0.18694   0.49999   0.32549   0.00000  Uiso   1.00
O225   O     0.12706   0.43988   0.25000   0.00000  Uiso   1.00
O226   O     0.20625   0.43989   0.25000   0.00000  Uiso   1.00
O227   O     0.14640   0.50001   0.17451   0.00000  Uiso   1.00
O228   O     0.22559   0.50002   0.17451   0.00000  Uiso   1.00
C229   C     0.29367   0.46862   0.08594   0.00000  Uiso   1.00
N230   N     0.32562   0.46274   0.10297   0.00000  Uiso   1.00
C231   C     0.07293   0.37327   0.29331   0.00000  Uiso   1.00
N232   N     0.03499   0.38885   0.31091   0.00000  Uiso   1.00
C233   C     0.50001   0.57924   0.25034   0.00000  Uiso   1.00
C234   C     0.47745   0.49475   0.48981   0.00000  Uiso   1.00
C235   C     0.48916   0.48453   0.43602   0.00000  Uiso   1.00
C236   C     0.51370   0.48841   0.01548   0.00000  Uiso   1.00
C237   C     0.55904   0.46949   0.48809   0.00000  Uiso   1.00
C238   C     0.56708   0.45517   0.43737   0.00000  Uiso   1.00
C239   C     0.53226   0.46174   0.41211   0.00000  Uiso   1.00
C240   C     0.50660   0.50065   0.06734   0.00000  Uiso   1.00
C241   C     0.58778   0.47589   0.06378   0.00000  Uiso   1.00
C242   C     0.45721   0.49709   0.40768   0.00000  Uiso   1.00
C243   C     0.54397   0.64562   0.23512   0.00000  Uiso   1.00
C244   C     0.47356   0.49811   0.35015   0.00000  Uiso   1.00
C245   C     0.54331   0.35485   0.23560   0.00000  Uiso   1.00
C246   C     0.49839   0.37593   0.25307   0.00000  Uiso   1.00
C247   C     0.45363   0.35370   0.27138   0.00000  Uiso   1.00
C248   C     0.45473   0.64438   0.27000   0.00000  Uiso   1.00
C249   C     0.49966   0.62372   0.25168   0.00000  Uiso   1.00
C250   C     0.63434   0.52960   0.27647   0.00000  Uiso   1.00
C251   C     0.35058   0.52950   0.27662   0.00000  Uiso   1.00
C252   C     0.36556   0.47024   0.22385   0.00000  Uiso   1.00
C253   C     0.64917   0.47005   0.22429   0.00000  Uiso   1.00
C254   C     0.49941   0.42068   0.25131   0.00000  Uiso   1.00
C255   C     0.52653   0.49889   0.14974   0.00000  Uiso   1.00
C256   C     0.59583   0.46432   0.01189   0.00000  Uiso   1.00
C257   C     0.54192   0.49298   0.09256   0.00000  Uiso   1.00
C258   C     0.41066   0.51300   0.43457   0.00000  Uiso   1.00
C259   C     0.39691   0.51889   0.48819   0.00000  Uiso   1.00
C260   C     0.43001   0.51082   0.01553   0.00000  Uiso   1.00
Cu261  Cu    0.45311   0.49999   0.25000   0.00000  Uiso   1.00
Cu262  Cu    0.54689   0.50001   0.25000   0.00000  Uiso   1.00
H263   H     0.57801   0.37125   0.22153   0.00000  Uiso   1.00
H264   H     0.42048   0.62725   0.28399   0.00000  Uiso   1.00
H265   H     0.60962   0.55327   0.29777   0.00000  Uiso   1.00
H266   H     0.36315   0.55306   0.29809   0.00000  Uiso   1.00
H267   H     0.39020   0.44643   0.20278   0.00000  Uiso   1.00
H268   H     0.63624   0.44581   0.20414   0.00000  Uiso   1.00
H269   H     0.60056   0.43880   0.41699   0.00000  Uiso   1.00
H270   H     0.63072   0.45045   0.49015   0.00000  Uiso   1.00
H271   H     0.47339   0.51603   0.08951   0.00000  Uiso   1.00
H272   H     0.38526   0.52208   0.41392   0.00000  Uiso   1.00
H273   H     0.41685   0.51688   0.05686   0.00000  Uiso   1.00
H274   H     0.36083   0.53114   0.00851   0.00000  Uiso   1.00
H275   H     0.53943   0.44802   0.37388   0.00000  Uiso   1.00
H276   H     0.57899   0.62989   0.22093   0.00000  Uiso   1.00
N277   N     0.38265   0.49999   0.24999   0.00000  Uiso   1.00
N278   N     0.61735   0.50002   0.25000   0.00000  Uiso   1.00
O279   O     0.46042   0.56011   0.25001   0.00000  Uiso   1.00
O280   O     0.53961   0.56012   0.25001   0.00000  Uiso   1.00
O281   O     0.44108   0.49998   0.32549   0.00000  Uiso   1.00
O282   O     0.52027   0.49999   0.32549   0.00000  Uiso   1.00
O283   O     0.46039   0.43988   0.25000   0.00000  Uiso   1.00
O284   O     0.53958   0.43989   0.25000   0.00000  Uiso   1.00
O285   O     0.47973   0.50001   0.17451   0.00000  Uiso   1.00
O286   O     0.55892   0.50002   0.17451   0.00000  Uiso   1.00
C287   C     0.62701   0.46862   0.08594   0.00000  Uiso   1.00
N288   N     0.65895   0.46274   0.10297   0.00000  Uiso   1.00
C289   C     0.40627   0.37327   0.29331   0.00000  Uiso   1.00
N290   N     0.36832   0.38885   0.31091   0.00000  Uiso   1.00
C291   C     0.83334   0.57924   0.25034   0.00000  Uiso   1.00
C292   C     0.81078   0.49475   0.48981   0.00000  Uiso   1.00
C293   C     0.82250   0.48453   0.43602   0.00000  Uiso   1.00
C294   C     0.84703   0.48841   0.01548   0.00000  Uiso   1.00
C295   C     0.89238   0.46949   0.48809   0.00000  Uiso   1.00
C296   C     0.90042   0.45517   0.43737   0.00000  Uiso   1.00
C297   C     0.86560   0.46174   0.41211   0.00000  Uiso   1.00
C298   C     0.83993   0.50065   0.06734   0.00000  Uiso   1.00
C299   C     0.92111   0.47589   0.06378   0.00000  Uiso   1.00
C300   C     0.79054   0.49709   0.40768   0.00000  Uiso   1.00
C301   C     0.87730   0.64562   0.23512   0.00000  Uiso   1.00
C302   C     0.80690   0.49811   0.35015   0.00000  Uiso   1.00
C303   C     0.87665   0.35485   0.23560   0.00000  Uiso   1.00
C304   C     0.83173   0.37593   0.25307   0.00000  Uiso   1.00
C305   C     0.78696   0.35370   0.27138   0.00000  Uiso   1.00
C306   C     0.78806   0.64438   0.27000   0.00000  Uiso   1.00
C307   C     0.83300   0.62372   0.25168   0.00000  Uiso   1.00
C308   C     0.96767   0.52960   0.27647   0.00000  Uiso   1.00
C309   C     0.68391   0.52950   0.27662   0.00000  Uiso   1.00
C310   C     0.69889   0.47024   0.22385   0.00000  Uiso   1.00
C311   C     0.98251   0.47005   0.22429   0.00000  Uiso   1.00
C312   C     0.83274   0.42068   0.25131   0.00000  Uiso   1.00
C313   C     0.85986   0.49889   0.14974   0.00000  Uiso   1.00
C314   C     0.92916   0.46432   0.01189   0.00000  Uiso   1.00
C315   C     0.87525   0.49298   0.09256   0.00000  Uiso   1.00
C316   C     0.74400   0.51300   0.43457   0.00000  Uiso   1.00
C317   C     0.73024   0.51889   0.48819   0.00000  Uiso   1.00
C318   C     0.76334   0.51082   0.01553   0.00000  Uiso   1.00
Cu319  Cu    0.78645   0.49999   0.25000   0.00000  Uiso   1.00
Cu320  Cu    0.88022   0.50001   0.25000   0.00000  Uiso   1.00
H321   H     0.91134   0.37125   0.22153   0.00000  Uiso   1.00
H322   H     0.75381   0.62725   0.28399   0.00000  Uiso   1.00
H323   H     0.94295   0.55327   0.29777   0.00000  Uiso   1.00
H324   H     0.69648   0.55306   0.29809   0.00000  Uiso   1.00
H325   H     0.72353   0.44643   0.20278   0.00000  Uiso   1.00
H326   H     0.96957   0.44581   0.20414   0.00000  Uiso   1.00
H327   H     0.93390   0.43880   0.41699   0.00000  Uiso   1.00
H328   H     0.96405   0.45045   0.49015   0.00000  Uiso   1.00
H329   H     0.80672   0.51603   0.08951   0.00000  Uiso   1.00
H330   H     0.71859   0.52208   0.41392   0.00000  Uiso   1.00
H331   H     0.75018   0.51688   0.05686   0.00000  Uiso   1.00
H332   H     0.69417   0.53114   0.00851   0.00000  Uiso   1.00
H333   H     0.87276   0.44802   0.37388   0.00000  Uiso   1.00
H334   H     0.91233   0.62989   0.22093   0.00000  Uiso   1.00
N335   N     0.71598   0.49999   0.24999   0.00000  Uiso   1.00
N336   N     0.95069   0.50002   0.25000   0.00000  Uiso   1.00
O337   O     0.79375   0.56011   0.25001   0.00000  Uiso   1.00
O338   O     0.87294   0.56012   0.25001   0.00000  Uiso   1.00
O339   O     0.77441   0.49998   0.32549   0.00000  Uiso   1.00
O340   O     0.85360   0.49999   0.32549   0.00000  Uiso   1.00
O341   O     0.79373   0.43988   0.25000   0.00000  Uiso   1.00
O342   O     0.87292   0.43989   0.25000   0.00000  Uiso   1.00
O343   O     0.81306   0.50001   0.17451   0.00000  Uiso   1.00
O344   O     0.89225   0.50002   0.17451   0.00000  Uiso   1.00
C345   C     0.96034   0.46862   0.08594   0.00000  Uiso   1.00
N346   N     0.99229   0.46274   0.10297   0.00000  Uiso   1.00
C347   C     0.73960   0.37327   0.29331   0.00000  Uiso   1.00
N348   N     0.70166   0.38885   0.31091   0.00000  Uiso   1.00
C349   C     0.16667   0.91258   0.25034   0.00000  Uiso   1.00
C350   C     0.14412   0.82809   0.48981   0.00000  Uiso   1.00
C351   C     0.15583   0.81786   0.43602   0.00000  Uiso   1.00
C352   C     0.18037   0.82174   0.01548   0.00000  Uiso   1.00
C353   C     0.22571   0.80282   0.48809   0.00000  Uiso   1.00
C354   C     0.23375   0.78850   0.43737   0.00000  Uiso   1.00
C355   C     0.19893   0.79508   0.41211   0.00000  Uiso   1.00
C356   C     0.17326   0.83398   0.06734   0.00000  Uiso   1.00
C357   C     0.25445   0.80923   0.06378   0.00000  Uiso   1.00
C358   C     0.12388   0.83042   0.40768   0.00000  Uiso   1.00
C359   C     0.21063   0.97896   0.23512   0.00000  Uiso   1.00
C360   C     0.14023   0.83144   0.35015   0.00000  Uiso   1.00
C361   C     0.20998   0.68818   0.23560   0.00000  Uiso   1.00
C362   C     0.16506   0.70926   0.25307   0.00000  Uiso   1.00
C363   C     0.12030   0.68703   0.27138   0.00000  Uiso   1.00
C364   C     0.12140   0.97772   0.27000   0.00000  Uiso   1.00
C365   C     0.16633   0.95705   0.25168   0.00000  Uiso   1.00
C366   C     0.30101   0.86294   0.27647   0.00000  Uiso   1.00
C367   C     0.01724   0.86283   0.27662   0.00000  Uiso   1.00
C368   C     0.03223   0.80357   0.22385   0.00000  Uiso   1.00
C369   C     0.31584   0.80338   0.22429   0.00000  Uiso   1.00
C370   C     0.16608   0.75401   0.25131   0.00000  Uiso   1.00
C371   C     0.19320   0.83222   0.14974   0.00000  Uiso   1.00
C372   C     0.26249   0.79765   0.01189   0.00000  Uiso   1.00
C373   C     0.20858   0.82632   0.09256   0.00000  Uiso   1.00
C374   C     0.07733   0.84634   0.43457   0.00000  Uiso   1.00
C375   C     0.06357   0.85222   0.48819   0.00000  Uiso   1.00
C376   C     0.09668   0.84416   0.01553   0.00000  Uiso   1.00
Cu377  Cu    0.11978   0.83333   0.25000   0.00000  Uiso   1.00
Cu378  Cu    0.21355   0.83334   0.25000   0.00000  Uiso   1.00
H379   H     0.24467   0.70458   0.22153   0.00000  Uiso   1.00
H380   H     0.08715   0.96058   0.28399   0.00000  Uiso   1.00
H381   H     0.27628   0.88660   0.29777   0.00000  Uiso   1.00
H382   H     0.02981   0.88640   0.29809   0.00000  Uiso   1.00
H383   H     0.05686   0.77976   0.20278   0.00000  Uiso   1.00
H384   H     0.30291   0.77914   0.20414   0.00000  Uiso   1.00
H385   H     0.26723   0.77213   0.41699   0.00000  Uiso   1.00
H386   H     0.29738   0.78379   0.49015   0.00000  Uiso   1.00
H387   H     0.14005   0.84936   0.08951   0.00000  Uiso   1.00
H388   H     0.05192   0.85541   0.41392   0.00000  Uiso   1.00
H389   H     0.08351   0.85021   0.05686   0.00000  Uiso   1.00
H390   H     0.02750   0.86448   0.00851   0.00000  Uiso   1.00
H391   H     0.20609   0.78136   0.37388   0.00000  Uiso   1.00
H392   H     0.24566   0.96323   0.22093   0.00000  Uiso   1.00
N393   N     0.04931   0.83332   0.24999   0.00000  Uiso   1.00
N394   N     0.28402   0.83335   0.25000   0.00000  Uiso   1.00
O395   O     0.12708   0.89345   0.25001   0.00000  Uiso   1.00
O396   O     0.20627   0.89346   0.25001   0.00000  Uiso   1.00
O397   O     0.10775   0.83332   0.32549   0.00000  Uiso   1.00
O398   O     0.18694   0.83333   0.32549   0.00000  Uiso   1.00
O399   O     0.12706   0.77321   0.25000   0.00000  Uiso   1.00
O400   O     0.20625   0.77322   0.25000   0.00000  Uiso   1.00
O401   O     0.14640   0.83334   0.17451   0.00000  Uiso   1.00
O402   O     0.22559   0.83335   0.17451   0.00000  Uiso   1.00
C403   C     0.29367   0.80196   0.08594   0.00000  Uiso   1.00
N404   N     0.32562   0.79607   0.10297   0.00000  Uiso   1.00
C405   C     0.07293   0.70660   0.29331   0.00000  Uiso   1.00
N406   N     0.03499   0.72218   0.31091   0.00000  Uiso   1.00
C407   C     0.50001   0.91258   0.25034   0.00000  Uiso   1.00
C408   C     0.47745   0.82809   0.48981   0.00000  Uiso   1.00
C409   C     0.48916   0.81786   0.43602   0.00000  Uiso   1.00
C410   C     0.51370   0.82174   0.01548   0.00000  Uiso   1.00
C411   C     0.55904   0.80282   0.48809   0.00000  Uiso   1.00
C412   C     0.56708   0.78850   0.43737   0.00000  Uiso   1.00
C413   C     0.53226   0.79508   0.41211   0.00000  Uiso   1.00
C414   C     0.50660   0.83398   0.06734   0.00000  Uiso   1.00
C415   C     0.58778   0.80923   0.06378   0.00000  Uiso   1.00
C416   C     0.45721   0.83042   0.40768   0.00000  Uiso   1.00
C417   C     0.54397   0.97896   0.23512   0.00000  Uiso   1.00
C418   C     0.47356   0.83144   0.35015   0.00000  Uiso   1.00
C419   C     0.54331   0.68818   0.23560   0.00000  Uiso   1.00
C420   C     0.49839   0.70926   0.25307   0.00000  Uiso   1.00
C421   C     0.45363   0.68703   0.27138   0.00000  Uiso   1.00
C422   C     0.45473   0.97772   0.27000   0.00000  Uiso   1.00
C423   C     0.49966   0.95705   0.25168   0.00000  Uiso   1.00
C424   C     0.63434   0.86294   0.27647   0.00000  Uiso   1.00
C425   C     0.35058   0.86283   0.27662   0.00000  Uiso   1.00
C426   C     0.36556   0.80357   0.22385   0.00000  Uiso   1.00
C427   C     0.64917   0.80338   0.22429   0.00000  Uiso   1.00
C428   C     0.49941   0.75401   0.25131   0.00000  Uiso   1.00
C429   C     0.52653   0.83222   0.14974   0.00000  Uiso   1.00
C430   C     0.59583   0.79765   0.01189   0.00000  Uiso   1.00
C431   C     0.54192   0.82632   0.09256   0.00000  Uiso   1.00
C432   C     0.41066   0.84634   0.43457   0.00000  Uiso   1.00
C433   C     0.39691   0.85222   0.48819   0.00000  Uiso   1.00
C434   C     0.43001   0.84416   0.01553   0.00000  Uiso   1.00
Cu435  Cu    0.45311   0.83333   0.25000   0.00000  Uiso   1.00
Cu436  Cu    0.54689   0.83334   0.25000   0.00000  Uiso   1.00
H437   H     0.57801   0.70458   0.22153   0.00000  Uiso   1.00
H438   H     0.42048   0.96058   0.28399   0.00000  Uiso   1.00
H439   H     0.60962   0.88660   0.29777   0.00000  Uiso   1.00
H440   H     0.36315   0.88640   0.29809   0.00000  Uiso   1.00
H441   H     0.39020   0.77976   0.20278   0.00000  Uiso   1.00
H442   H     0.63624   0.77914   0.20414   0.00000  Uiso   1.00
H443   H     0.60056   0.77213   0.41699   0.00000  Uiso   1.00
H444   H     0.63072   0.78379   0.49015   0.00000  Uiso   1.00
H445   H     0.47339   0.84936   0.08951   0.00000  Uiso   1.00
H446   H     0.38526   0.85541   0.41392   0.00000  Uiso   1.00
H447   H     0.41685   0.85021   0.05686   0.00000  Uiso   1.00
H448   H     0.36083   0.86448   0.00851   0.00000  Uiso   1.00
H449   H     0.53943   0.78136   0.37388   0.00000  Uiso   1.00
H450   H     0.57899   0.96323   0.22093   0.00000  Uiso   1.00
N451   N     0.38265   0.83332   0.24999   0.00000  Uiso   1.00
N452   N     0.61735   0.83335   0.25000   0.00000  Uiso   1.00
O453   O     0.46042   0.89345   0.25001   0.00000  Uiso   1.00
O454   O     0.53961   0.89346   0.25001   0.00000  Uiso   1.00
O455   O     0.44108   0.83332   0.32549   0.00000  Uiso   1.00
O456   O     0.52027   0.83333   0.32549   0.00000  Uiso   1.00
O457   O     0.46039   0.77321   0.25000   0.00000  Uiso   1.00
O458   O     0.53958   0.77322   0.25000   0.00000  Uiso   1.00
O459   O     0.47973   0.83334   0.17451   0.00000  Uiso   1.00
O460   O     0.55892   0.83335   0.17451   0.00000  Uiso   1.00
C461   C     0.62701   0.80196   0.08594   0.00000  Uiso   1.00
N462   N     0.65895   0.79607   0.10297   0.00000  Uiso   1.00
C463   C     0.40627   0.70660   0.29331   0.00000  Uiso   1.00
N464   N     0.36832   0.72218   0.31091   0.00000  Uiso   1.00
C465   C     0.83334   0.91258   0.25034   0.00000  Uiso   1.00
C466   C     0.81078   0.82809   0.48981   0.00000  Uiso   1.00
C467   C     0.82250   0.81786   0.43602   0.00000  Uiso   1.00
C468   C     0.84703   0.82174   0.01548   0.00000  Uiso   1.00
C469   C     0.89238   0.80282   0.48809   0.00000  Uiso   1.00
C470   C     0.90042   0.78850   0.43737   0.00000  Uiso   1.00
C471   C     0.86560   0.79508   0.41211   0.00000  Uiso   1.00
C472   C     0.83993   0.83398   0.06734   0.00000  Uiso   1.00
C473   C     0.92111   0.80923   0.06378   0.00000  Uiso   1.00
C474   C     0.79054   0.83042   0.40768   0.00000  Uiso   1.00
C475   C     0.87730   0.97896   0.23512   0.00000  Uiso   1.00
C476   C     0.80690   0.83144   0.35015   0.00000  Uiso   1.00
C477   C     0.87665   0.68818   0.23560   0.00000  Uiso   1.00
C478   C     0.83173   0.70926   0.25307   0.00000  Uiso   1.00
C479   C     0.78696   0.68703   0.27138   0.00000  Uiso   1.00
C480   C     0.78806   0.97772   0.27000   0.00000  Uiso   1.00
C481   C     0.83300   0.95705   0.25168   0.00000  Uiso   1.00
C482   C     0.96767   0.86294   0.27647   0.00000  Uiso   1.00
C483   C     0.68391   0.86283   0.27662   0.00000  Uiso   1.00
C484   C     0.69889   0.80357   0.22385   0.00000  Uiso   1.00
C485   C     0.98251   0.80338   0.22429   0.00000  Uiso   1.00
C486   C     0.83274   0.75401   0.25131   0.00000  Uiso   1.00
C487   C     0.85986   0.83222   0.14974   0.00000  Uiso   1.00
C488   C     0.92916   0.79765   0.01189   0.00000  Uiso   1.00
C489   C     0.87525   0.82632   0.09256   0.00000  Uiso   1.00
C490   C     0.74400   0.84634   0.43457   0.00000  Uiso   1.00
C491   C     0.73024   0.85222   0.48819   0.00000  Uiso   1.00
C492   C     0.76334   0.84416   0.01553   0.00000  Uiso   1.00
Cu493  Cu    0.78645   0.83333   0.25000   0.00000  Uiso   1.00
Cu494  Cu    0.88022   0.83334   0.25000   0.00000  Uiso   1.00
H495   H     0.91134   0.70458   0.22153   0.00000  Uiso   1.00
H496   H     0.75381   0.96058   0.28399   0.00000  Uiso   1.00
H497   H     0.94295   0.88660   0.29777   0.00000  Uiso   1.00
H498   H     0.69648   0.88640   0.29809   0.00000  Uiso   1.00
H499   H     0.72353   0.77976   0.20278   0.00000  Uiso   1.00
H500   H     0.96957   0.77914   0.20414   0.00000  Uiso   1.00
H501   H     0.93390   0.77213   0.41699   0.00000  Uiso   1.00
H502   H     0.96405   0.78379   0.49015   0.00000  Uiso   1.00
H503   H     0.80672   0.84936   0.08951   0.00000  Uiso   1.00
H504   H     0.71859   0.85541   0.41392   0.00000  Uiso   1.00
H505   H     0.75018   0.85021   0.05686   0.00000  Uiso   1.00
H506   H     0.69417   0.86448   0.00851   0.00000  Uiso   1.00
H507   H     0.87276   0.78136   0.37388   0.00000  Uiso   1.00
H508   H     0.91233   0.96323   0.22093   0.00000  Uiso   1.00
N509   N     0.71598   0.83332   0.24999   0.00000  Uiso   1.00
N510   N     0.95069   0.83335   0.25000   0.00000  Uiso   1.00
O511   O     0.79375   0.89345   0.25001   0.00000  Uiso   1.00
O512   O     0.87294   0.89346   0.25001   0.00000  Uiso   1.00
O513   O     0.77441   0.83332   0.32549   0.00000  Uiso   1.00
O514   O     0.85360   0.83333   0.32549   0.00000  Uiso   1.00
O515   O     0.79373   0.77321   0.25000   0.00000  Uiso   1.00
O516   O     0.87292   0.77322   0.25000   0.00000  Uiso   1.00
O517   O     0.81306   0.83334   0.17451   0.00000  Uiso   1.00
O518   O     0.89225   0.83335   0.17451   0.00000  Uiso   1.00
C519   C     0.96034   0.80196   0.08594   0.00000  Uiso   1.00
N520   N     0.99229   0.79607   0.10297   0.00000  Uiso   1.00
C521   C     0.73960   0.70660   0.29331   0.00000  Uiso   1.00
N522   N     0.70166   0.72218   0.31091   0.00000  Uiso   1.00
C523   C     0.16667   0.24591   0.75034   0.00000  Uiso   1.00
C524   C     0.14412   0.16142   0.98981   0.00000  Uiso   1.00
C525   C     0.15583   0.15119   0.93602   0.00000  Uiso   1.00
C526   C     0.18037   0.15508   0.51548   0.00000  Uiso   1.00
C527   C     0.22571   0.13616   0.98809   0.00000  Uiso   1.00
C528   C     0.23375   0.12183   0.93737   0.00000  Uiso   1.00
C529   C     0.19893   0.12841   0.91211   0.00000  Uiso   1.00
C530   C     0.17326   0.16732   0.56734   0.00000  Uiso   1.00
C531   C     0.25445   0.14256   0.56378   0.00000  Uiso   1.00
C532   C     0.12388   0.16376   0.90768   0.00000  Uiso   1.00
C533   C     0.21063   0.31229   0.73512   0.00000  Uiso   1.00
C534   C     0.14023   0.16477   0.85015   0.00000  Uiso   1.00
C535   C     0.20998   0.02151   0.73560   0.00000  Uiso   1.00
C536   C     0.16506   0.04260   0.75307   0.00000  Uiso   1.00
C537   C     0.12030   0.02036   0.77138   0.00000  Uiso   1.00
C538   C     0.12140   0.31105   0.77000   0.00000  Uiso   1.00
C539   C     0.16633   0.29038   0.75168   0.00000  Uiso   1.00
C540   C     0.30101   0.19627   0.77647   0.00000  Uiso   1.00
C541   C     0.01724   0.19617   0.77662   0.00000  Uiso   1.00
C542   C     0.03223   0.13691   0.72385   0.00000  Uiso   1.00
C543   C     0.31584   0.13671   0.72429   0.00000  Uiso   1.00
C544   C     0.16608   0.08735   0.75131   0.00000  Uiso   1.00
C545   C     0.19320   0.16556   0.64974   0.00000  Uiso   1.00
C546   C     0.26249   0.13098   0.51189   0.00000  Uiso   1.00
C547   C     0.20858   0.15965   0.59256   0.00000  Uiso   1.00
C548   C     0.07733   0.17967   0.93457   0.00000  Uiso   1.00
C549   C     0.06357   0.18556   0.98819   0.00000  Uiso   1.00
C550   C     0.09668   0.17749   0.51553   0.00000  Uiso   1.00
Cu551  Cu    0.11978   0.16666   0.75000   0.00000  Uiso   1.00
Cu552  Cu    0.21355   0.16667   0.75000   0.00000  Uiso   1.00
H553   H     0.24467   0.03792   0.72153   0.00000  Uiso   1.00
H554   H     0.08715   0.29392   0.78399   0.00000  Uiso   1.00
H555   H     0.27628   0.21994   0.79777   0.00000  Uiso   1.00
H556   H     0.02981   0.21973   0.79809   0.00000  Uiso   1.00
H557   H     0.05686   0.11310   0.70278   0.00000  Uiso   1.00
H558   H     0.30291   0.11247   0.70414   0.00000  Uiso   1.00
H559   H     0.26723   0.10546   0.91699   0.00000  Uiso   1.00
H560   H     0.29738   0.11712   0.99015   0.00000  Uiso   1.00
H561   H     0.14005   0.18269   0.58951   0.00000  Uiso   1.00
H562   H     0.05192   0.18874   0.91392   0.00000  Uiso   1.00
H563   H     0.08351   0.18354   0.55686   0.00000  Uiso   1.00
H564   H     0.02750   0.19781   0.50851   0.00000  Uiso   1.00
H565   H     0.20609   0.11469   0.87388   0.00000  Uiso   1.00
H566   H     0.24566   0.29656   0.72093   0.00000  Uiso   1.00
N567   N     0.04931   0.16666   0.74999   0.00000  Uiso   1.00
N568   N     0.28402   0.16669   0.75000   0.00000  Uiso   1.00
O569   O     0.12708   0.22678   0.75001   0.00000  Uiso   1.00
O570   O     0.20627   0.22679   0.75001   0.00000  Uiso   1.00
O571   O     0.10775   0.16665   0.82549   0.00000  Uiso   1.00
O572   O     0.18694   0.16666   0.82549   0.00000  Uiso   1.00
O573   O     0.12706   0.10654   0.75000   0.00000  Uiso   1.00
O574   O     0.20625   0.10655   0.75000   0.00000  Uiso   1.00
O575   O     0.14640   0.16667   0.67451   0.00000  Uiso   1.00
O576   O     0.22559   0.16668   0.67451   0.00000  Uiso   1.00
C577   C     0.29367   0.13529   0.58594   0.00000  Uiso   1.00
N578   N     0.32562   0.12940   0.60297   0.00000  Uiso   1.00
C579   C     0.07293   0.03993   0.79331   0.00000  Uiso   1.00
N580   N     0.03499   0.05551   0.81091   0.00000  Uiso   1.00
C581   C     0.50001   0.24591   0.75034   0.00000  Uiso   1.00
C582   C     0.47745   0.16142   0.98981   0.00000  Uiso   1.00
C583   C     0.48916   0.15119   0.93602   0.00000  Uiso   1.00
C584   C     0.51370   0.15508   0.51548   0.00000  Uiso   1.00
C585   C     0.55904   0.13616   0.98809   0.00000  Uiso   1.00
C586   C     0.56708   0.12183   0.93737   0.00000  Uiso   1.00
C587   C     0.53226   0.12841   0.91211   0.00000  Uiso   1.00
C588   C     0.50660   0.16732   0.56734   0.00000  Uiso   1.00
C589   C     0.58778   0.14256   0.56378   0.00000  Uiso   1.00
C590   C     0.45721   0.16376   0.90768   0.00000  Uiso   1.00
C591   C     0.54397   0.31229   0.73512   0.00000  Uiso   1.00
C592   C     0.47356   0.16477   0.85015   0.00000  Uiso   1.00
C593   C     0.54331   0.02151   0.73560   0.00000  Uiso   1.00
C594   C     0.49839   0.04260   0.75307   0.00000  Uiso   1.00
C595   C     0.45363   0.02036   0.77138   0.00000  Uiso   1.00
C596   C     0.45473   0.31105   0.77000   0.00000  Uiso   1.00
C597   C     0.49966   0.29038   0.75168   0.00000  Uiso   1.00
C598   C     0.63434   0.19627   0.77647   0.00000  Uiso   1.00
C599   C     0.35058   0.19617   0.77662   0.00000  Uiso   1.00
C600   C     0.36556   0.13691   0.72385   0.00000  Uiso   1.00
C601   C     0.64917   0.13671   0.72429   0.00000  Uiso   1.00
C602   C     0.49941   0.08735   0.75131   0.00000  Uiso   1.00
C603   C     0.52653   0.16556   0.64974   0.00000  Uiso   1.00
C604   C     0.59583   0.13098   0.51189   0.00000  Uiso   1.00
C605   C     0.54192   0.15965   0.59256   0.00000  Uiso   1.00
C606   C     0.41066   0.17967   0.93457   0.00000  Uiso   1.00
C607   C     0.39691   0.18556   0.98819   0.00000  Uiso   1.00
C608   C     0.43001   0.17749   0.51553   0.00000  Uiso   1.00
Cu609  Cu    0.45311   0.16666   0.75000   0.00000  Uiso   1.00
Cu610  Cu    0.54689   0.16667   0.75000   0.00000  Uiso   1.00
H611   H     0.57801   0.03792   0.72153   0.00000  Uiso   1.00
H612   H     0.42048   0.29392   0.78399   0.00000  Uiso   1.00
H613   H     0.60962   0.21994   0.79777   0.00000  Uiso   1.00
H614   H     0.36315   0.21973   0.79809   0.00000  Uiso   1.00
H615   H     0.39020   0.11310   0.70278   0.00000  Uiso   1.00
H616   H     0.63624   0.11247   0.70414   0.00000  Uiso   1.00
H617   H     0.60056   0.10546   0.91699   0.00000  Uiso   1.00
H618   H     0.63072   0.11712   0.99015   0.00000  Uiso   1.00
H619   H     0.47339   0.18269   0.58951   0.00000  Uiso   1.00
H620   H     0.38526   0.18874   0.91392   0.00000  Uiso   1.00
H621   H     0.41685   0.18354   0.55686   0.00000  Uiso   1.00
H622   H     0.36083   0.19781   0.50851   0.00000  Uiso   1.00
H623   H     0.53943   0.11469   0.87388   0.00000  Uiso   1.00
H624   H     0.57899   0.29656   0.72093   0.00000  Uiso   1.00
N625   N     0.38265   0.16666   0.74999   0.00000  Uiso   1.00
N626   N     0.61735   0.16669   0.75000   0.00000  Uiso   1.00
O627   O     0.46042   0.22678   0.75001   0.00000  Uiso   1.00
O628   O     0.53961   0.22679   0.75001   0.00000  Uiso   1.00
O629   O     0.44108   0.16665   0.82549   0.00000  Uiso   1.00
O630   O     0.52027   0.16666   0.82549   0.00000  Uiso   1.00
O631   O     0.46039   0.10654   0.75000   0.00000  Uiso   1.00
O632   O     0.53958   0.10655   0.75000   0.00000  Uiso   1.00
O633   O     0.47973   0.16667   0.67451   0.00000  Uiso   1.00
O634   O     0.55892   0.16668   0.67451   0.00000  Uiso   1.00
C635   C     0.62701   0.13529   0.58594   0.00000  Uiso   1.00
N636   N     0.65895   0.12940   0.60297   0.00000  Uiso   1.00
C637   C     0.40627   0.03993   0.79331   0.00000  Uiso   1.00
N638   N     0.36832   0.05551   0.81091   0.00000  Uiso   1.00
C639   C     0.83334   0.24591   0.75034   0.00000  Uiso   1.00
C640   C     0.81078   0.16142   0.98981   0.00000  Uiso   1.00
C641   C     0.82250   0.15119   0.93602   0.00000  Uiso   1.00
C642   C     0.84703   0.15508   0.51548   0.00000  Uiso   1.00
C643   C     0.89238   0.13616   0.98809   0.00000  Uiso   1.00
C644   C     0.90042   0.12183   0.93737   0.00000  Uiso   1.00
C645   C     0.86560   0.12841   0.91211   0.00000  Uiso   1.00
C646   C     0.83993   0.16732   0.56734   0.00000  Uiso   1.00
C647   C     0.92111   0.14256   0.56378   0.00000  Uiso   1.00
C648   C     0.79054   0.16376   0.90768   0.00000  Uiso   1.00
C649   C     0.87730   0.31229   0.73512   0.00000  Uiso   1.00
C650   C     0.80690   0.16477   0.85015   0.00000  Uiso   1.00
C651   C     0.87665   0.02151   0.73560   0.00000  Uiso   1.00
C652   C     0.83173   0.04260   0.75307   0.00000  Uiso   1.00
C653   C     0.78696   0.02036   0.77138   0.00000  Uiso   1.00
C654   C     0.78806   0.31105   0.77000   0.00000  Uiso   1.00
C655   C     0.83300   0.29038   0.75168   0.00000  Uiso   1.00
C656   C     0.96767   0.19627   0.77647   0.00000  Uiso   1.00
C657   C     0.68391   0.19617   0.77662   0.00000  Uiso   1.00
C658   C     0.69889   0.13691   0.72385   0.00000  Uiso   1.00
C659   C     0.98251   0.13671   0.72429   0.00000  Uiso   1.00
C660   C     0.83274   0.08735   0.75131   0.00000  Uiso   1.00
C661   C     0.85986   0.16556   0.64974   0.00000  Uiso   1.00
C662   C     0.92916   0.13098   0.51189   0.00000  Uiso   1.00
C663   C     0.87525   0.15965   0.59256   0.00000  Uiso   1.00
C664   C     0.74400   0.17967   0.93457   0.00000  Uiso   1.00
C665   C     0.73024   0.18556   0.98819   0.00000  Uiso   1.00
C666   C     0.76334   0.17749   0.51553   0.00000  Uiso   1.00
Cu667  Cu    0.78645   0.16666   0.75000   0.00000  Uiso   1.00
Cu668  Cu    0.88022   0.16667   0.75000   0.00000  Uiso   1.00
H669   H     0.91134   0.03792   0.72153   0.00000  Uiso   1.00
H670   H     0.75381   0.29392   0.78399   0.00000  Uiso   1.00
H671   H     0.94295   0.21994   0.79777   0.00000  Uiso   1.00
H672   H     0.69648   0.21973   0.79809   0.00000  Uiso   1.00
H673   H     0.72353   0.11310   0.70278   0.00000  Uiso   1.00
H674   H     0.96957   0.11247   0.70414   0.00000  Uiso   1.00
H675   H     0.93390   0.10546   0.91699   0.00000  Uiso   1.00
H676   H     0.96405   0.11712   0.99015   0.00000  Uiso   1.00
H677   H     0.80672   0.18269   0.58951   0.00000  Uiso   1.00
H678   H     0.71859   0.18874   0.91392   0.00000  Uiso   1.00
H679   H     0.75018   0.18354   0.55686   0.00000  Uiso   1.00
H680   H     0.69417   0.19781   0.50851   0.00000  Uiso   1.00
H681   H     0.87276   0.11469   0.87388   0.00000  Uiso   1.00
H682   H     0.91233   0.29656   0.72093   0.00000  Uiso   1.00
N683   N     0.71598   0.16666   0.74999   0.00000  Uiso   1.00
N684   N     0.95069   0.16669   0.75000   0.00000  Uiso   1.00
O685   O     0.79375   0.22678   0.75001   0.00000  Uiso   1.00
O686   O     0.87294   0.22679   0.75001   0.00000  Uiso   1.00
O687   O     0.77441   0.16665   0.82549   0.00000  Uiso   1.00
O688   O     0.85360   0.16666   0.82549   0.00000  Uiso   1.00
O689   O     0.79373   0.10654   0.75000   0.00000  Uiso   1.00
O690   O     0.87292   0.10655   0.75000   0.00000  Uiso   1.00
O691   O     0.81306   0.16667   0.67451   0.00000  Uiso   1.00
O692   O     0.89225   0.16668   0.67451   0.00000  Uiso   1.00
C693   C     0.96034   0.13529   0.58594   0.00000  Uiso   1.00
N694   N     0.99229   0.12940   0.60297   0.00000  Uiso   1.00
C695   C     0.73960   0.03993   0.79331   0.00000  Uiso   1.00
N696   N     0.70166   0.05551   0.81091   0.00000  Uiso   1.00
C697   C     0.16667   0.57924   0.75034   0.00000  Uiso   1.00
C698   C     0.14412   0.49475   0.98981   0.00000  Uiso   1.00
C699   C     0.15583   0.48453   0.93602   0.00000  Uiso   1.00
C700   C     0.18037   0.48841   0.51548   0.00000  Uiso   1.00
C701   C     0.22571   0.46949   0.98809   0.00000  Uiso   1.00
C702   C     0.23375   0.45517   0.93737   0.00000  Uiso   1.00
C703   C     0.19893   0.46174   0.91211   0.00000  Uiso   1.00
C704   C     0.17326   0.50065   0.56734   0.00000  Uiso   1.00
C705   C     0.25445   0.47589   0.56378   0.00000  Uiso   1.00
C706   C     0.12388   0.49709   0.90768   0.00000  Uiso   1.00
C707   C     0.21063   0.64562   0.73512   0.00000  Uiso   1.00
C708   C     0.14023   0.49811   0.85015   0.00000  Uiso   1.00
C709   C     0.20998   0.35485   0.73560   0.00000  Uiso   1.00
C710   C     0.16506   0.37593   0.75307   0.00000  Uiso   1.00
C711   C     0.12030   0.35370   0.77138   0.00000  Uiso   1.00
C712   C     0.12140   0.64438   0.77000   0.00000  Uiso   1.00
C713   C     0.16633   0.62372   0.75168   0.00000  Uiso   1.00
C714   C     0.30101   0.52960   0.77647   0.00000  Uiso   1.00
C715   C     0.01724   0.52950   0.77662   0.00000  Uiso   1.00
C716   C     0.03223   0.47024   0.72385   0.00000  Uiso   1.00
C717   C     0.31584   0.47005   0.72429   0.00000  Uiso   1.00
C718   C     0.16608   0.42068   0.75131   0.00000  Uiso   1.00
C719   C     0.19320   0.49889   0.64974   0.00000  Uiso   1.00
C720   C     0.26249   0.46432   0.51189   0.00000  Uiso   1.00
C721   C     0.20858   0.49298   0.59256   0.00000  Uiso   1.00
C722   C     0.07733   0.51300   0.93457   0.00000  Uiso   1.00
C723   C     0.06357   0.51889   0.98819   0.00000  Uiso   1.00
C724   C     0.09668   0.51082   0.51553   0.00000  Uiso   1.00
Cu725  Cu    0.11978   0.49999   0.75000   0.00000  Uiso   1.00
Cu726  Cu    0.21355   0.50001   0.75000   0.00000  Uiso   1.00
H727   H     0.24467   0.37125   0.72153   0.00000  Uiso   1.00
H728   H     0.08715   0.62725   0.78399   0.00000  Uiso   1.00
H729   H     0.27628   0.55327   0.79777   0.00000  Uiso   1.00
H730   H     0.02981   0.55306   0.79809   0.00000  Uiso   1.00
H731   H     0.05686   0.44643   0.70278   0.00000  Uiso   1.00
H732   H     0.30291   0.44581   0.70414   0.00000  Uiso   1.00
H733   H     0.26723   0.43880   0.91699   0.00000  Uiso   1.00
H734   H     0.29738   0.45045   0.99015   0.00000  Uiso   1.00
H735   H     0.14005   0.51603   0.58951   0.00000  Uiso   1.00
H736   H     0.05192   0.52208   0.91392   0.00000  Uiso   1.00
H737   H     0.08351   0.51688   0.55686   0.00000  Uiso   1.00
H738   H     0.02750   0.53114   0.50851   0.00000  Uiso   1.00
H739   H     0.20609   0.44802   0.87388   0.00000  Uiso   1.00
H740   H     0.24566   0.62989   0.72093   0.00000  Uiso   1.00
N741   N     0.04931   0.49999   0.74999   0.00000  Uiso   1.00
N742   N     0.28402   0.50002   0.75000   0.00000  Uiso   1.00
O743   O     0.12708   0.56011   0.75001   0.00000  Uiso   1.00
O744   O     0.20627   0.56012   0.75001   0.00000  Uiso   1.00
O745   O     0.10775   0.49998   0.82549   0.00000  Uiso   1.00
O746   O     0.18694   0.49999   0.82549   0.00000  Uiso   1.00
O747   O     0.12706   0.43988   0.75000   0.00000  Uiso   1.00
O748   O     0.20625   0.43989   0.75000   0.00000  Uiso   1.00
O749   O     0.14640   0.50001   0.67451   0.00000  Uiso   1.00
O750   O     0.22559   0.50002   0.67451   0.00000  Uiso   1.00
C751   C     0.29367   0.46862   0.58594   0.00000  Uiso   1.00
N752   N     0.32562   0.46274   0.60297   0.00000  Uiso   1.00
C753   C     0.07293   0.37327   0.79331   0.00000  Uiso   1.00
N754   N     0.03499   0.38885   0.81091   0.00000  Uiso   1.00
C755   C     0.50001   0.57924   0.75034   0.00000  Uiso   1.00
C756   C     0.47745   0.49475   0.98981   0.00000  Uiso   1.00
C757   C     0.48916   0.48453   0.93602   0.00000  Uiso   1.00
C758   C     0.51370   0.48841   0.51548   0.00000  Uiso   1.00
C759   C     0.55904   0.46949   0.98809   0.00000  Uiso   1.00
C760   C     0.56708   0.45517   0.93737   0.00000  Uiso   1.00
C761   C     0.53226   0.46174   0.91211   0.00000  Uiso   1.00
C762   C     0.50660   0.50065   0.56734   0.00000  Uiso   1.00
C763   C     0.58778   0.47589   0.56378   0.00000  Uiso   1.00
C764   C     0.45721   0.49709   0.90768   0.00000  Uiso   1.00
C765   C     0.54397   0.64562   0.73512   0.00000  Uiso   1.00
C766   C     0.47356   0.49811   0.85015   0.00000  Uiso   1.00
C767   C     0.54331   0.35485   0.73560   0.00000  Uiso   1.00
C768   C     0.49839   0.37593   0.75307   0.00000  Uiso   1.00
C769   C     0.45363   0.35370   0.77138   0.00000  Uiso   1.00
C770   C     0.45473   0.64438   0.77000   0.00000  Uiso   1.00
C771   C     0.49966   0.62372   0.75168   0.00000  Uiso   1.00
C772   C     0.63434   0.52960   0.77647   0.00000  Uiso   1.00
C773   C     0.35058   0.52950   0.77662   0.00000  Uiso   1.00
C774   C     0.36556   0.47024   0.72385   0.00000  Uiso   1.00
C775   C     0.64917   0.47005   0.72429   0.00000  Uiso   1.00
C776   C     0.49941   0.42068   0.75131   0.00000  Uiso   1.00
C777   C     0.52653   0.49889   0.64974   0.00000  Uiso   1.00
C778   C     0.59583   0.46432   0.51189   0.00000  Uiso   1.00
C779   C     0.54192   0.49298   0.59256   0.00000  Uiso   1.00
C780   C     0.41066   0.51300   0.93457   0.00000  Uiso   1.00
C781   C     0.39691   0.51889   0.98819   0.00000  Uiso   1.00
C782   C     0.43001   0.51082   0.51553   0.00000  Uiso   1.00
Cu783  Cu    0.45311   0.49999   0.75000   0.00000  Uiso   1.00
Cu784  Cu    0.54689   0.50001   0.75000   0.00000  Uiso   1.00
H785   H     0.57801   0.37125   0.72153   0.00000  Uiso   1.00
H786   H     0.42048   0.62725   0.78399   0.00000  Uiso   1.00
H787   H     0.60962   0.55327   0.79777   0.00000  Uiso   1.00
H788   H     0.36315   0.55306   0.79809   0.00000  Uiso   1.00
H789   H     0.39020   0.44643   0.70278   0.00000  Uiso   1.00
H790   H     0.63624   0.44581   0.70414   0.00000  Uiso   1.00
H791   H     0.60056   0.43880   0.91699   0.00000  Uiso   1.00
H792   H     0.63072   0.45045   0.99015   0.00000  Uiso   1.00
H793   H     0.47339   0.51603   0.58951   0.00000  Uiso   1.00
H794   H     0.38526   0.52208   0.91392   0.00000  Uiso   1.00
H795   H     0.41685   0.51688   0.55686   0.00000  Uiso   1.00
H796   H     0.36083   0.53114   0.50851   0.00000  Uiso   1.00
H797   H     0.53943   0.44802   0.87388   0.00000  Uiso   1.00
H798   H     0.57899   0.62989   0.72093   0.00000  Uiso   1.00
N799   N     0.38265   0.49999   0.74999   0.00000  Uiso   1.00
N800   N     0.61735   0.50002   0.75000   0.00000  Uiso   1.00
O801   O     0.46042   0.56011   0.75001   0.00000  Uiso   1.00
O802   O     0.53961   0.56012   0.75001   0.00000  Uiso   1.00
O803   O     0.44108   0.49998   0.82549   0.00000  Uiso   1.00
O804   O     0.52027   0.49999   0.82549   0.00000  Uiso   1.00
O805   O     0.46039   0.43988   0.75000   0.00000  Uiso   1.00
O806   O     0.53958   0.43989   0.75000   0.00000  Uiso   1.00
O807   O     0.47973   0.50001   0.67451   0.00000  Uiso   1.00
O808   O     0.55892   0.50002   0.67451   0.00000  Uiso   1.00
C809   C     0.62701   0.46862   0.58594   0.00000  Uiso   1.00
N810   N     0.65895   0.46274   0.60297   0.00000  Uiso   1.00
C811   C     0.40627   0.37327   0.79331   0.00000  Uiso   1.00
N812   N     0.36832   0.38885   0.81091   0.00000  Uiso   1.00
C813   C     0.83334   0.57924   0.75034   0.00000  Uiso   1.00
C814   C     0.81078   0.49475   0.98981   0.00000  Uiso   1.00
C815   C     0.82250   0.48453   0.93602   0.00000  Uiso   1.00
C816   C     0.84703   0.48841   0.51548   0.00000  Uiso   1.00
C817   C     0.89238   0.46949   0.98809   0.00000  Uiso   1.00
C818   C     0.90042   0.45517   0.93737   0.00000  Uiso   1.00
C819   C     0.86560   0.46174   0.91211   0.00000  Uiso   1.00
C820   C     0.83993   0.50065   0.56734   0.00000  Uiso   1.00
C821   C     0.92111   0.47589   0.56378   0.00000  Uiso   1.00
C822   C     0.79054   0.49709   0.90768   0.00000  Uiso   1.00
C823   C     0.87730   0.64562   0.73512   0.00000  Uiso   1.00
C824   C     0.80690   0.49811   0.85015   0.00000  Uiso   1.00
C825   C     0.87665   0.35485   0.73560   0.00000  Uiso   1.00
C826   C     0.83173   0.37593   0.75307   0.00000  Uiso   1.00
C827   C     0.78696   0.35370   0.77138   0.00000  Uiso   1.00
C828   C     0.78806   0.64438   0.77000   0.00000  Uiso   1.00
C829   C     0.83300   0.62372   0.75168   0.00000  Uiso   1.00
C830   C     0.96767   0.52960   0.77647   0.00000  Uiso   1.00
C831   C     0.68391   0.52950   0.77662   0.00000  Uiso   1.00
C832   C     0.69889   0.47024   0.72385   0.00000  Uiso   1.00
C833   C     0.98251   0.47005   0.72429   0.00000  Uiso   1.00
C834   C     0.83274   0.42068   0.75131   0.00000  Uiso   1.00
C835   C     0.85986   0.49889   0.64974   0.00000  Uiso   1.00
C836   C     0.92916   0.46432   0.51189   0.00000  Uiso   1.00
C837   C     0.87525   0.49298   0.59256   0.00000  Uiso   1.00
C838   C     0.74400   0.51300   0.93457   0.00000  Uiso   1.00
C839   C     0.73024   0.51889   0.98819   0.00000  Uiso   1.00
C840   C     0.76334   0.51082   0.51553   0.00000  Uiso   1.00
Cu841  Cu    0.78645   0.49999   0.75000   0.00000  Uiso   1.00
Cu842  Cu    0.88022   0.50001   0.75000   0.00000  Uiso   1.00
H843   H     0.91134   0.37125   0.72153   0.00000  Uiso   1.00
H844   H     0.75381   0.62725   0.78399   0.00000  Uiso   1.00
H845   H     0.94295   0.55327   0.79777   0.00000  Uiso   1.00
H846   H     0.69648   0.55306   0.79809   0.00000  Uiso   1.00
H847   H     0.72353   0.44643   0.70278   0.00000  Uiso   1.00
H848   H     0.96957   0.44581   0.70414   0.00000  Uiso   1.00
H849   H     0.93390   0.43880   0.91699   0.00000  Uiso   1.00
H850   H     0.96405   0.45045   0.99015   0.00000  Uiso   1.00
H851   H     0.80672   0.51603   0.58951   0.00000  Uiso   1.00
H852   H     0.71859   0.52208   0.91392   0.00000  Uiso   1.00
H853   H     0.75018   0.51688   0.55686   0.00000  Uiso   1.00
H854   H     0.69417   0.53114   0.50851   0.00000  Uiso   1.00
H855   H     0.87276   0.44802   0.87388   0.00000  Uiso   1.00
H856   H     0.91233   0.62989   0.72093   0.00000  Uiso   1.00
N857   N     0.71598   0.49999   0.74999   0.00000  Uiso   1.00
N858   N     0.95069   0.50002   0.75000   0.00000  Uiso   1.00
O859   O     0.79375   0.56011   0.75001   0.00000  Uiso   1.00
O860   O     0.87294   0.56012   0.75001   0.00000  Uiso   1.00
O861   O     0.77441   0.49998   0.82549   0.00000  Uiso   1.00
O862   O     0.85360   0.49999   0.82549   0.00000  Uiso   1.00
O863   O     0.79373   0.43988   0.75000   0.00000  Uiso   1.00
O864   O     0.87292   0.43989   0.75000   0.00000  Uiso   1.00
O865   O     0.81306   0.50001   0.67451   0.00000  Uiso   1.00
O866   O     0.89225   0.50002   0.67451   0.00000  Uiso   1.00
C867   C     0.96034   0.46862   0.58594   0.00000  Uiso   1.00
N868   N     0.99229   0.46274   0.60297   0.00000  Uiso   1.00
C869   C     0.73960   0.37327   0.79331   0.00000  Uiso   1.00
N870   N     0.70166   0.38885   0.81091   0.00000  Uiso   1.00
C871   C     0.16667   0.91258   0.75034   0.00000  Uiso   1.00
C872   C     0.14412   0.82809   0.98981   0.00000  Uiso   1.00
C873   C     0.15583   0.81786   0.93602   0.00000  Uiso   1.00
C874   C     0.18037   0.82174   0.51548   0.00000  Uiso   1.00
C875   C     0.22571   0.80282   0.98809   0.00000  Uiso   1.00
C876   C     0.23375   0.78850   0.93737   0.00000  Uiso   1.00
C877   C     0.19893   0.79508   0.91211   0.00000  Uiso   1.00
C878   C     0.17326   0.83398   0.56734   0.00000  Uiso   1.00
C879   C     0.25445   0.80923   0.56378   0.00000  Uiso   1.00
C880   C     0.12388   0.83042   0.90768   0.00000  Uiso   1.00
C881   C     0.21063   0.97896   0.73512   0.00000  Uiso   1.00
C882   C     0.14023   0.83144   0.85015   0.00000  Uiso   1.00
C883   C     0.20998   0.68818   0.73560   0.00000  Uiso   1.00
C884   C     0.16506   0.70926   0.75307   0.00000  Uiso   1.00
C885   C     0.12030   0.68703   0.77138   0.00000  Uiso   1.00
C886   C     0.12140   0.97772   0.77000   0.00000  Uiso   1.00
C887   C     0.16633   0.95705   0.75168   0.00000  Uiso   1.00
C888   C     0.30101   0.86294   0.77647   0.00000  Uiso   1.00
C889   C     0.01724   0.86283   0.77662   0.00000  Uiso   1.00
C890   C     0.03223   0.80357   0.72385   0.00000  Uiso   1.00
C891   C     0.31584   0.80338   0.72429   0.00000  Uiso   1.00
C892   C     0.16608   0.75401   0.75131   0.00000  Uiso   1.00
C893   C     0.19320   0.83222   0.64974   0.00000  Uiso   1.00
C894   C     0.26249   0.79765   0.51189   0.00000  Uiso   1.00
C895   C     0.20858   0.82632   0.59256   0.00000  Uiso   1.00
C896   C     0.07733   0.84634   0.93457   0.00000  Uiso   1.00
C897   C     0.06357   0.85222   0.98819   0.00000  Uiso   1.00
C898   C     0.09668   0.84416   0.51553   0.00000  Uiso   1.00
Cu899  Cu    0.11978   0.83333   0.75000   0.00000  Uiso   1.00
Cu900  Cu    0.21355   0.83334   0.75000   0.00000  Uiso   1.00
H901   H     0.24467   0.70458   0.72153   0.00000  Uiso   1.00
H902   H     0.08715   0.96058   0.78399   0.00000  Uiso   1.00
H903   H     0.27628   0.88660   0.79777   0.00000  Uiso   1.00
H904   H     0.02981   0.88640   0.79809   0.00000  Uiso   1.00
H905   H     0.05686   0.77976   0.70278   0.00000  Uiso   1.00
H906   H     0.30291   0.77914   0.70414   0.00000  Uiso   1.00
H907   H     0.26723   0.77213   0.91699   0.00000  Uiso   1.00
H908   H     0.29738   0.78379   0.99015   0.00000  Uiso   1.00
H909   H     0.14005   0.84936   0.58951   0.00000  Uiso   1.00
H910   H     0.05192   0.85541   0.91392   0.00000  Uiso   1.00
H911   H     0.08351   0.85021   0.55686   0.00000  Uiso   1.00
H912   H     0.02750   0.86448   0.50851   0.00000  Uiso   1.00
H913   H     0.20609   0.78136   0.87388   0.00000  Uiso   1.00
H914   H     0.24566   0.96323   0.72093   0.00000  Uiso   1.00
N915   N     0.04931   0.83332   0.74999   0.00000  Uiso   1.00
N916   N     0.28402   0.83335   0.75000   0.00000  Uiso   1.00
O917   O     0.12708   0.89345   0.75001   0.00000  Uiso   1.00
O918   O     0.20627   0.89346   0.75001   0.00000  Uiso   1.00
O919   O     0.10775   0.83332   0.82549   0.00000  Uiso   1.00
O920   O     0.18694   0.83333   0.82549   0.00000  Uiso   1.00
O921   O     0.12706   0.77321   0.75000   0.00000  Uiso   1.00
O922   O     0.20625   0.77322   0.75000   0.00000  Uiso   1.00
O923   O     0.14640   0.83334   0.67451   0.00000  Uiso   1.00
O924   O     0.22559   0.83335   0.67451   0.00000  Uiso   1.00
C925   C     0.29367   0.80196   0.58594   0.00000  Uiso   1.00
N926   N     0.32562   0.79607   0.60297   0.00000  Uiso   1.00
C927   C     0.07293   0.70660   0.79331   0.00000  Uiso   1.00
N928   N     0.03499   0.72218   0.81091   0.00000  Uiso   1.00
C929   C     0.50001   0.91258   0.75034   0.00000  Uiso   1.00
C930   C     0.47745   0.82809   0.98981   0.00000  Uiso   1.00
C931   C     0.48916   0.81786   0.93602   0.00000  Uiso   1.00
C932   C     0.51370   0.82174   0.51548   0.00000  Uiso   1.00
C933   C     0.55904   0.80282   0.98809   0.00000  Uiso   1.00
C934   C     0.56708   0.78850   0.93737   0.00000  Uiso   1.00
C935   C     0.53226   0.79508   0.91211   0.00000  Uiso   1.00
C936   C     0.50660   0.83398   0.56734   0.00000  Uiso   1.00
C937   C     0.58778   0.80923   0.56378   0.00000  Uiso   1.00
C938   C     0.45721   0.83042   0.90768   0.00000  Uiso   1.00
C939   C     0.54397   0.97896   0.73512   0.00000  Uiso   1.00
C940   C     0.47356   0.83144   0.85015   0.00000  Uiso   1.00
C941   C     0.54331   0.68818   0.73560   0.00000  Uiso   1.00
C942   C     0.49839   0.70926   0.75307   0.00000  Uiso   1.00
C943   C     0.45363   0.68703   0.77138   0.00000  Uiso   1.00
C944   C     0.45473   0.97772   0.77000   0.00000  Uiso   1.00
C945   C     0.49966   0.95705   0.75168   0.00000  Uiso   1.00
C946   C     0.63434   0.86294   0.77647   0.00000  Uiso   1.00
C947   C     0.35058   0.86283   0.77662   0.00000  Uiso   1.00
C948   C     0.36556   0.80357   0.72385   0.00000  Uiso   1.00
C949   C     0.64917   0.80338   0.72429   0.00000  Uiso   1.00
C950   C     0.49941   0.75401   0.75131   0.00000  Uiso   1.00
C951   C     0.52653   0.83222   0.64974   0.00000  Uiso   1.00
C952   C     0.59583   0.79765   0.51189   0.00000  Uiso   1.00
C953   C     0.54192   0.82632   0.59256   0.00000  Uiso   1.00
C954   C     0.41066   0.84634   0.93457   0.00000  Uiso   1.00
C955   C     0.39691   0.85222   0.98819   0.00000  Uiso   1.00
C956   C     0.43001   0.84416   0.51553   0.00000  Uiso   1.00
Cu957  Cu    0.45311   0.83333   0.75000   0.00000  Uiso   1.00
Cu958  Cu    0.54689   0.83334   0.75000   0.00000  Uiso   1.00
H959   H     0.57801   0.70458   0.72153   0.00000  Uiso   1.00
H960   H     0.42048   0.96058   0.78399   0.00000  Uiso   1.00
H961   H     0.60962   0.88660   0.79777   0.00000  Uiso   1.00
H962   H     0.36315   0.88640   0.79809   0.00000  Uiso   1.00
H963   H     0.39020   0.77976   0.70278   0.00000  Uiso   1.00
H964   H     0.63624   0.77914   0.70414   0.00000  Uiso   1.00
H965   H     0.60056   0.77213   0.91699   0.00000  Uiso   1.00
H966   H     0.63072   0.78379   0.99015   0.00000  Uiso   1.00
H967   H     0.47339   0.84936   0.58951   0.00000  Uiso   1.00
H968   H     0.38526   0.85541   0.91392   0.00000  Uiso   1.00
H969   H     0.41685   0.85021   0.55686   0.00000  Uiso   1.00
H970   H     0.36083   0.86448   0.50851   0.00000  Uiso   1.00
H971   H     0.53943   0.78136   0.87388   0.00000  Uiso   1.00
H972   H     0.57899   0.96323   0.72093   0.00000  Uiso   1.00
N973   N     0.38265   0.83332   0.74999   0.00000  Uiso   1.00
N974   N     0.61735   0.83335   0.75000   0.00000  Uiso   1.00
O975   O     0.46042   0.89345   0.75001   0.00000  Uiso   1.00
O976   O     0.53961   0.89346   0.75001   0.00000  Uiso   1.00
O977   O     0.44108   0.83332   0.82549   0.00000  Uiso   1.00
O978   O     0.52027   0.83333   0.82549   0.00000  Uiso   1.00
O979   O     0.46039   0.77321   0.75000   0.00000  Uiso   1.00
O980   O     0.53958   0.77322   0.75000   0.00000  Uiso   1.00
O981   O     0.47973   0.83334   0.67451   0.00000  Uiso   1.00
O982   O     0.55892   0.83335   0.67451   0.00000  Uiso   1.00
C983   C     0.62701   0.80196   0.58594   0.00000  Uiso   1.00
N984   N     0.65895   0.79607   0.60297   0.00000  Uiso   1.00
C985   C     0.40627   0.70660   0.79331   0.00000  Uiso   1.00
N986   N     0.36832   0.72218   0.81091   0.00000  Uiso   1.00
C987   C     0.83334   0.91258   0.75034   0.00000  Uiso   1.00
C988   C     0.81078   0.82809   0.98981   0.00000  Uiso   1.00
C989   C     0.82250   0.81786   0.93602   0.00000  Uiso   1.00
C990   C     0.84703   0.82174   0.51548   0.00000  Uiso   1.00
C991   C     0.89238   0.80282   0.98809   0.00000  Uiso   1.00
C992   C     0.90042   0.78850   0.93737   0.00000  Uiso   1.00
C993   C     0.86560   0.79508   0.91211   0.00000  Uiso   1.00
C994   C     0.83993   0.83398   0.56734   0.00000  Uiso   1.00
C995   C     0.92111   0.80923   0.56378   0.00000  Uiso   1.00
C996   C     0.79054   0.83042   0.90768   0.00000  Uiso   1.00
C997   C     0.87730   0.97896   0.73512   0.00000  Uiso   1.00
C998   C     0.80690   0.83144   0.85015   0.00000  Uiso   1.00
C999   C     0.87665   0.68818   0.73560   0.00000  Uiso   1.00
C1000  C     0.83173   0.70926   0.75307   0.00000  Uiso   1.00
C1001  C     0.78696   0.68703   0.77138   0.00000  Uiso   1.00
C1002  C     0.78806   0.97772   0.77000   0.00000  Uiso   1.00
C1003  C     0.83300   0.95705   0.75168   0.00000  Uiso   1.00
C1004  C     0.96767   0.86294   0.77647   0.00000  Uiso   1.00
C1005  C     0.68391   0.86283   0.77662   0.00000  Uiso   1.00
C1006  C     0.69889   0.80357   0.72385   0.00000  Uiso   1.00
C1007  C     0.98251   0.80338   0.72429   0.00000  Uiso   1.00
C1008  C     0.83274   0.75401   0.75131   0.00000  Uiso   1.00
C1009  C     0.85986   0.83222   0.64974   0.00000  Uiso   1.00
C1010  C     0.92916   0.79765   0.51189   0.00000  Uiso   1.00
C1011  C     0.87525   0.82632   0.59256   0.00000  Uiso   1.00
C1012  C     0.74400   0.84634   0.93457   0.00000  Uiso   1.00
C1013  C     0.73024   0.85222   0.98819   0.00000  Uiso   1.00
C1014  C     0.76334   0.84416   0.51553   0.00000  Uiso   1.00
Cu1015 Cu    0.78645   0.83333   0.75000   0.00000  Uiso   1.00
Cu1016 Cu    0.88022   0.83334   0.75000   0.00000  Uiso   1.00
H1017  H     0.91134   0.70458   0.72153   0.00000  Uiso   1.00
H1018  H     0.75381   0.96058   0.78399   0.00000  Uiso   1.00
H1019  H     0.94295   0.88660   0.79777   0.00000  Uiso   1.00
H1020  H     0.69648   0.88640   0.79809   0.00000  Uiso   1.00
H1021  H     0.72353   0.77976   0.70278   0.00000  Uiso   1.00
H1022  H     0.96957   0.77914   0.70414   0.00000  Uiso   1.00
H1023  H     0.93390   0.77213   0.91699   0.00000  Uiso   1.00
H1024  H     0.96405   0.78379   0.99015   0.00000  Uiso   1.00
H1025  H     0.80672   0.84936   0.58951   0.00000  Uiso   1.00
H1026  H     0.71859   0.85541   0.91392   0.00000  Uiso   1.00
H1027  H     0.75018   0.85021   0.55686   0.00000  Uiso   1.00
H1028  H     0.69417   0.86448   0.50851   0.00000  Uiso   1.00
H1029  H     0.87276   0.78136   0.87388   0.00000  Uiso   1.00
H1030  H     0.91233   0.96323   0.72093   0.00000  Uiso   1.00
N1031  N     0.71598   0.83332   0.74999   0.00000  Uiso   1.00
N1032  N     0.95069   0.83335   0.75000   0.00000  Uiso   1.00
O1033  O     0.79375   0.89345   0.75001   0.00000  Uiso   1.00
O1034  O     0.87294   0.89346   0.75001   0.00000  Uiso   1.00
O1035  O     0.77441   0.83332   0.82549   0.00000  Uiso   1.00
O1036  O     0.85360   0.83333   0.82549   0.00000  Uiso   1.00
O1037  O     0.79373   0.77321   0.75000   0.00000  Uiso   1.00
O1038  O     0.87292   0.77322   0.75000   0.00000  Uiso   1.00
O1039  O     0.81306   0.83334   0.67451   0.00000  Uiso   1.00
O1040  O     0.89225   0.83335   0.67451   0.00000  Uiso   1.00
C1041  C     0.96034   0.80196   0.58594   0.00000  Uiso   1.00
N1042  N     0.99229   0.79607   0.60297   0.00000  Uiso   1.00
C1043  C     0.73960   0.70660   0.79331   0.00000  Uiso   1.00
N1044  N     0.70166   0.72218   0.81091   0.00000  Uiso   1.00
loop_
_geom_bond_atom_site_label_1
_geom_bond_atom_site_label_2
_geom_bond_distance
_geom_bond_site_symmetry_2
_ccdc_geom_bond_type
C1     O48     1.290   .     A
C1     C17     1.446   .     S
C1     O47     1.289   .     A
C2     C3      1.420   .     A
C2     C526    1.426   .     S
C2     C550    1.418   .     S
C3     C10     1.420   .     A
C3     C7      1.411   .     A
C4     C8      1.404   .     A
C4     C524    1.426   1_554 S
C4     C527    1.418   1_554 S
C5     C6      1.391   .     A
C5     C526    1.418   .     S
C5     C546    1.399   .     S
C6     C7      1.384   .     A
C6     H37     1.084   .     S
C7     H43     1.080   .     S
C8     H39     1.076   .     S
C8     C25     1.402   .     A
C9     C55     1.442   .     S
C9     C25     1.414   .     A
C9     C24     1.394   .     A
C10    C12     1.474   .     S
C10    C26     1.402   .     A
C11    H44     1.083   .     S
C11    C17     1.397   .     A
C11    C187    1.383   .     S
C12    O50     1.295   .     A
C12    O49     1.298   .     A
C13    C14     1.403   .     A
C13    H31     1.084   .     S
C13    C359    1.383   1_545 S
C14    C22     1.455   .     S
C14    C15     1.416   .     A
C15    C57     1.447   .     S
C15    C364    1.387   1_545 S
C16    H32     1.085   .     S
C16    C17     1.398   .     A
C16    C189    1.387   .     S
C18    N46     1.367   .     A
C18    H33     1.082   .     S
C18    C77     1.416   .     S
C19    N45     1.367   .     A
C19    H34     1.082   .     S
C19    C134    1.416   1_455 S
C20    N45     1.367   .     A
C20    H35     1.082   .     S
C20    C137    1.415   1_455 S
C21    N46     1.366   .     A
C21    H36     1.080   .     S
C21    C78     1.415   .     S
C22    O52     1.294   .     A
C22    O51     1.289   .     A
C23    O53     1.297   .     A
C23    C25     1.477   .     S
C23    O54     1.296   .     A
C24    C527    1.399   1_554 S
C24    H560    1.086   1_554 S
C26    H40     1.083   .     S
C26    C27     1.387   .     A
C27    C550    1.391   .     S
C27    H564    1.083   .     S
C28    H41     1.077   .     S
C28    C549    1.391   1_554 S
C28    C524    1.418   1_554 S
Cu29   O49     1.954   .     S
Cu29   Cu30    2.676   .     S
Cu29   O47     1.964   .     S
Cu29   O51     1.966   .     S
Cu29   N45     2.011   .     S
Cu29   O53     1.939   .     S
Cu30   O54     1.954   .     S
Cu30   O48     1.966   .     S
Cu30   N46     2.011   .     S
Cu30   O50     1.939   .     S
Cu30   O52     1.964   .     S
H38    C546    1.086   .     S
H42    C549    1.083   1_554 S
C55    N56     1.157   .     T
C57    N58     1.158   .     T
C59    O106    1.290   .     A
C59    C75     1.446   .     S
C59    O105    1.289   .     A
C60    C61     1.420   .     A
C60    C584    1.426   .     S
C60    C608    1.418   .     S
C61    C68     1.420   .     A
C61    C65     1.411   .     A
C62    C66     1.404   .     A
C62    C582    1.426   1_554 S
C62    C585    1.418   1_554 S
C63    C64     1.391   .     A
C63    C584    1.418   .     S
C63    C604    1.399   .     S
C64    C65     1.384   .     A
C64    H95     1.084   .     S
C65    H101    1.080   .     S
C66    H97     1.076   .     S
C66    C83     1.402   .     A
C67    C113    1.442   .     S
C67    C83     1.414   .     A
C67    C82     1.394   .     A
C68    C70     1.474   .     S
C68    C84     1.402   .     A
C69    H102    1.083   .     S
C69    C75     1.397   .     A
C69    C245    1.383   .     S
C70    O108    1.295   .     A
C70    O107    1.298   .     A
C71    C72     1.403   .     A
C71    H89     1.084   .     S
C71    C417    1.383   1_545 S
C72    C80     1.455   .     S
C72    C73     1.416   .     A
C73    C115    1.447   .     S
C73    C422    1.387   1_545 S
C74    H90     1.085   .     S
C74    C75     1.398   .     A
C74    C247    1.387   .     S
C76    N104    1.367   .     A
C76    H91     1.082   .     S
C76    C135    1.416   .     S
C77    N103    1.367   .     A
C77    H92     1.082   .     S
C78    N103    1.367   .     A
C78    H93     1.082   .     S
C79    N104    1.366   .     A
C79    H94     1.080   .     S
C79    C136    1.415   .     S
C80    O110    1.294   .     A
C80    O109    1.289   .     A
C81    O111    1.297   .     A
C81    C83     1.477   .     S
C81    O112    1.296   .     A
C82    C585    1.399   1_554 S
C82    H618    1.086   1_554 S
C84    H98     1.083   .     S
C84    C85     1.387   .     A
C85    C608    1.391   .     S
C85    H622    1.083   .     S
C86    H99     1.077   .     S
C86    C607    1.391   1_554 S
C86    C582    1.418   1_554 S
Cu87   O107    1.954   .     S
Cu87   Cu88    2.676   .     S
Cu87   O105    1.964   .     S
Cu87   O109    1.966   .     S
Cu87   N103    2.011   .     S
Cu87   O111    1.939   .     S
Cu88   O112    1.954   .     S
Cu88   O106    1.966   .     S
Cu88   N104    2.011   .     S
Cu88   O108    1.939   .     S
Cu88   O110    1.964   .     S
H96    C604    1.086   .     S
H100   C607    1.083   1_554 S
C113   N114    1.157   .     T
C115   N116    1.158   .     T
C117   O164    1.290   .     A
C117   C133    1.446   .     S
C117   O163    1.289   .     A
C118   C119    1.420   .     A
C118   C642    1.426   .     S
C118   C666    1.418   .     S
C119   C126    1.420   .     A
C119   C123    1.411   .     A
C120   C124    1.404   .     A
C120   C640    1.426   1_554 S
C120   C643    1.418   1_554 S
C121   C122    1.391   .     A
C121   C642    1.418   .     S
C121   C662    1.399   .     S
C122   C123    1.384   .     A
C122   H153    1.084   .     S
C123   H159    1.080   .     S
C124   H155    1.076   .     S
C124   C141    1.402   .     A
C125   C171    1.442   .     S
C125   C141    1.414   .     A
C125   C140    1.394   .     A
C126   C128    1.474   .     S
C126   C142    1.402   .     A
C127   H160    1.083   .     S
C127   C133    1.397   .     A
C127   C303    1.383   .     S
C128   O166    1.295   .     A
C128   O165    1.298   .     A
C129   C130    1.403   .     A
C129   H147    1.084   .     S
C129   C475    1.383   1_545 S
C130   C138    1.455   .     S
C130   C131    1.416   .     A
C131   C173    1.447   .     S
C131   C480    1.387   1_545 S
C132   H148    1.085   .     S
C132   C133    1.398   .     A
C132   C305    1.387   .     S
C134   N162    1.367   .     A
C134   H149    1.082   .     S
C134   C19     1.416   1_655 S
C135   N161    1.367   .     A
C135   H150    1.082   .     S
C136   N161    1.367   .     A
C136   H151    1.082   .     S
C137   N162    1.366   .     A
C137   H152    1.080   .     S
C137   C20     1.415   1_655 S
C138   O168    1.294   .     A
C138   O167    1.289   .     A
C139   O169    1.297   .     A
C139   C141    1.477   .     S
C139   O170    1.296   .     A
C140   C643    1.399   1_554 S
C140   H676    1.086   1_554 S
C142   H156    1.083   .     S
C142   C143    1.387   .     A
C143   C666    1.391   .     S
C143   H680    1.083   .     S
C144   H157    1.077   .     S
C144   C665    1.391   1_554 S
C144   C640    1.418   1_554 S
Cu145  O165    1.954   .     S
Cu145  Cu146   2.676   .     S
Cu145  O163    1.964   .     S
Cu145  O167    1.966   .     S
Cu145  N161    2.011   .     S
Cu145  O169    1.939   .     S
Cu146  O170    1.954   .     S
Cu146  O164    1.966   .     S
Cu146  N162    2.011   .     S
Cu146  O166    1.939   .     S
Cu146  O168    1.964   .     S
H154   C662    1.086   .     S
H158   C665    1.083   1_554 S
C171   N172    1.157   .     T
C173   N174    1.158   .     T
C175   O222    1.290   .     A
C175   C191    1.446   .     S
C175   O221    1.289   .     A
C176   C177    1.420   .     A
C176   C700    1.426   .     S
C176   C724    1.418   .     S
C177   C184    1.420   .     A
C177   C181    1.411   .     A
C178   C182    1.404   .     A
C178   C698    1.426   1_554 S
C178   C701    1.418   1_554 S
C179   C180    1.391   .     A
C179   C700    1.418   .     S
C179   C720    1.399   .     S
C180   C181    1.384   .     A
C180   H211    1.084   .     S
C181   H217    1.080   .     S
C182   H213    1.076   .     S
C182   C199    1.402   .     A
C183   C229    1.442   .     S
C183   C199    1.414   .     A
C183   C198    1.394   .     A
C184   C186    1.474   .     S
C184   C200    1.402   .     A
C185   H218    1.083   .     S
C185   C191    1.397   .     A
C185   C361    1.383   .     S
C186   O224    1.295   .     A
C186   O223    1.298   .     A
C187   C188    1.403   .     A
C187   H205    1.084   .     S
C188   C196    1.455   .     S
C188   C189    1.416   .     A
C189   C231    1.447   .     S
C190   H206    1.085   .     S
C190   C191    1.398   .     A
C190   C363    1.387   .     S
C192   N220    1.367   .     A
C192   H207    1.082   .     S
C192   C251    1.416   .     S
C193   N219    1.367   .     A
C193   H208    1.082   .     S
C193   C308    1.416   1_455 S
C194   N219    1.367   .     A
C194   H209    1.082   .     S
C194   C311    1.415   1_455 S
C195   N220    1.366   .     A
C195   H210    1.080   .     S
C195   C252    1.415   .     S
C196   O226    1.294   .     A
C196   O225    1.289   .     A
C197   O227    1.297   .     A
C197   C199    1.477   .     S
C197   O228    1.296   .     A
C198   C701    1.399   1_554 S
C198   H734    1.086   1_554 S
C200   H214    1.083   .     S
C200   C201    1.387   .     A
C201   C724    1.391   .     S
C201   H738    1.083   .     S
C202   H215    1.077   .     S
C202   C723    1.391   1_554 S
C202   C698    1.418   1_554 S
Cu203  O223    1.954   .     S
Cu203  Cu204   2.676   .     S
Cu203  O221    1.964   .     S
Cu203  O225    1.966   .     S
Cu203  N219    2.011   .     S
Cu203  O227    1.939   .     S
Cu204  O228    1.954   .     S
Cu204  O222    1.966   .     S
Cu204  N220    2.011   .     S
Cu204  O224    1.939   .     S
Cu204  O226    1.964   .     S
H212   C720    1.086   .     S
H216   C723    1.083   1_554 S
C229   N230    1.157   .     T
C231   N232    1.158   .     T
C233   O280    1.290   .     A
C233   C249    1.446   .     S
C233   O279    1.289   .     A
C234   C235    1.420   .     A
C234   C758    1.426   .     S
C234   C782    1.418   .     S
C235   C242    1.420   .     A
C235   C239    1.411   .     A
C236   C240    1.404   .     A
C236   C756    1.426   1_554 S
C236   C759    1.418   1_554 S
C237   C238    1.391   .     A
C237   C758    1.418   .     S
C237   C778    1.399   .     S
C238   C239    1.384   .     A
C238   H269    1.084   .     S
C239   H275    1.080   .     S
C240   H271    1.076   .     S
C240   C257    1.402   .     A
C241   C287    1.442   .     S
C241   C257    1.414   .     A
C241   C256    1.394   .     A
C242   C244    1.474   .     S
C242   C258    1.402   .     A
C243   H276    1.083   .     S
C243   C249    1.397   .     A
C243   C419    1.383   .     S
C244   O282    1.295   .     A
C244   O281    1.298   .     A
C245   C246    1.403   .     A
C245   H263    1.084   .     S
C246   C254    1.455   .     S
C246   C247    1.416   .     A
C247   C289    1.447   .     S
C248   H264    1.085   .     S
C248   C249    1.398   .     A
C248   C421    1.387   .     S
C250   N278    1.367   .     A
C250   H265    1.082   .     S
C250   C309    1.416   .     S
C251   N277    1.367   .     A
C251   H266    1.082   .     S
C252   N277    1.367   .     A
C252   H267    1.082   .     S
C253   N278    1.366   .     A
C253   H268    1.080   .     S
C253   C310    1.415   .     S
C254   O284    1.294   .     A
C254   O283    1.289   .     A
C255   O285    1.297   .     A
C255   C257    1.477   .     S
C255   O286    1.296   .     A
C256   C759    1.399   1_554 S
C256   H792    1.086   1_554 S
C258   H272    1.083   .     S
C258   C259    1.387   .     A
C259   C782    1.391   .     S
C259   H796    1.083   .     S
C260   H273    1.077   .     S
C260   C781    1.391   1_554 S
C260   C756    1.418   1_554 S
Cu261  O281    1.954   .     S
Cu261  Cu262   2.676   .     S
Cu261  O279    1.964   .     S
Cu261  O283    1.966   .     S
Cu261  N277    2.011   .     S
Cu261  O285    1.939   .     S
Cu262  O286    1.954   .     S
Cu262  O280    1.966   .     S
Cu262  N278    2.011   .     S
Cu262  O282    1.939   .     S
Cu262  O284    1.964   .     S
H270   C778    1.086   .     S
H274   C781    1.083   1_554 S
C287   N288    1.157   .     T
C289   N290    1.158   .     T
C291   O338    1.290   .     A
C291   C307    1.446   .     S
C291   O337    1.289   .     A
C292   C293    1.420   .     A
C292   C816    1.426   .     S
C292   C840    1.418   .     S
C293   C300    1.420   .     A
C293   C297    1.411   .     A
C294   C298    1.404   .     A
C294   C814    1.426   1_554 S
C294   C817    1.418   1_554 S
C295   C296    1.391   .     A
C295   C816    1.418   .     S
C295   C836    1.399   .     S
C296   C297    1.384   .     A
C296   H327    1.084   .     S
C297   H333    1.080   .     S
C298   H329    1.076   .     S
C298   C315    1.402   .     A
C299   C345    1.442   .     S
C299   C315    1.414   .     A
C299   C314    1.394   .     A
C300   C302    1.474   .     S
C300   C316    1.402   .     A
C301   H334    1.083   .     S
C301   C307    1.397   .     A
C301   C477    1.383   .     S
C302   O340    1.295   .     A
C302   O339    1.298   .     A
C303   C304    1.403   .     A
C303   H321    1.084   .     S
C304   C312    1.455   .     S
C304   C305    1.416   .     A
C305   C347    1.447   .     S
C306   H322    1.085   .     S
C306   C307    1.398   .     A
C306   C479    1.387   .     S
C308   N336    1.367   .     A
C308   H323    1.082   .     S
C308   C193    1.416   1_655 S
C309   N335    1.367   .     A
C309   H324    1.082   .     S
C310   N335    1.367   .     A
C310   H325    1.082   .     S
C311   N336    1.366   .     A
C311   H326    1.080   .     S
C311   C194    1.415   1_655 S
C312   O342    1.294   .     A
C312   O341    1.289   .     A
C313   O343    1.297   .     A
C313   C315    1.477   .     S
C313   O344    1.296   .     A
C314   C817    1.399   1_554 S
C314   H850    1.086   1_554 S
C316   H330    1.083   .     S
C316   C317    1.387   .     A
C317   C840    1.391   .     S
C317   H854    1.083   .     S
C318   H331    1.077   .     S
C318   C839    1.391   1_554 S
C318   C814    1.418   1_554 S
Cu319  O339    1.954   .     S
Cu319  Cu320   2.676   .     S
Cu319  O337    1.964   .     S
Cu319  O341    1.966   .     S
Cu319  N335    2.011   .     S
Cu319  O343    1.939   .     S
Cu320  O344    1.954   .     S
Cu320  O338    1.966   .     S
Cu320  N336    2.011   .     S
Cu320  O340    1.939   .     S
Cu320  O342    1.964   .     S
H328   C836    1.086   .     S
H332   C839    1.083   1_554 S
C345   N346    1.157   .     T
C347   N348    1.158   .     T
C349   O396    1.290   .     A
C349   C365    1.446   .     S
C349   O395    1.289   .     A
C350   C351    1.420   .     A
C350   C874    1.426   .     S
C350   C898    1.418   .     S
C351   C358    1.420   .     A
C351   C355    1.411   .     A
C352   C356    1.404   .     A
C352   C872    1.426   1_554 S
C352   C875    1.418   1_554 S
C353   C354    1.391   .     A
C353   C874    1.418   .     S
C353   C894    1.399   .     S
C354   C355    1.384   .     A
C354   H385    1.084   .     S
C355   H391    1.080   .     S
C356   H387    1.076   .     S
C356   C373    1.402   .     A
C357   C403    1.442   .     S
C357   C373    1.414   .     A
C357   C372    1.394   .     A
C358   C360    1.474   .     S
C358   C374    1.402   .     A
C359   H392    1.083   .     S
C359   C365    1.397   .     A
C359   C13     1.383   1_565 S
C360   O398    1.295   .     A
C360   O397    1.298   .     A
C361   C362    1.403   .     A
C361   H379    1.084   .     S
C362   C370    1.455   .     S
C362   C363    1.416   .     A
C363   C405    1.447   .     S
C364   H380    1.085   .     S
C364   C365    1.398   .     A
C364   C15     1.387   1_565 S
C366   N394    1.367   .     A
C366   H381    1.082   .     S
C366   C425    1.416   .     S
C367   N393    1.367   .     A
C367   H382    1.082   .     S
C367   C482    1.416   1_455 S
C368   N393    1.367   .     A
C368   H383    1.082   .     S
C368   C485    1.415   1_455 S
C369   N394    1.366   .     A
C369   H384    1.080   .     S
C369   C426    1.415   .     S
C370   O400    1.294   .     A
C370   O399    1.289   .     A
C371   O401    1.297   .     A
C371   C373    1.477   .     S
C371   O402    1.296   .     A
C372   C875    1.399   1_554 S
C372   H908    1.086   1_554 S
C374   H388    1.083   .     S
C374   C375    1.387   .     A
C375   C898    1.391   .     S
C375   H912    1.083   .     S
C376   H389    1.077   .     S
C376   C897    1.391   1_554 S
C376   C872    1.418   1_554 S
Cu377  O397    1.954   .     S
Cu377  Cu378   2.676   .     S
Cu377  O395    1.964   .     S
Cu377  O399    1.966   .     S
Cu377  N393    2.011   .     S
Cu377  O401    1.939   .     S
Cu378  O402    1.954   .     S
Cu378  O396    1.966   .     S
Cu378  N394    2.011   .     S
Cu378  O398    1.939   .     S
Cu378  O400    1.964   .     S
H386   C894    1.086   .     S
H390   C897    1.083   1_554 S
C403   N404    1.157   .     T
C405   N406    1.158   .     T
C407   O454    1.290   .     A
C407   C423    1.446   .     S
C407   O453    1.289   .     A
C408   C409    1.420   .     A
C408   C932    1.426   .     S
C408   C956    1.418   .     S
C409   C416    1.420   .     A
C409   C413    1.411   .     A
C410   C414    1.404   .     A
C410   C930    1.426   1_554 S
C410   C933    1.418   1_554 S
C411   C412    1.391   .     A
C411   C932    1.418   .     S
C411   C952    1.399   .     S
C412   C413    1.384   .     A
C412   H443    1.084   .     S
C413   H449    1.080   .     S
C414   H445    1.076   .     S
C414   C431    1.402   .     A
C415   C461    1.442   .     S
C415   C431    1.414   .     A
C415   C430    1.394   .     A
C416   C418    1.474   .     S
C416   C432    1.402   .     A
C417   H450    1.083   .     S
C417   C423    1.397   .     A
C417   C71     1.383   1_565 S
C418   O456    1.295   .     A
C418   O455    1.298   .     A
C419   C420    1.403   .     A
C419   H437    1.084   .     S
C420   C428    1.455   .     S
C420   C421    1.416   .     A
C421   C463    1.447   .     S
C422   H438    1.085   .     S
C422   C423    1.398   .     A
C422   C73     1.387   1_565 S
C424   N452    1.367   .     A
C424   H439    1.082   .     S
C424   C483    1.416   .     S
C425   N451    1.367   .     A
C425   H440    1.082   .     S
C426   N451    1.367   .     A
C426   H441    1.082   .     S
C427   N452    1.366   .     A
C427   H442    1.080   .     S
C427   C484    1.415   .     S
C428   O458    1.294   .     A
C428   O457    1.289   .     A
C429   O459    1.297   .     A
C429   C431    1.477   .     S
C429   O460    1.296   .     A
C430   C933    1.399   1_554 S
C430   H966    1.086   1_554 S
C432   H446    1.083   .     S
C432   C433    1.387   .     A
C433   C956    1.391   .     S
C433   H970    1.083   .     S
C434   H447    1.077   .     S
C434   C955    1.391   1_554 S
C434   C930    1.418   1_554 S
Cu435  O455    1.954   .     S
Cu435  Cu436   2.676   .     S
Cu435  O453    1.964   .     S
Cu435  O457    1.966   .     S
Cu435  N451    2.011   .     S
Cu435  O459    1.939   .     S
Cu436  O460    1.954   .     S
Cu436  O454    1.966   .     S
Cu436  N452    2.011   .     S
Cu436  O456    1.939   .     S
Cu436  O458    1.964   .     S
H444   C952    1.086   .     S
H448   C955    1.083   1_554 S
C461   N462    1.157   .     T
C463   N464    1.158   .     T
C465   O512    1.290   .     A
C465   C481    1.446   .     S
C465   O511    1.289   .     A
C466   C467    1.420   .     A
C466   C990    1.426   .     S
C466   C1014   1.418   .     S
C467   C474    1.420   .     A
C467   C471    1.411   .     A
C468   C472    1.404   .     A
C468   C988    1.426   1_554 S
C468   C991    1.418   1_554 S
C469   C470    1.391   .     A
C469   C990    1.418   .     S
C469   C1010   1.399   .     S
C470   C471    1.384   .     A
C470   H501    1.084   .     S
C471   H507    1.080   .     S
C472   H503    1.076   .     S
C472   C489    1.402   .     A
C473   C519    1.442   .     S
C473   C489    1.414   .     A
C473   C488    1.394   .     A
C474   C476    1.474   .     S
C474   C490    1.402   .     A
C475   H508    1.083   .     S
C475   C481    1.397   .     A
C475   C129    1.383   1_565 S
C476   O514    1.295   .     A
C476   O513    1.298   .     A
C477   C478    1.403   .     A
C477   H495    1.084   .     S
C478   C486    1.455   .     S
C478   C479    1.416   .     A
C479   C521    1.447   .     S
C480   H496    1.085   .     S
C480   C481    1.398   .     A
C480   C131    1.387   1_565 S
C482   N510    1.367   .     A
C482   H497    1.082   .     S
C482   C367    1.416   1_655 S
C483   N509    1.367   .     A
C483   H498    1.082   .     S
C484   N509    1.367   .     A
C484   H499    1.082   .     S
C485   N510    1.366   .     A
C485   H500    1.080   .     S
C485   C368    1.415   1_655 S
C486   O516    1.294   .     A
C486   O515    1.289   .     A
C487   O517    1.297   .     A
C487   C489    1.477   .     S
C487   O518    1.296   .     A
C488   C991    1.399   1_554 S
C488   H1024   1.086   1_554 S
C490   H504    1.083   .     S
C490   C491    1.387   .     A
C491   C1014   1.391   .     S
C491   H1028   1.083   .     S
C492   H505    1.077   .     S
C492   C1013   1.391   1_554 S
C492   C988    1.418   1_554 S
Cu493  O513    1.954   .     S
Cu493  Cu494   2.676   .     S
Cu493  O511    1.964   .     S
Cu493  O515    1.966   .     S
Cu493  N509    2.011   .     S
Cu493  O517    1.939   .     S
Cu494  O518    1.954   .     S
Cu494  O512    1.966   .     S
Cu494  N510    2.011   .     S
Cu494  O514    1.939   .     S
Cu494  O516    1.964   .     S
H502   C1010   1.086   .     S
H506   C1013   1.083   1_554 S
C519   N520    1.157   .     T
C521   N522    1.158   .     T
C523   O570    1.290   .     A
C523   C539    1.446   .     S
C523   O569    1.289   .     A
C524   C525    1.420   .     A
C524   C4      1.426   1_556 S
C524   C28     1.418   1_556 S
C525   C532    1.420   .     A
C525   C529    1.411   .     A
C526   C530    1.404   .     A
C527   C528    1.391   .     A
C527   C4      1.418   1_556 S
C527   C24     1.399   1_556 S
C528   C529    1.384   .     A
C528   H559    1.084   .     S
C529   H565    1.080   .     S
C530   H561    1.076   .     S
C530   C547    1.402   .     A
C531   C577    1.442   .     S
C531   C547    1.414   .     A
C531   C546    1.394   .     A
C532   C534    1.474   .     S
C532   C548    1.402   .     A
C533   H566    1.083   .     S
C533   C539    1.397   .     A
C533   C709    1.383   .     S
C534   O572    1.295   .     A
C534   O571    1.298   .     A
C535   C536    1.403   .     A
C535   H553    1.084   .     S
C535   C881    1.383   1_545 S
C536   C544    1.455   .     S
C536   C537    1.416   .     A
C537   C579    1.447   .     S
C537   C886    1.387   1_545 S
C538   H554    1.085   .     S
C538   C539    1.398   .     A
C538   C711    1.387   .     S
C540   N568    1.367   .     A
C540   H555    1.082   .     S
C540   C599    1.416   .     S
C541   N567    1.367   .     A
C541   H556    1.082   .     S
C541   C656    1.416   1_455 S
C542   N567    1.367   .     A
C542   H557    1.082   .     S
C542   C659    1.415   1_455 S
C543   N568    1.366   .     A
C543   H558    1.080   .     S
C543   C600    1.415   .     S
C544   O574    1.294   .     A
C544   O573    1.289   .     A
C545   O575    1.297   .     A
C545   C547    1.477   .     S
C545   O576    1.296   .     A
C548   H562    1.083   .     S
C548   C549    1.387   .     A
C549   C28     1.391   1_556 S
C549   H42     1.083   1_556 S
C550   H563    1.077   .     S
Cu551  O571    1.954   .     S
Cu551  Cu552   2.676   .     S
Cu551  O569    1.964   .     S
Cu551  O573    1.966   .     S
Cu551  N567    2.011   .     S
Cu551  O575    1.939   .     S
Cu552  O576    1.954   .     S
Cu552  O570    1.966   .     S
Cu552  N568    2.011   .     S
Cu552  O572    1.939   .     S
Cu552  O574    1.964   .     S
H560   C24     1.086   1_556 S
C577   N578    1.157   .     T
C579   N580    1.158   .     T
C581   O628    1.290   .     A
C581   C597    1.446   .     S
C581   O627    1.289   .     A
C582   C583    1.420   .     A
C582   C62     1.426   1_556 S
C582   C86     1.418   1_556 S
C583   C590    1.420   .     A
C583   C587    1.411   .     A
C584   C588    1.404   .     A
C585   C586    1.391   .     A
C585   C62     1.418   1_556 S
C585   C82     1.399   1_556 S
C586   C587    1.384   .     A
C586   H617    1.084   .     S
C587   H623    1.080   .     S
C588   H619    1.076   .     S
C588   C605    1.402   .     A
C589   C635    1.442   .     S
C589   C605    1.414   .     A
C589   C604    1.394   .     A
C590   C592    1.474   .     S
C590   C606    1.402   .     A
C591   H624    1.083   .     S
C591   C597    1.397   .     A
C591   C767    1.383   .     S
C592   O630    1.295   .     A
C592   O629    1.298   .     A
C593   C594    1.403   .     A
C593   H611    1.084   .     S
C593   C939    1.383   1_545 S
C594   C602    1.455   .     S
C594   C595    1.416   .     A
C595   C637    1.447   .     S
C595   C944    1.387   1_545 S
C596   H612    1.085   .     S
C596   C597    1.398   .     A
C596   C769    1.387   .     S
C598   N626    1.367   .     A
C598   H613    1.082   .     S
C598   C657    1.416   .     S
C599   N625    1.367   .     A
C599   H614    1.082   .     S
C600   N625    1.367   .     A
C600   H615    1.082   .     S
C601   N626    1.366   .     A
C601   H616    1.080   .     S
C601   C658    1.415   .     S
C602   O632    1.294   .     A
C602   O631    1.289   .     A
C603   O633    1.297   .     A
C603   C605    1.477   .     S
C603   O634    1.296   .     A
C606   H620    1.083   .     S
C606   C607    1.387   .     A
C607   C86     1.391   1_556 S
C607   H100    1.083   1_556 S
C608   H621    1.077   .     S
Cu609  O629    1.954   .     S
Cu609  Cu610   2.676   .     S
Cu609  O627    1.964   .     S
Cu609  O631    1.966   .     S
Cu609  N625    2.011   .     S
Cu609  O633    1.939   .     S
Cu610  O634    1.954   .     S
Cu610  O628    1.966   .     S
Cu610  N626    2.011   .     S
Cu610  O630    1.939   .     S
Cu610  O632    1.964   .     S
H618   C82     1.086   1_556 S
C635   N636    1.157   .     T
C637   N638    1.158   .     T
C639   O686    1.290   .     A
C639   C655    1.446   .     S
C639   O685    1.289   .     A
C640   C641    1.420   .     A
C640   C120    1.426   1_556 S
C640   C144    1.418   1_556 S
C641   C648    1.420   .     A
C641   C645    1.411   .     A
C642   C646    1.404   .     A
C643   C644    1.391   .     A
C643   C120    1.418   1_556 S
C643   C140    1.399   1_556 S
C644   C645    1.384   .     A
C644   H675    1.084   .     S
C645   H681    1.080   .     S
C646   H677    1.076   .     S
C646   C663    1.402   .     A
C647   C693    1.442   .     S
C647   C663    1.414   .     A
C647   C662    1.394   .     A
C648   C650    1.474   .     S
C648   C664    1.402   .     A
C649   H682    1.083   .     S
C649   C655    1.397   .     A
C649   C825    1.383   .     S
C650   O688    1.295   .     A
C650   O687    1.298   .     A
C651   C652    1.403   .     A
C651   H669    1.084   .     S
C651   C997    1.383   1_545 S
C652   C660    1.455   .     S
C652   C653    1.416   .     A
C653   C695    1.447   .     S
C653   C1002   1.387   1_545 S
C654   H670    1.085   .     S
C654   C655    1.398   .     A
C654   C827    1.387   .     S
C656   N684    1.367   .     A
C656   H671    1.082   .     S
C656   C541    1.416   1_655 S
C657   N683    1.367   .     A
C657   H672    1.082   .     S
C658   N683    1.367   .     A
C658   H673    1.082   .     S
C659   N684    1.366   .     A
C659   H674    1.080   .     S
C659   C542    1.415   1_655 S
C660   O690    1.294   .     A
C660   O689    1.289   .     A
C661   O691    1.297   .     A
C661   C663    1.477   .     S
C661   O692    1.296   .     A
C664   H678    1.083   .     S
C664   C665    1.387   .     A
C665   C144    1.391   1_556 S
C665   H158    1.083   1_556 S
C666   H679    1.077   .     S
Cu667  O687    1.954   .     S
Cu667  Cu668   2.676   .     S
Cu667  O685    1.964   .     S
Cu667  O689    1.966   .     S
Cu667  N683    2.011   .     S
Cu667  O691    1.939   .     S
Cu668  O692    1.954   .     S
Cu668  O686    1.966   .     S
Cu668  N684    2.011   .     S
Cu668  O688    1.939   .     S
Cu668  O690    1.964   .     S
H676   C140    1.086   1_556 S
C693   N694    1.157   .     T
C695   N696    1.158   .     T
C697   O744    1.290   .     A
C697   C713    1.446   .     S
C697   O743    1.289   .     A
C698   C699    1.420   .     A
C698   C178    1.426   1_556 S
C698   C202    1.418   1_556 S
C699   C706    1.420   .     A
C699   C703    1.411   .     A
C700   C704    1.404   .     A
C701   C702    1.391   .     A
C701   C178    1.418   1_556 S
C701   C198    1.399   1_556 S
C702   C703    1.384   .     A
C702   H733    1.084   .     S
C703   H739    1.080   .     S
C704   H735    1.076   .     S
C704   C721    1.402   .     A
C705   C751    1.442   .     S
C705   C721    1.414   .     A
C705   C720    1.394   .     A
C706   C708    1.474   .     S
C706   C722    1.402   .     A
C707   H740    1.083   .     S
C707   C713    1.397   .     A
C707   C883    1.383   .     S
C708   O746    1.295   .     A
C708   O745    1.298   .     A
C709   C710    1.403   .     A
C709   H727    1.084   .     S
C710   C718    1.455   .     S
C710   C711    1.416   .     A
C711   C753    1.447   .     S
C712   H728    1.085   .     S
C712   C713    1.398   .     A
C712   C885    1.387   .     S
C714   N742    1.367   .     A
C714   H729    1.082   .     S
C714   C773    1.416   .     S
C715   N741    1.367   .     A
C715   H730    1.082   .     S
C715   C830    1.416   1_455 S
C716   N741    1.367   .     A
C716   H731    1.082   .     S
C716   C833    1.415   1_455 S
C717   N742    1.366   .     A
C717   H732    1.080   .     S
C717   C774    1.415   .     S
C718   O748    1.294   .     A
C718   O747    1.289   .     A
C719   O749    1.297   .     A
C719   C721    1.477   .     S
C719   O750    1.296   .     A
C722   H736    1.083   .     S
C722   C723    1.387   .     A
C723   C202    1.391   1_556 S
C723   H216    1.083   1_556 S
C724   H737    1.077   .     S
Cu725  O745    1.954   .     S
Cu725  Cu726   2.676   .     S
Cu725  O743    1.964   .     S
Cu725  O747    1.966   .     S
Cu725  N741    2.011   .     S
Cu725  O749    1.939   .     S
Cu726  O750    1.954   .     S
Cu726  O744    1.966   .     S
Cu726  N742    2.011   .     S
Cu726  O746    1.939   .     S
Cu726  O748    1.964   .     S
H734   C198    1.086   1_556 S
C751   N752    1.157   .     T
C753   N754    1.158   .     T
C755   O802    1.290   .     A
C755   C771    1.446   .     S
C755   O801    1.289   .     A
C756   C757    1.420   .     A
C756   C236    1.426   1_556 S
C756   C260    1.418   1_556 S
C757   C764    1.420   .     A
C757   C761    1.411   .     A
C758   C762    1.404   .     A
C759   C760    1.391   .     A
C759   C236    1.418   1_556 S
C759   C256    1.399   1_556 S
C760   C761    1.384   .     A
C760   H791    1.084   .     S
C761   H797    1.080   .     S
C762   H793    1.076   .     S
C762   C779    1.402   .     A
C763   C809    1.442   .     S
C763   C779    1.414   .     A
C763   C778    1.394   .     A
C764   C766    1.474   .     S
C764   C780    1.402   .     A
C765   H798    1.083   .     S
C765   C771    1.397   .     A
C765   C941    1.383   .     S
C766   O804    1.295   .     A
C766   O803    1.298   .     A
C767   C768    1.403   .     A
C767   H785    1.084   .     S
C768   C776    1.455   .     S
C768   C769    1.416   .     A
C769   C811    1.447   .     S
C770   H786    1.085   .     S
C770   C771    1.398   .     A
C770   C943    1.387   .     S
C772   N800    1.367   .     A
C772   H787    1.082   .     S
C772   C831    1.416   .     S
C773   N799    1.367   .     A
C773   H788    1.082   .     S
C774   N799    1.367   .     A
C774   H789    1.082   .     S
C775   N800    1.366   .     A
C775   H790    1.080   .     S
C775   C832    1.415   .     S
C776   O806    1.294   .     A
C776   O805    1.289   .     A
C777   O807    1.297   .     A
C777   C779    1.477   .     S
C777   O808    1.296   .     A
C780   H794    1.083   .     S
C780   C781    1.387   .     A
C781   C260    1.391   1_556 S
C781   H274    1.083   1_556 S
C782   H795    1.077   .     S
Cu783  O803    1.954   .     S
Cu783  Cu784   2.676   .     S
Cu783  O801    1.964   .     S
Cu783  O805    1.966   .     S
Cu783  N799    2.011   .     S
Cu783  O807    1.939   .     S
Cu784  O808    1.954   .     S
Cu784  O802    1.966   .     S
Cu784  N800    2.011   .     S
Cu784  O804    1.939   .     S
Cu784  O806    1.964   .     S
H792   C256    1.086   1_556 S
C809   N810    1.157   .     T
C811   N812    1.158   .     T
C813   O860    1.290   .     A
C813   C829    1.446   .     S
C813   O859    1.289   .     A
C814   C815    1.420   .     A
C814   C294    1.426   1_556 S
C814   C318    1.418   1_556 S
C815   C822    1.420   .     A
C815   C819    1.411   .     A
C816   C820    1.404   .     A
C817   C818    1.391   .     A
C817   C294    1.418   1_556 S
C817   C314    1.399   1_556 S
C818   C819    1.384   .     A
C818   H849    1.084   .     S
C819   H855    1.080   .     S
C820   H851    1.076   .     S
C820   C837    1.402   .     A
C821   C867    1.442   .     S
C821   C837    1.414   .     A
C821   C836    1.394   .     A
C822   C824    1.474   .     S
C822   C838    1.402   .     A
C823   H856    1.083   .     S
C823   C829    1.397   .     A
C823   C999    1.383   .     S
C824   O862    1.295   .     A
C824   O861    1.298   .     A
C825   C826    1.403   .     A
C825   H843    1.084   .     S
C826   C834    1.455   .     S
C826   C827    1.416   .     A
C827   C869    1.447   .     S
C828   H844    1.085   .     S
C828   C829    1.398   .     A
C828   C1001   1.387   .     S
C830   N858    1.367   .     A
C830   H845    1.082   .     S
C830   C715    1.416   1_655 S
C831   N857    1.367   .     A
C831   H846    1.082   .     S
C832   N857    1.367   .     A
C832   H847    1.082   .     S
C833   N858    1.366   .     A
C833   H848    1.080   .     S
C833   C716    1.415   1_655 S
C834   O864    1.294   .     A
C834   O863    1.289   .     A
C835   O865    1.297   .     A
C835   C837    1.477   .     S
C835   O866    1.296   .     A
C838   H852    1.083   .     S
C838   C839    1.387   .     A
C839   C318    1.391   1_556 S
C839   H332    1.083   1_556 S
C840   H853    1.077   .     S
Cu841  O861    1.954   .     S
Cu841  Cu842   2.676   .     S
Cu841  O859    1.964   .     S
Cu841  O863    1.966   .     S
Cu841  N857    2.011   .     S
Cu841  O865    1.939   .     S
Cu842  O866    1.954   .     S
Cu842  O860    1.966   .     S
Cu842  N858    2.011   .     S
Cu842  O862    1.939   .     S
Cu842  O864    1.964   .     S
H850   C314    1.086   1_556 S
C867   N868    1.157   .     T
C869   N870    1.158   .     T
C871   O918    1.290   .     A
C871   C887    1.446   .     S
C871   O917    1.289   .     A
C872   C873    1.420   .     A
C872   C352    1.426   1_556 S
C872   C376    1.418   1_556 S
C873   C880    1.420   .     A
C873   C877    1.411   .     A
C874   C878    1.404   .     A
C875   C876    1.391   .     A
C875   C352    1.418   1_556 S
C875   C372    1.399   1_556 S
C876   C877    1.384   .     A
C876   H907    1.084   .     S
C877   H913    1.080   .     S
C878   H909    1.076   .     S
C878   C895    1.402   .     A
C879   C925    1.442   .     S
C879   C895    1.414   .     A
C879   C894    1.394   .     A
C880   C882    1.474   .     S
C880   C896    1.402   .     A
C881   H914    1.083   .     S
C881   C887    1.397   .     A
C881   C535    1.383   1_565 S
C882   O920    1.295   .     A
C882   O919    1.298   .     A
C883   C884    1.403   .     A
C883   H901    1.084   .     S
C884   C892    1.455   .     S
C884   C885    1.416   .     A
C885   C927    1.447   .     S
C886   H902    1.085   .     S
C886   C887    1.398   .     A
C886   C537    1.387   1_565 S
C888   N916    1.367   .     A
C888   H903    1.082   .     S
C888   C947    1.416   .     S
C889   N915    1.367   .     A
C889   H904    1.082   .     S
C889   C1004   1.416   1_455 S
C890   N915    1.367   .     A
C890   H905    1.082   .     S
C890   C1007   1.415   1_455 S
C891   N916    1.366   .     A
C891   H906    1.080   .     S
C891   C948    1.415   .     S
C892   O922    1.294   .     A
C892   O921    1.289   .     A
C893   O923    1.297   .     A
C893   C895    1.477   .     S
C893   O924    1.296   .     A
C896   H910    1.083   .     S
C896   C897    1.387   .     A
C897   C376    1.391   1_556 S
C897   H390    1.083   1_556 S
C898   H911    1.077   .     S
Cu899  O919    1.954   .     S
Cu899  Cu900   2.676   .     S
Cu899  O917    1.964   .     S
Cu899  O921    1.966   .     S
Cu899  N915    2.011   .     S
Cu899  O923    1.939   .     S
Cu900  O924    1.954   .     S
Cu900  O918    1.966   .     S
Cu900  N916    2.011   .     S
Cu900  O920    1.939   .     S
Cu900  O922    1.964   .     S
H908   C372    1.086   1_556 S
C925   N926    1.157   .     T
C927   N928    1.158   .     T
C929   O976    1.290   .     A
C929   C945    1.446   .     S
C929   O975    1.289   .     A
C930   C931    1.420   .     A
C930   C410    1.426   1_556 S
C930   C434    1.418   1_556 S
C931   C938    1.420   .     A
C931   C935    1.411   .     A
C932   C936    1.404   .     A
C933   C934    1.391   .     A
C933   C410    1.418   1_556 S
C933   C430    1.399   1_556 S
C934   C935    1.384   .     A
C934   H965    1.084   .     S
C935   H971    1.080   .     S
C936   H967    1.076   .     S
C936   C953    1.402   .     A
C937   C983    1.442   .     S
C937   C953    1.414   .     A
C937   C952    1.394   .     A
C938   C940    1.474   .     S
C938   C954    1.402   .     A
C939   H972    1.083   .     S
C939   C945    1.397   .     A
C939   C593    1.383   1_565 S
C940   O978    1.295   .     A
C940   O977    1.298   .     A
C941   C942    1.403   .     A
C941   H959    1.084   .     S
C942   C950    1.455   .     S
C942   C943    1.416   .     A
C943   C985    1.447   .     S
C944   H960    1.085   .     S
C944   C945    1.398   .     A
C944   C595    1.387   1_565 S
C946   N974    1.367   .     A
C946   H961    1.082   .     S
C946   C1005   1.416   .     S
C947   N973    1.367   .     A
C947   H962    1.082   .     S
C948   N973    1.367   .     A
C948   H963    1.082   .     S
C949   N974    1.366   .     A
C949   H964    1.080   .     S
C949   C1006   1.415   .     S
C950   O980    1.294   .     A
C950   O979    1.289   .     A
C951   O981    1.297   .     A
C951   C953    1.477   .     S
C951   O982    1.296   .     A
C954   H968    1.083   .     S
C954   C955    1.387   .     A
C955   C434    1.391   1_556 S
C955   H448    1.083   1_556 S
C956   H969    1.077   .     S
Cu957  O977    1.954   .     S
Cu957  Cu958   2.676   .     S
Cu957  O975    1.964   .     S
Cu957  O979    1.966   .     S
Cu957  N973    2.011   .     S
Cu957  O981    1.939   .     S
Cu958  O982    1.954   .     S
Cu958  O976    1.966   .     S
Cu958  N974    2.011   .     S
Cu958  O978    1.939   .     S
Cu958  O980    1.964   .     S
H966   C430    1.086   1_556 S
C983   N984    1.157   .     T
C985   N986    1.158   .     T
C987   O1034   1.290   .     A
C987   C1003   1.446   .     S
C987   O1033   1.289   .     A
C988   C989    1.420   .     A
C988   C468    1.426   1_556 S
C988   C492    1.418   1_556 S
C989   C996    1.420   .     A
C989   C993    1.411   .     A
C990   C994    1.404   .     A
C991   C992    1.391   .     A
C991   C468    1.418   1_556 S
C991   C488    1.399   1_556 S
C992   C993    1.384   .     A
C992   H1023   1.084   .     S
C993   H1029   1.080   .     S
C994   H1025   1.076   .     S
C994   C1011   1.402   .     A
C995   C1041   1.442   .     S
C995   C1011   1.414   .     A
C995   C1010   1.394   .     A
C996   C998    1.474   .     S
C996   C1012   1.402   .     A
C997   H1030   1.083   .     S
C997   C1003   1.397   .     A
C997   C651    1.383   1_565 S
C998   O1036   1.295   .     A
C998   O1035   1.298   .     A
C999   C1000   1.403   .     A
C999   H1017   1.084   .     S
C1000  C1008   1.455   .     S
C1000  C1001   1.416   .     A
C1001  C1043   1.447   .     S
C1002  H1018   1.085   .     S
C1002  C1003   1.398   .     A
C1002  C653    1.387   1_565 S
C1004  N1032   1.367   .     A
C1004  H1019   1.082   .     S
C1004  C889    1.416   1_655 S
C1005  N1031   1.367   .     A
C1005  H1020   1.082   .     S
C1006  N1031   1.367   .     A
C1006  H1021   1.082   .     S
C1007  N1032   1.366   .     A
C1007  H1022   1.080   .     S
C1007  C890    1.415   1_655 S
C1008  O1038   1.294   .     A
C1008  O1037   1.289   .     A
C1009  O1039   1.297   .     A
C1009  C1011   1.477   .     S
C1009  O1040   1.296   .     A
C1012  H1026   1.083   .     S
C1012  C1013   1.387   .     A
C1013  C492    1.391   1_556 S
C1013  H506    1.083   1_556 S
C1014  H1027   1.077   .     S
Cu1015 O1035   1.954   .     S
Cu1015 Cu1016  2.676   .     S
Cu1015 O1033   1.964   .     S
Cu1015 O1037   1.966   .     S
Cu1015 N1031   2.011   .     S
Cu1015 O1039   1.939   .     S
Cu1016 O1040   1.954   .     S
Cu1016 O1034   1.966   .     S
Cu1016 N1032   2.011   .     S
Cu1016 O1036   1.939   .     S
Cu1016 O1038   1.964   .     S
H1024  C488    1.086   1_556 S
C1041  N1042   1.157   .     T
C1043  N1044   1.158   .     T
