data_str_m2_o10_o16_pcu_sym.25
_audit_creation_date              2020-01-03
_audit_creation_method            'Materials Studio'
_symmetry_space_group_name_H-M    'P1'
_symmetry_Int_Tables_number       1
_symmetry_cell_setting            triclinic
loop_
_symmetry_equiv_pos_as_xyz
  x,y,z
_cell_length_a                    22.5728
_cell_length_b                    26.0169
_cell_length_c                    26.9679
_cell_angle_alpha                 94.8576
_cell_angle_beta                  79.9990
_cell_angle_gamma                 102.8198
loop_
_atom_site_label
_atom_site_type_symbol
_atom_site_fract_x
_atom_site_fract_y
_atom_site_fract_z
_atom_site_U_iso_or_equiv
_atom_site_adp_type
_atom_site_occupancy
C1     C     0.18156   0.26662   0.25188   0.00000  Uiso   1.00
C2     C     0.11974   0.16662   0.40119   0.00000  Uiso   1.00
C3     C     0.18962   0.32263   0.25350   0.00000  Uiso   1.00
C4     C     0.13452   0.16244   0.34638   0.00000  Uiso   1.00
C5     C     0.14326   0.01068   0.24760   0.00000  Uiso   1.00
C6     C     0.15162   0.06670   0.24852   0.00000  Uiso   1.00
C7     C     0.19888   0.16747   0.15317   0.00000  Uiso   1.00
C8     C     0.28760   0.14217   0.02401   0.00000  Uiso   1.00
C9     C     0.21589   0.16161   0.09773   0.00000  Uiso   1.00
C10    C     0.07656   0.19717   0.42173   0.00000  Uiso   1.00
C11    C     0.07335   0.21633   0.47150   0.00000  Uiso   1.00
C12    C     0.14956   0.16767   0.48389   0.00000  Uiso   1.00
C13    C     0.10928   0.20155   0.00244   0.00000  Uiso   1.00
C14    C     0.32833   0.18319   0.10040   0.00000  Uiso   1.00
C15    C     0.32329   0.11160   0.20581   0.00000  Uiso   1.00
C16    C     0.10986   0.11980   0.08341   0.00000  Uiso   1.00
C17    C     0.15761   0.15191   0.43232   0.00000  Uiso   1.00
C18    C     0.18733   0.15439   0.01495   0.00000  Uiso   1.00
C19    C     0.24240   0.13928   0.49358   0.00000  Uiso   1.00
C20    C     0.25009   0.12197   0.44291   0.00000  Uiso   1.00
C21    C     0.20531   0.12429   0.41364   0.00000  Uiso   1.00
C22    C     0.16988   0.15205   0.06692   0.00000  Uiso   1.00
C23    C     0.27706   0.16157   0.07430   0.00000  Uiso   1.00
Cu24   Cu    0.10710   0.16105   0.24435   0.00000  Uiso   1.00
Cu25   Cu    0.22623   0.17228   0.25564   0.00000  Uiso   1.00
H26    H     0.09863   0.32026   0.24181   0.00000  Uiso   1.00
H27    H     0.00487   0.20917   0.28732   0.00000  Uiso   1.00
H28    H     0.28979   0.10588   0.42629   0.00000  Uiso   1.00
H29    H     0.33125   0.13226   0.00818   0.00000  Uiso   1.00
H30    H     0.04893   0.21011   0.39814   0.00000  Uiso   1.00
H31    H     0.10798   0.21887   0.04029   0.00000  Uiso   1.00
H32    H     0.04278   0.24267   0.48624   0.00000  Uiso   1.00
H33    H     0.21043   0.10634   0.37598   0.00000  Uiso   1.00
H34    H     0.23412   0.01301   0.25959   0.00000  Uiso   1.00
N35    N     0.31574   0.18074   0.26416   0.00000  Uiso   1.00
N36    N     0.01759   0.15259   0.23584   0.00000  Uiso   1.00
N37    N     0.03494   0.20174   0.12235   0.00000  Uiso   1.00
N38    N     0.30071   0.07712   0.18061   0.00000  Uiso   1.00
N39    N     0.06248   0.09244   0.09536   0.00000  Uiso   1.00
O40    O     0.12797   0.23807   0.24633   0.00000  Uiso   1.00
O41    O     0.22858   0.24755   0.25586   0.00000  Uiso   1.00
O42    O     0.09181   0.15960   0.31839   0.00000  Uiso   1.00
O43    O     0.19242   0.16908   0.32793   0.00000  Uiso   1.00
O44    O     0.10476   0.08578   0.24413   0.00000  Uiso   1.00
O45    O     0.20536   0.09526   0.25367   0.00000  Uiso   1.00
O46    O     0.14092   0.16425   0.17207   0.00000  Uiso   1.00
O47    O     0.24152   0.17373   0.18161   0.00000  Uiso   1.00
C48    C     0.51489   0.26662   0.25188   0.00000  Uiso   1.00
C49    C     0.45307   0.16662   0.40119   0.00000  Uiso   1.00
C50    C     0.52296   0.32263   0.25350   0.00000  Uiso   1.00
C51    C     0.46785   0.16244   0.34638   0.00000  Uiso   1.00
C52    C     0.47659   0.01068   0.24760   0.00000  Uiso   1.00
C53    C     0.48495   0.06670   0.24852   0.00000  Uiso   1.00
C54    C     0.53221   0.16747   0.15317   0.00000  Uiso   1.00
C55    C     0.62094   0.14217   0.02401   0.00000  Uiso   1.00
C56    C     0.54922   0.16161   0.09773   0.00000  Uiso   1.00
C57    C     0.40989   0.19717   0.42173   0.00000  Uiso   1.00
C58    C     0.40668   0.21633   0.47150   0.00000  Uiso   1.00
C59    C     0.48290   0.16767   0.48389   0.00000  Uiso   1.00
C60    C     0.44261   0.20155   0.00244   0.00000  Uiso   1.00
C61    C     0.66166   0.18319   0.10040   0.00000  Uiso   1.00
C62    C     0.65662   0.11160   0.20581   0.00000  Uiso   1.00
C63    C     0.44320   0.11980   0.08341   0.00000  Uiso   1.00
C64    C     0.49094   0.15191   0.43232   0.00000  Uiso   1.00
C65    C     0.52066   0.15439   0.01495   0.00000  Uiso   1.00
C66    C     0.57573   0.13928   0.49358   0.00000  Uiso   1.00
C67    C     0.58343   0.12197   0.44291   0.00000  Uiso   1.00
C68    C     0.53864   0.12429   0.41364   0.00000  Uiso   1.00
C69    C     0.50322   0.15205   0.06692   0.00000  Uiso   1.00
C70    C     0.61039   0.16157   0.07430   0.00000  Uiso   1.00
Cu71   Cu    0.44043   0.16105   0.24435   0.00000  Uiso   1.00
Cu72   Cu    0.55957   0.17228   0.25564   0.00000  Uiso   1.00
H73    H     0.43197   0.32026   0.24181   0.00000  Uiso   1.00
H74    H     0.33820   0.20917   0.28732   0.00000  Uiso   1.00
H75    H     0.62312   0.10588   0.42629   0.00000  Uiso   1.00
H76    H     0.66458   0.13226   0.00818   0.00000  Uiso   1.00
H77    H     0.38226   0.21011   0.39814   0.00000  Uiso   1.00
H78    H     0.44131   0.21887   0.04029   0.00000  Uiso   1.00
H79    H     0.37612   0.24267   0.48624   0.00000  Uiso   1.00
H80    H     0.54376   0.10634   0.37598   0.00000  Uiso   1.00
H81    H     0.56746   0.01301   0.25959   0.00000  Uiso   1.00
N82    N     0.64908   0.18074   0.26416   0.00000  Uiso   1.00
N83    N     0.35092   0.15259   0.23584   0.00000  Uiso   1.00
N84    N     0.36827   0.20174   0.12235   0.00000  Uiso   1.00
N85    N     0.63404   0.07712   0.18061   0.00000  Uiso   1.00
N86    N     0.39581   0.09244   0.09536   0.00000  Uiso   1.00
O87    O     0.46131   0.23807   0.24633   0.00000  Uiso   1.00
O88    O     0.56191   0.24755   0.25586   0.00000  Uiso   1.00
O89    O     0.42515   0.15960   0.31839   0.00000  Uiso   1.00
O90    O     0.52575   0.16908   0.32793   0.00000  Uiso   1.00
O91    O     0.43809   0.08578   0.24413   0.00000  Uiso   1.00
O92    O     0.53869   0.09526   0.25367   0.00000  Uiso   1.00
O93    O     0.47425   0.16425   0.17207   0.00000  Uiso   1.00
O94    O     0.57485   0.17373   0.18161   0.00000  Uiso   1.00
C95    C     0.84823   0.26662   0.25188   0.00000  Uiso   1.00
C96    C     0.78640   0.16662   0.40119   0.00000  Uiso   1.00
C97    C     0.85629   0.32263   0.25350   0.00000  Uiso   1.00
C98    C     0.80118   0.16244   0.34638   0.00000  Uiso   1.00
C99    C     0.80993   0.01068   0.24760   0.00000  Uiso   1.00
C100   C     0.81828   0.06670   0.24852   0.00000  Uiso   1.00
C101   C     0.86554   0.16747   0.15317   0.00000  Uiso   1.00
C102   C     0.95427   0.14217   0.02401   0.00000  Uiso   1.00
C103   C     0.88255   0.16161   0.09773   0.00000  Uiso   1.00
C104   C     0.74322   0.19717   0.42173   0.00000  Uiso   1.00
C105   C     0.74001   0.21633   0.47150   0.00000  Uiso   1.00
C106   C     0.81623   0.16767   0.48389   0.00000  Uiso   1.00
C107   C     0.77594   0.20155   0.00244   0.00000  Uiso   1.00
C108   C     0.99500   0.18319   0.10040   0.00000  Uiso   1.00
C109   C     0.98995   0.11160   0.20581   0.00000  Uiso   1.00
C110   C     0.77653   0.11980   0.08341   0.00000  Uiso   1.00
C111   C     0.82428   0.15191   0.43232   0.00000  Uiso   1.00
C112   C     0.85399   0.15439   0.01495   0.00000  Uiso   1.00
C113   C     0.90907   0.13928   0.49358   0.00000  Uiso   1.00
C114   C     0.91676   0.12197   0.44291   0.00000  Uiso   1.00
C115   C     0.87197   0.12429   0.41364   0.00000  Uiso   1.00
C116   C     0.83655   0.15205   0.06692   0.00000  Uiso   1.00
C117   C     0.94372   0.16157   0.07430   0.00000  Uiso   1.00
Cu118  Cu    0.77377   0.16105   0.24435   0.00000  Uiso   1.00
Cu119  Cu    0.89290   0.17228   0.25564   0.00000  Uiso   1.00
H120   H     0.76530   0.32026   0.24181   0.00000  Uiso   1.00
H121   H     0.67153   0.20917   0.28732   0.00000  Uiso   1.00
H122   H     0.95645   0.10588   0.42629   0.00000  Uiso   1.00
H123   H     0.99792   0.13226   0.00818   0.00000  Uiso   1.00
H124   H     0.71559   0.21011   0.39814   0.00000  Uiso   1.00
H125   H     0.77464   0.21887   0.04029   0.00000  Uiso   1.00
H126   H     0.70945   0.24267   0.48624   0.00000  Uiso   1.00
H127   H     0.87710   0.10634   0.37598   0.00000  Uiso   1.00
H128   H     0.90079   0.01301   0.25959   0.00000  Uiso   1.00
N129   N     0.98241   0.18074   0.26416   0.00000  Uiso   1.00
N130   N     0.68426   0.15259   0.23584   0.00000  Uiso   1.00
N131   N     0.70160   0.20174   0.12235   0.00000  Uiso   1.00
N132   N     0.96737   0.07712   0.18061   0.00000  Uiso   1.00
N133   N     0.72914   0.09244   0.09536   0.00000  Uiso   1.00
O134   O     0.79464   0.23807   0.24633   0.00000  Uiso   1.00
O135   O     0.89524   0.24755   0.25586   0.00000  Uiso   1.00
O136   O     0.75848   0.15960   0.31839   0.00000  Uiso   1.00
O137   O     0.85908   0.16908   0.32793   0.00000  Uiso   1.00
O138   O     0.77142   0.08578   0.24413   0.00000  Uiso   1.00
O139   O     0.87203   0.09526   0.25367   0.00000  Uiso   1.00
O140   O     0.80758   0.16425   0.17207   0.00000  Uiso   1.00
O141   O     0.90819   0.17373   0.18161   0.00000  Uiso   1.00
C142   C     0.18156   0.59995   0.25188   0.00000  Uiso   1.00
C143   C     0.11974   0.49995   0.40119   0.00000  Uiso   1.00
C144   C     0.18962   0.65596   0.25350   0.00000  Uiso   1.00
C145   C     0.13452   0.49578   0.34638   0.00000  Uiso   1.00
C146   C     0.14326   0.34402   0.24760   0.00000  Uiso   1.00
C147   C     0.15162   0.40004   0.24852   0.00000  Uiso   1.00
C148   C     0.19888   0.50080   0.15317   0.00000  Uiso   1.00
C149   C     0.28760   0.47550   0.02401   0.00000  Uiso   1.00
C150   C     0.21589   0.49494   0.09773   0.00000  Uiso   1.00
C151   C     0.07656   0.53050   0.42173   0.00000  Uiso   1.00
C152   C     0.07335   0.54966   0.47150   0.00000  Uiso   1.00
C153   C     0.14956   0.50100   0.48389   0.00000  Uiso   1.00
C154   C     0.10928   0.53489   0.00244   0.00000  Uiso   1.00
C155   C     0.32833   0.51653   0.10040   0.00000  Uiso   1.00
C156   C     0.32329   0.44493   0.20581   0.00000  Uiso   1.00
C157   C     0.10986   0.45313   0.08341   0.00000  Uiso   1.00
C158   C     0.15761   0.48524   0.43232   0.00000  Uiso   1.00
C159   C     0.18733   0.48772   0.01495   0.00000  Uiso   1.00
C160   C     0.24240   0.47262   0.49358   0.00000  Uiso   1.00
C161   C     0.25009   0.45530   0.44291   0.00000  Uiso   1.00
C162   C     0.20531   0.45763   0.41364   0.00000  Uiso   1.00
C163   C     0.16988   0.48538   0.06692   0.00000  Uiso   1.00
C164   C     0.27706   0.49490   0.07430   0.00000  Uiso   1.00
Cu165  Cu    0.10710   0.49439   0.24435   0.00000  Uiso   1.00
Cu166  Cu    0.22623   0.50561   0.25564   0.00000  Uiso   1.00
H167   H     0.09863   0.65359   0.24181   0.00000  Uiso   1.00
H168   H     0.00487   0.54250   0.28732   0.00000  Uiso   1.00
H169   H     0.28979   0.43922   0.42629   0.00000  Uiso   1.00
H170   H     0.33125   0.46559   0.00818   0.00000  Uiso   1.00
H171   H     0.04893   0.54344   0.39814   0.00000  Uiso   1.00
H172   H     0.10798   0.55221   0.04029   0.00000  Uiso   1.00
H173   H     0.04278   0.57600   0.48624   0.00000  Uiso   1.00
H174   H     0.21043   0.43967   0.37598   0.00000  Uiso   1.00
H175   H     0.23412   0.34634   0.25959   0.00000  Uiso   1.00
N176   N     0.31574   0.51407   0.26416   0.00000  Uiso   1.00
N177   N     0.01759   0.48593   0.23584   0.00000  Uiso   1.00
N178   N     0.03494   0.53508   0.12235   0.00000  Uiso   1.00
N179   N     0.30071   0.41046   0.18061   0.00000  Uiso   1.00
N180   N     0.06248   0.42577   0.09536   0.00000  Uiso   1.00
O181   O     0.12797   0.57141   0.24633   0.00000  Uiso   1.00
O182   O     0.22858   0.58089   0.25586   0.00000  Uiso   1.00
O183   O     0.09181   0.49293   0.31839   0.00000  Uiso   1.00
O184   O     0.19242   0.50241   0.32793   0.00000  Uiso   1.00
O185   O     0.10476   0.41911   0.24413   0.00000  Uiso   1.00
O186   O     0.20536   0.42859   0.25367   0.00000  Uiso   1.00
O187   O     0.14092   0.49759   0.17207   0.00000  Uiso   1.00
O188   O     0.24152   0.50707   0.18161   0.00000  Uiso   1.00
C189   C     0.51489   0.59995   0.25188   0.00000  Uiso   1.00
C190   C     0.45307   0.49995   0.40119   0.00000  Uiso   1.00
C191   C     0.52296   0.65596   0.25350   0.00000  Uiso   1.00
C192   C     0.46785   0.49578   0.34638   0.00000  Uiso   1.00
C193   C     0.47659   0.34402   0.24760   0.00000  Uiso   1.00
C194   C     0.48495   0.40004   0.24852   0.00000  Uiso   1.00
C195   C     0.53221   0.50080   0.15317   0.00000  Uiso   1.00
C196   C     0.62094   0.47550   0.02401   0.00000  Uiso   1.00
C197   C     0.54922   0.49494   0.09773   0.00000  Uiso   1.00
C198   C     0.40989   0.53050   0.42173   0.00000  Uiso   1.00
C199   C     0.40668   0.54966   0.47150   0.00000  Uiso   1.00
C200   C     0.48290   0.50100   0.48389   0.00000  Uiso   1.00
C201   C     0.44261   0.53489   0.00244   0.00000  Uiso   1.00
C202   C     0.66166   0.51653   0.10040   0.00000  Uiso   1.00
C203   C     0.65662   0.44493   0.20581   0.00000  Uiso   1.00
C204   C     0.44320   0.45313   0.08341   0.00000  Uiso   1.00
C205   C     0.49094   0.48524   0.43232   0.00000  Uiso   1.00
C206   C     0.52066   0.48772   0.01495   0.00000  Uiso   1.00
C207   C     0.57573   0.47262   0.49358   0.00000  Uiso   1.00
C208   C     0.58343   0.45530   0.44291   0.00000  Uiso   1.00
C209   C     0.53864   0.45763   0.41364   0.00000  Uiso   1.00
C210   C     0.50322   0.48538   0.06692   0.00000  Uiso   1.00
C211   C     0.61039   0.49490   0.07430   0.00000  Uiso   1.00
Cu212  Cu    0.44043   0.49439   0.24435   0.00000  Uiso   1.00
Cu213  Cu    0.55957   0.50561   0.25564   0.00000  Uiso   1.00
H214   H     0.43197   0.65359   0.24181   0.00000  Uiso   1.00
H215   H     0.33820   0.54250   0.28732   0.00000  Uiso   1.00
H216   H     0.62312   0.43922   0.42629   0.00000  Uiso   1.00
H217   H     0.66458   0.46559   0.00818   0.00000  Uiso   1.00
H218   H     0.38226   0.54344   0.39814   0.00000  Uiso   1.00
H219   H     0.44131   0.55221   0.04029   0.00000  Uiso   1.00
H220   H     0.37612   0.57600   0.48624   0.00000  Uiso   1.00
H221   H     0.54376   0.43967   0.37598   0.00000  Uiso   1.00
H222   H     0.56746   0.34634   0.25959   0.00000  Uiso   1.00
N223   N     0.64908   0.51407   0.26416   0.00000  Uiso   1.00
N224   N     0.35092   0.48593   0.23584   0.00000  Uiso   1.00
N225   N     0.36827   0.53508   0.12235   0.00000  Uiso   1.00
N226   N     0.63404   0.41046   0.18061   0.00000  Uiso   1.00
N227   N     0.39581   0.42577   0.09536   0.00000  Uiso   1.00
O228   O     0.46131   0.57141   0.24633   0.00000  Uiso   1.00
O229   O     0.56191   0.58089   0.25586   0.00000  Uiso   1.00
O230   O     0.42515   0.49293   0.31839   0.00000  Uiso   1.00
O231   O     0.52575   0.50241   0.32793   0.00000  Uiso   1.00
O232   O     0.43809   0.41911   0.24413   0.00000  Uiso   1.00
O233   O     0.53869   0.42859   0.25367   0.00000  Uiso   1.00
O234   O     0.47425   0.49759   0.17207   0.00000  Uiso   1.00
O235   O     0.57485   0.50707   0.18161   0.00000  Uiso   1.00
C236   C     0.84823   0.59995   0.25188   0.00000  Uiso   1.00
C237   C     0.78640   0.49995   0.40119   0.00000  Uiso   1.00
C238   C     0.85629   0.65596   0.25350   0.00000  Uiso   1.00
C239   C     0.80118   0.49578   0.34638   0.00000  Uiso   1.00
C240   C     0.80993   0.34402   0.24760   0.00000  Uiso   1.00
C241   C     0.81828   0.40004   0.24852   0.00000  Uiso   1.00
C242   C     0.86554   0.50080   0.15317   0.00000  Uiso   1.00
C243   C     0.95427   0.47550   0.02401   0.00000  Uiso   1.00
C244   C     0.88255   0.49494   0.09773   0.00000  Uiso   1.00
C245   C     0.74322   0.53050   0.42173   0.00000  Uiso   1.00
C246   C     0.74001   0.54966   0.47150   0.00000  Uiso   1.00
C247   C     0.81623   0.50100   0.48389   0.00000  Uiso   1.00
C248   C     0.77594   0.53489   0.00244   0.00000  Uiso   1.00
C249   C     0.99500   0.51653   0.10040   0.00000  Uiso   1.00
C250   C     0.98995   0.44493   0.20581   0.00000  Uiso   1.00
C251   C     0.77653   0.45313   0.08341   0.00000  Uiso   1.00
C252   C     0.82428   0.48524   0.43232   0.00000  Uiso   1.00
C253   C     0.85399   0.48772   0.01495   0.00000  Uiso   1.00
C254   C     0.90907   0.47262   0.49358   0.00000  Uiso   1.00
C255   C     0.91676   0.45530   0.44291   0.00000  Uiso   1.00
C256   C     0.87197   0.45763   0.41364   0.00000  Uiso   1.00
C257   C     0.83655   0.48538   0.06692   0.00000  Uiso   1.00
C258   C     0.94372   0.49490   0.07430   0.00000  Uiso   1.00
Cu259  Cu    0.77377   0.49439   0.24435   0.00000  Uiso   1.00
Cu260  Cu    0.89290   0.50561   0.25564   0.00000  Uiso   1.00
H261   H     0.76530   0.65359   0.24181   0.00000  Uiso   1.00
H262   H     0.67153   0.54250   0.28732   0.00000  Uiso   1.00
H263   H     0.95645   0.43922   0.42629   0.00000  Uiso   1.00
H264   H     0.99792   0.46559   0.00818   0.00000  Uiso   1.00
H265   H     0.71559   0.54344   0.39814   0.00000  Uiso   1.00
H266   H     0.77464   0.55221   0.04029   0.00000  Uiso   1.00
H267   H     0.70945   0.57600   0.48624   0.00000  Uiso   1.00
H268   H     0.87710   0.43967   0.37598   0.00000  Uiso   1.00
H269   H     0.90079   0.34634   0.25959   0.00000  Uiso   1.00
N270   N     0.98241   0.51407   0.26416   0.00000  Uiso   1.00
N271   N     0.68426   0.48593   0.23584   0.00000  Uiso   1.00
N272   N     0.70160   0.53508   0.12235   0.00000  Uiso   1.00
N273   N     0.96737   0.41046   0.18061   0.00000  Uiso   1.00
N274   N     0.72914   0.42577   0.09536   0.00000  Uiso   1.00
O275   O     0.79464   0.57141   0.24633   0.00000  Uiso   1.00
O276   O     0.89524   0.58089   0.25586   0.00000  Uiso   1.00
O277   O     0.75848   0.49293   0.31839   0.00000  Uiso   1.00
O278   O     0.85908   0.50241   0.32793   0.00000  Uiso   1.00
O279   O     0.77142   0.41911   0.24413   0.00000  Uiso   1.00
O280   O     0.87203   0.42859   0.25367   0.00000  Uiso   1.00
O281   O     0.80758   0.49759   0.17207   0.00000  Uiso   1.00
O282   O     0.90819   0.50707   0.18161   0.00000  Uiso   1.00
C283   C     0.18156   0.93329   0.25188   0.00000  Uiso   1.00
C284   C     0.11974   0.83328   0.40119   0.00000  Uiso   1.00
C285   C     0.18962   0.98929   0.25350   0.00000  Uiso   1.00
C286   C     0.13452   0.82911   0.34638   0.00000  Uiso   1.00
C287   C     0.14326   0.67735   0.24760   0.00000  Uiso   1.00
C288   C     0.15162   0.73337   0.24852   0.00000  Uiso   1.00
C289   C     0.19888   0.83414   0.15317   0.00000  Uiso   1.00
C290   C     0.28760   0.80883   0.02401   0.00000  Uiso   1.00
C291   C     0.21589   0.82828   0.09773   0.00000  Uiso   1.00
C292   C     0.07656   0.86383   0.42173   0.00000  Uiso   1.00
C293   C     0.07335   0.88299   0.47150   0.00000  Uiso   1.00
C294   C     0.14956   0.83434   0.48389   0.00000  Uiso   1.00
C295   C     0.10928   0.86822   0.00244   0.00000  Uiso   1.00
C296   C     0.32833   0.84986   0.10040   0.00000  Uiso   1.00
C297   C     0.32329   0.77827   0.20581   0.00000  Uiso   1.00
C298   C     0.10986   0.78647   0.08341   0.00000  Uiso   1.00
C299   C     0.15761   0.81858   0.43232   0.00000  Uiso   1.00
C300   C     0.18733   0.82105   0.01495   0.00000  Uiso   1.00
C301   C     0.24240   0.80595   0.49358   0.00000  Uiso   1.00
C302   C     0.25009   0.78863   0.44291   0.00000  Uiso   1.00
C303   C     0.20531   0.79096   0.41364   0.00000  Uiso   1.00
C304   C     0.16988   0.81871   0.06692   0.00000  Uiso   1.00
C305   C     0.27706   0.82823   0.07430   0.00000  Uiso   1.00
Cu306  Cu    0.10710   0.82772   0.24435   0.00000  Uiso   1.00
Cu307  Cu    0.22623   0.83895   0.25564   0.00000  Uiso   1.00
H308   H     0.09863   0.98693   0.24181   0.00000  Uiso   1.00
H309   H     0.00487   0.87583   0.28732   0.00000  Uiso   1.00
H310   H     0.28979   0.77255   0.42629   0.00000  Uiso   1.00
H311   H     0.33125   0.79892   0.00818   0.00000  Uiso   1.00
H312   H     0.04893   0.87678   0.39814   0.00000  Uiso   1.00
H313   H     0.10798   0.88554   0.04029   0.00000  Uiso   1.00
H314   H     0.04278   0.90934   0.48624   0.00000  Uiso   1.00
H315   H     0.21043   0.77300   0.37598   0.00000  Uiso   1.00
H316   H     0.23412   0.67967   0.25959   0.00000  Uiso   1.00
N317   N     0.31574   0.84741   0.26416   0.00000  Uiso   1.00
N318   N     0.01759   0.81926   0.23584   0.00000  Uiso   1.00
N319   N     0.03494   0.86841   0.12235   0.00000  Uiso   1.00
N320   N     0.30071   0.74379   0.18061   0.00000  Uiso   1.00
N321   N     0.06248   0.75911   0.09536   0.00000  Uiso   1.00
O322   O     0.12797   0.90474   0.24633   0.00000  Uiso   1.00
O323   O     0.22858   0.91422   0.25586   0.00000  Uiso   1.00
O324   O     0.09181   0.82627   0.31839   0.00000  Uiso   1.00
O325   O     0.19242   0.83575   0.32793   0.00000  Uiso   1.00
O326   O     0.10476   0.75245   0.24413   0.00000  Uiso   1.00
O327   O     0.20536   0.76193   0.25367   0.00000  Uiso   1.00
O328   O     0.14092   0.83092   0.17207   0.00000  Uiso   1.00
O329   O     0.24152   0.84040   0.18161   0.00000  Uiso   1.00
C330   C     0.51489   0.93329   0.25188   0.00000  Uiso   1.00
C331   C     0.45307   0.83328   0.40119   0.00000  Uiso   1.00
C332   C     0.52296   0.98929   0.25350   0.00000  Uiso   1.00
C333   C     0.46785   0.82911   0.34638   0.00000  Uiso   1.00
C334   C     0.47659   0.67735   0.24760   0.00000  Uiso   1.00
C335   C     0.48495   0.73337   0.24852   0.00000  Uiso   1.00
C336   C     0.53221   0.83414   0.15317   0.00000  Uiso   1.00
C337   C     0.62094   0.80883   0.02401   0.00000  Uiso   1.00
C338   C     0.54922   0.82828   0.09773   0.00000  Uiso   1.00
C339   C     0.40989   0.86383   0.42173   0.00000  Uiso   1.00
C340   C     0.40668   0.88299   0.47150   0.00000  Uiso   1.00
C341   C     0.48290   0.83434   0.48389   0.00000  Uiso   1.00
C342   C     0.44261   0.86822   0.00244   0.00000  Uiso   1.00
C343   C     0.66166   0.84986   0.10040   0.00000  Uiso   1.00
C344   C     0.65662   0.77827   0.20581   0.00000  Uiso   1.00
C345   C     0.44320   0.78647   0.08341   0.00000  Uiso   1.00
C346   C     0.49094   0.81858   0.43232   0.00000  Uiso   1.00
C347   C     0.52066   0.82105   0.01495   0.00000  Uiso   1.00
C348   C     0.57573   0.80595   0.49358   0.00000  Uiso   1.00
C349   C     0.58343   0.78863   0.44291   0.00000  Uiso   1.00
C350   C     0.53864   0.79096   0.41364   0.00000  Uiso   1.00
C351   C     0.50322   0.81871   0.06692   0.00000  Uiso   1.00
C352   C     0.61039   0.82823   0.07430   0.00000  Uiso   1.00
Cu353  Cu    0.44043   0.82772   0.24435   0.00000  Uiso   1.00
Cu354  Cu    0.55957   0.83895   0.25564   0.00000  Uiso   1.00
H355   H     0.43197   0.98693   0.24181   0.00000  Uiso   1.00
H356   H     0.33820   0.87583   0.28732   0.00000  Uiso   1.00
H357   H     0.62312   0.77255   0.42629   0.00000  Uiso   1.00
H358   H     0.66458   0.79892   0.00818   0.00000  Uiso   1.00
H359   H     0.38226   0.87678   0.39814   0.00000  Uiso   1.00
H360   H     0.44131   0.88554   0.04029   0.00000  Uiso   1.00
H361   H     0.37612   0.90934   0.48624   0.00000  Uiso   1.00
H362   H     0.54376   0.77300   0.37598   0.00000  Uiso   1.00
H363   H     0.56746   0.67967   0.25959   0.00000  Uiso   1.00
N364   N     0.64908   0.84741   0.26416   0.00000  Uiso   1.00
N365   N     0.35092   0.81926   0.23584   0.00000  Uiso   1.00
N366   N     0.36827   0.86841   0.12235   0.00000  Uiso   1.00
N367   N     0.63404   0.74379   0.18061   0.00000  Uiso   1.00
N368   N     0.39581   0.75911   0.09536   0.00000  Uiso   1.00
O369   O     0.46131   0.90474   0.24633   0.00000  Uiso   1.00
O370   O     0.56191   0.91422   0.25586   0.00000  Uiso   1.00
O371   O     0.42515   0.82627   0.31839   0.00000  Uiso   1.00
O372   O     0.52575   0.83575   0.32793   0.00000  Uiso   1.00
O373   O     0.43809   0.75245   0.24413   0.00000  Uiso   1.00
O374   O     0.53869   0.76193   0.25367   0.00000  Uiso   1.00
O375   O     0.47425   0.83092   0.17207   0.00000  Uiso   1.00
O376   O     0.57485   0.84040   0.18161   0.00000  Uiso   1.00
C377   C     0.84823   0.93329   0.25188   0.00000  Uiso   1.00
C378   C     0.78640   0.83328   0.40119   0.00000  Uiso   1.00
C379   C     0.85629   0.98929   0.25350   0.00000  Uiso   1.00
C380   C     0.80118   0.82911   0.34638   0.00000  Uiso   1.00
C381   C     0.80993   0.67735   0.24760   0.00000  Uiso   1.00
C382   C     0.81828   0.73337   0.24852   0.00000  Uiso   1.00
C383   C     0.86554   0.83414   0.15317   0.00000  Uiso   1.00
C384   C     0.95427   0.80883   0.02401   0.00000  Uiso   1.00
C385   C     0.88255   0.82828   0.09773   0.00000  Uiso   1.00
C386   C     0.74322   0.86383   0.42173   0.00000  Uiso   1.00
C387   C     0.74001   0.88299   0.47150   0.00000  Uiso   1.00
C388   C     0.81623   0.83434   0.48389   0.00000  Uiso   1.00
C389   C     0.77594   0.86822   0.00244   0.00000  Uiso   1.00
C390   C     0.99500   0.84986   0.10040   0.00000  Uiso   1.00
C391   C     0.98995   0.77827   0.20581   0.00000  Uiso   1.00
C392   C     0.77653   0.78647   0.08341   0.00000  Uiso   1.00
C393   C     0.82428   0.81858   0.43232   0.00000  Uiso   1.00
C394   C     0.85399   0.82105   0.01495   0.00000  Uiso   1.00
C395   C     0.90907   0.80595   0.49358   0.00000  Uiso   1.00
C396   C     0.91676   0.78863   0.44291   0.00000  Uiso   1.00
C397   C     0.87197   0.79096   0.41364   0.00000  Uiso   1.00
C398   C     0.83655   0.81871   0.06692   0.00000  Uiso   1.00
C399   C     0.94372   0.82823   0.07430   0.00000  Uiso   1.00
Cu400  Cu    0.77377   0.82772   0.24435   0.00000  Uiso   1.00
Cu401  Cu    0.89290   0.83895   0.25564   0.00000  Uiso   1.00
H402   H     0.76530   0.98693   0.24181   0.00000  Uiso   1.00
H403   H     0.67153   0.87583   0.28732   0.00000  Uiso   1.00
H404   H     0.95645   0.77255   0.42629   0.00000  Uiso   1.00
H405   H     0.99792   0.79892   0.00818   0.00000  Uiso   1.00
H406   H     0.71559   0.87678   0.39814   0.00000  Uiso   1.00
H407   H     0.77464   0.88554   0.04029   0.00000  Uiso   1.00
H408   H     0.70945   0.90934   0.48624   0.00000  Uiso   1.00
H409   H     0.87710   0.77300   0.37598   0.00000  Uiso   1.00
H410   H     0.90079   0.67967   0.25959   0.00000  Uiso   1.00
N411   N     0.98241   0.84741   0.26416   0.00000  Uiso   1.00
N412   N     0.68426   0.81926   0.23584   0.00000  Uiso   1.00
N413   N     0.70160   0.86841   0.12235   0.00000  Uiso   1.00
N414   N     0.96737   0.74379   0.18061   0.00000  Uiso   1.00
N415   N     0.72914   0.75911   0.09536   0.00000  Uiso   1.00
O416   O     0.79464   0.90474   0.24633   0.00000  Uiso   1.00
O417   O     0.89524   0.91422   0.25586   0.00000  Uiso   1.00
O418   O     0.75848   0.82627   0.31839   0.00000  Uiso   1.00
O419   O     0.85908   0.83575   0.32793   0.00000  Uiso   1.00
O420   O     0.77142   0.75245   0.24413   0.00000  Uiso   1.00
O421   O     0.87203   0.76193   0.25367   0.00000  Uiso   1.00
O422   O     0.80758   0.83092   0.17207   0.00000  Uiso   1.00
O423   O     0.90819   0.84040   0.18161   0.00000  Uiso   1.00
C424   C     0.18156   0.26662   0.75188   0.00000  Uiso   1.00
C425   C     0.11974   0.16662   0.90119   0.00000  Uiso   1.00
C426   C     0.18962   0.32263   0.75350   0.00000  Uiso   1.00
C427   C     0.13452   0.16244   0.84638   0.00000  Uiso   1.00
C428   C     0.14326   0.01068   0.74760   0.00000  Uiso   1.00
C429   C     0.15162   0.06670   0.74852   0.00000  Uiso   1.00
C430   C     0.19888   0.16747   0.65317   0.00000  Uiso   1.00
C431   C     0.28760   0.14217   0.52401   0.00000  Uiso   1.00
C432   C     0.21589   0.16161   0.59773   0.00000  Uiso   1.00
C433   C     0.07656   0.19717   0.92173   0.00000  Uiso   1.00
C434   C     0.07335   0.21633   0.97150   0.00000  Uiso   1.00
C435   C     0.14956   0.16767   0.98389   0.00000  Uiso   1.00
C436   C     0.10928   0.20155   0.50244   0.00000  Uiso   1.00
C437   C     0.32833   0.18319   0.60040   0.00000  Uiso   1.00
C438   C     0.32329   0.11160   0.70581   0.00000  Uiso   1.00
C439   C     0.10986   0.11980   0.58341   0.00000  Uiso   1.00
C440   C     0.15761   0.15191   0.93232   0.00000  Uiso   1.00
C441   C     0.18733   0.15439   0.51495   0.00000  Uiso   1.00
C442   C     0.24240   0.13928   0.99358   0.00000  Uiso   1.00
C443   C     0.25009   0.12197   0.94291   0.00000  Uiso   1.00
C444   C     0.20531   0.12429   0.91364   0.00000  Uiso   1.00
C445   C     0.16988   0.15205   0.56692   0.00000  Uiso   1.00
C446   C     0.27706   0.16157   0.57430   0.00000  Uiso   1.00
Cu447  Cu    0.10710   0.16105   0.74435   0.00000  Uiso   1.00
Cu448  Cu    0.22623   0.17228   0.75564   0.00000  Uiso   1.00
H449   H     0.09863   0.32026   0.74181   0.00000  Uiso   1.00
H450   H     0.00487   0.20917   0.78732   0.00000  Uiso   1.00
H451   H     0.28979   0.10588   0.92629   0.00000  Uiso   1.00
H452   H     0.33125   0.13226   0.50818   0.00000  Uiso   1.00
H453   H     0.04893   0.21011   0.89814   0.00000  Uiso   1.00
H454   H     0.10798   0.21887   0.54029   0.00000  Uiso   1.00
H455   H     0.04278   0.24267   0.98624   0.00000  Uiso   1.00
H456   H     0.21043   0.10634   0.87598   0.00000  Uiso   1.00
H457   H     0.23412   0.01301   0.75959   0.00000  Uiso   1.00
N458   N     0.31574   0.18074   0.76416   0.00000  Uiso   1.00
N459   N     0.01759   0.15259   0.73584   0.00000  Uiso   1.00
N460   N     0.03494   0.20174   0.62235   0.00000  Uiso   1.00
N461   N     0.30071   0.07712   0.68061   0.00000  Uiso   1.00
N462   N     0.06248   0.09244   0.59536   0.00000  Uiso   1.00
O463   O     0.12797   0.23807   0.74633   0.00000  Uiso   1.00
O464   O     0.22858   0.24755   0.75586   0.00000  Uiso   1.00
O465   O     0.09181   0.15960   0.81839   0.00000  Uiso   1.00
O466   O     0.19242   0.16908   0.82793   0.00000  Uiso   1.00
O467   O     0.10476   0.08578   0.74413   0.00000  Uiso   1.00
O468   O     0.20536   0.09526   0.75367   0.00000  Uiso   1.00
O469   O     0.14092   0.16425   0.67207   0.00000  Uiso   1.00
O470   O     0.24152   0.17373   0.68161   0.00000  Uiso   1.00
C471   C     0.51489   0.26662   0.75188   0.00000  Uiso   1.00
C472   C     0.45307   0.16662   0.90119   0.00000  Uiso   1.00
C473   C     0.52296   0.32263   0.75350   0.00000  Uiso   1.00
C474   C     0.46785   0.16244   0.84638   0.00000  Uiso   1.00
C475   C     0.47659   0.01068   0.74760   0.00000  Uiso   1.00
C476   C     0.48495   0.06670   0.74852   0.00000  Uiso   1.00
C477   C     0.53221   0.16747   0.65317   0.00000  Uiso   1.00
C478   C     0.62094   0.14217   0.52401   0.00000  Uiso   1.00
C479   C     0.54922   0.16161   0.59773   0.00000  Uiso   1.00
C480   C     0.40989   0.19717   0.92173   0.00000  Uiso   1.00
C481   C     0.40668   0.21633   0.97150   0.00000  Uiso   1.00
C482   C     0.48290   0.16767   0.98389   0.00000  Uiso   1.00
C483   C     0.44261   0.20155   0.50244   0.00000  Uiso   1.00
C484   C     0.66166   0.18319   0.60040   0.00000  Uiso   1.00
C485   C     0.65662   0.11160   0.70581   0.00000  Uiso   1.00
C486   C     0.44320   0.11980   0.58341   0.00000  Uiso   1.00
C487   C     0.49094   0.15191   0.93232   0.00000  Uiso   1.00
C488   C     0.52066   0.15439   0.51495   0.00000  Uiso   1.00
C489   C     0.57573   0.13928   0.99358   0.00000  Uiso   1.00
C490   C     0.58343   0.12197   0.94291   0.00000  Uiso   1.00
C491   C     0.53864   0.12429   0.91364   0.00000  Uiso   1.00
C492   C     0.50322   0.15205   0.56692   0.00000  Uiso   1.00
C493   C     0.61039   0.16157   0.57430   0.00000  Uiso   1.00
Cu494  Cu    0.44043   0.16105   0.74435   0.00000  Uiso   1.00
Cu495  Cu    0.55957   0.17228   0.75564   0.00000  Uiso   1.00
H496   H     0.43197   0.32026   0.74181   0.00000  Uiso   1.00
H497   H     0.33820   0.20917   0.78732   0.00000  Uiso   1.00
H498   H     0.62312   0.10588   0.92629   0.00000  Uiso   1.00
H499   H     0.66458   0.13226   0.50818   0.00000  Uiso   1.00
H500   H     0.38226   0.21011   0.89814   0.00000  Uiso   1.00
H501   H     0.44131   0.21887   0.54029   0.00000  Uiso   1.00
H502   H     0.37612   0.24267   0.98624   0.00000  Uiso   1.00
H503   H     0.54376   0.10634   0.87598   0.00000  Uiso   1.00
H504   H     0.56746   0.01301   0.75959   0.00000  Uiso   1.00
N505   N     0.64908   0.18074   0.76416   0.00000  Uiso   1.00
N506   N     0.35092   0.15259   0.73584   0.00000  Uiso   1.00
N507   N     0.36827   0.20174   0.62235   0.00000  Uiso   1.00
N508   N     0.63404   0.07712   0.68061   0.00000  Uiso   1.00
N509   N     0.39581   0.09244   0.59536   0.00000  Uiso   1.00
O510   O     0.46131   0.23807   0.74633   0.00000  Uiso   1.00
O511   O     0.56191   0.24755   0.75586   0.00000  Uiso   1.00
O512   O     0.42515   0.15960   0.81839   0.00000  Uiso   1.00
O513   O     0.52575   0.16908   0.82793   0.00000  Uiso   1.00
O514   O     0.43809   0.08578   0.74413   0.00000  Uiso   1.00
O515   O     0.53869   0.09526   0.75367   0.00000  Uiso   1.00
O516   O     0.47425   0.16425   0.67207   0.00000  Uiso   1.00
O517   O     0.57485   0.17373   0.68161   0.00000  Uiso   1.00
C518   C     0.84823   0.26662   0.75188   0.00000  Uiso   1.00
C519   C     0.78640   0.16662   0.90119   0.00000  Uiso   1.00
C520   C     0.85629   0.32263   0.75350   0.00000  Uiso   1.00
C521   C     0.80118   0.16244   0.84638   0.00000  Uiso   1.00
C522   C     0.80993   0.01068   0.74760   0.00000  Uiso   1.00
C523   C     0.81828   0.06670   0.74852   0.00000  Uiso   1.00
C524   C     0.86554   0.16747   0.65317   0.00000  Uiso   1.00
C525   C     0.95427   0.14217   0.52401   0.00000  Uiso   1.00
C526   C     0.88255   0.16161   0.59773   0.00000  Uiso   1.00
C527   C     0.74322   0.19717   0.92173   0.00000  Uiso   1.00
C528   C     0.74001   0.21633   0.97150   0.00000  Uiso   1.00
C529   C     0.81623   0.16767   0.98389   0.00000  Uiso   1.00
C530   C     0.77594   0.20155   0.50244   0.00000  Uiso   1.00
C531   C     0.99500   0.18319   0.60040   0.00000  Uiso   1.00
C532   C     0.98995   0.11160   0.70581   0.00000  Uiso   1.00
C533   C     0.77653   0.11980   0.58341   0.00000  Uiso   1.00
C534   C     0.82428   0.15191   0.93232   0.00000  Uiso   1.00
C535   C     0.85399   0.15439   0.51495   0.00000  Uiso   1.00
C536   C     0.90907   0.13928   0.99358   0.00000  Uiso   1.00
C537   C     0.91676   0.12197   0.94291   0.00000  Uiso   1.00
C538   C     0.87197   0.12429   0.91364   0.00000  Uiso   1.00
C539   C     0.83655   0.15205   0.56692   0.00000  Uiso   1.00
C540   C     0.94372   0.16157   0.57430   0.00000  Uiso   1.00
Cu541  Cu    0.77377   0.16105   0.74435   0.00000  Uiso   1.00
Cu542  Cu    0.89290   0.17228   0.75564   0.00000  Uiso   1.00
H543   H     0.76530   0.32026   0.74181   0.00000  Uiso   1.00
H544   H     0.67153   0.20917   0.78732   0.00000  Uiso   1.00
H545   H     0.95645   0.10588   0.92629   0.00000  Uiso   1.00
H546   H     0.99792   0.13226   0.50818   0.00000  Uiso   1.00
H547   H     0.71559   0.21011   0.89814   0.00000  Uiso   1.00
H548   H     0.77464   0.21887   0.54029   0.00000  Uiso   1.00
H549   H     0.70945   0.24267   0.98624   0.00000  Uiso   1.00
H550   H     0.87710   0.10634   0.87598   0.00000  Uiso   1.00
H551   H     0.90079   0.01301   0.75959   0.00000  Uiso   1.00
N552   N     0.98241   0.18074   0.76416   0.00000  Uiso   1.00
N553   N     0.68426   0.15259   0.73584   0.00000  Uiso   1.00
N554   N     0.70160   0.20174   0.62235   0.00000  Uiso   1.00
N555   N     0.96737   0.07712   0.68061   0.00000  Uiso   1.00
N556   N     0.72914   0.09244   0.59536   0.00000  Uiso   1.00
O557   O     0.79464   0.23807   0.74633   0.00000  Uiso   1.00
O558   O     0.89524   0.24755   0.75586   0.00000  Uiso   1.00
O559   O     0.75848   0.15960   0.81839   0.00000  Uiso   1.00
O560   O     0.85908   0.16908   0.82793   0.00000  Uiso   1.00
O561   O     0.77142   0.08578   0.74413   0.00000  Uiso   1.00
O562   O     0.87203   0.09526   0.75367   0.00000  Uiso   1.00
O563   O     0.80758   0.16425   0.67207   0.00000  Uiso   1.00
O564   O     0.90819   0.17373   0.68161   0.00000  Uiso   1.00
C565   C     0.18156   0.59995   0.75188   0.00000  Uiso   1.00
C566   C     0.11974   0.49995   0.90119   0.00000  Uiso   1.00
C567   C     0.18962   0.65596   0.75350   0.00000  Uiso   1.00
C568   C     0.13452   0.49578   0.84638   0.00000  Uiso   1.00
C569   C     0.14326   0.34402   0.74760   0.00000  Uiso   1.00
C570   C     0.15162   0.40004   0.74852   0.00000  Uiso   1.00
C571   C     0.19888   0.50080   0.65317   0.00000  Uiso   1.00
C572   C     0.28760   0.47550   0.52401   0.00000  Uiso   1.00
C573   C     0.21589   0.49494   0.59773   0.00000  Uiso   1.00
C574   C     0.07656   0.53050   0.92173   0.00000  Uiso   1.00
C575   C     0.07335   0.54966   0.97150   0.00000  Uiso   1.00
C576   C     0.14956   0.50100   0.98389   0.00000  Uiso   1.00
C577   C     0.10928   0.53489   0.50244   0.00000  Uiso   1.00
C578   C     0.32833   0.51653   0.60040   0.00000  Uiso   1.00
C579   C     0.32329   0.44493   0.70581   0.00000  Uiso   1.00
C580   C     0.10986   0.45313   0.58341   0.00000  Uiso   1.00
C581   C     0.15761   0.48524   0.93232   0.00000  Uiso   1.00
C582   C     0.18733   0.48772   0.51495   0.00000  Uiso   1.00
C583   C     0.24240   0.47262   0.99358   0.00000  Uiso   1.00
C584   C     0.25009   0.45530   0.94291   0.00000  Uiso   1.00
C585   C     0.20531   0.45763   0.91364   0.00000  Uiso   1.00
C586   C     0.16988   0.48538   0.56692   0.00000  Uiso   1.00
C587   C     0.27706   0.49490   0.57430   0.00000  Uiso   1.00
Cu588  Cu    0.10710   0.49439   0.74435   0.00000  Uiso   1.00
Cu589  Cu    0.22623   0.50561   0.75564   0.00000  Uiso   1.00
H590   H     0.09863   0.65359   0.74181   0.00000  Uiso   1.00
H591   H     0.00487   0.54250   0.78732   0.00000  Uiso   1.00
H592   H     0.28979   0.43922   0.92629   0.00000  Uiso   1.00
H593   H     0.33125   0.46559   0.50818   0.00000  Uiso   1.00
H594   H     0.04893   0.54344   0.89814   0.00000  Uiso   1.00
H595   H     0.10798   0.55221   0.54029   0.00000  Uiso   1.00
H596   H     0.04278   0.57600   0.98624   0.00000  Uiso   1.00
H597   H     0.21043   0.43967   0.87598   0.00000  Uiso   1.00
H598   H     0.23412   0.34634   0.75959   0.00000  Uiso   1.00
N599   N     0.31574   0.51407   0.76416   0.00000  Uiso   1.00
N600   N     0.01759   0.48593   0.73584   0.00000  Uiso   1.00
N601   N     0.03494   0.53508   0.62235   0.00000  Uiso   1.00
N602   N     0.30071   0.41046   0.68061   0.00000  Uiso   1.00
N603   N     0.06248   0.42577   0.59536   0.00000  Uiso   1.00
O604   O     0.12797   0.57141   0.74633   0.00000  Uiso   1.00
O605   O     0.22858   0.58089   0.75586   0.00000  Uiso   1.00
O606   O     0.09181   0.49293   0.81839   0.00000  Uiso   1.00
O607   O     0.19242   0.50241   0.82793   0.00000  Uiso   1.00
O608   O     0.10476   0.41911   0.74413   0.00000  Uiso   1.00
O609   O     0.20536   0.42859   0.75367   0.00000  Uiso   1.00
O610   O     0.14092   0.49759   0.67207   0.00000  Uiso   1.00
O611   O     0.24152   0.50707   0.68161   0.00000  Uiso   1.00
C612   C     0.51489   0.59995   0.75188   0.00000  Uiso   1.00
C613   C     0.45307   0.49995   0.90119   0.00000  Uiso   1.00
C614   C     0.52296   0.65596   0.75350   0.00000  Uiso   1.00
C615   C     0.46785   0.49578   0.84638   0.00000  Uiso   1.00
C616   C     0.47659   0.34402   0.74760   0.00000  Uiso   1.00
C617   C     0.48495   0.40004   0.74852   0.00000  Uiso   1.00
C618   C     0.53221   0.50080   0.65317   0.00000  Uiso   1.00
C619   C     0.62094   0.47550   0.52401   0.00000  Uiso   1.00
C620   C     0.54922   0.49494   0.59773   0.00000  Uiso   1.00
C621   C     0.40989   0.53050   0.92173   0.00000  Uiso   1.00
C622   C     0.40668   0.54966   0.97150   0.00000  Uiso   1.00
C623   C     0.48290   0.50100   0.98389   0.00000  Uiso   1.00
C624   C     0.44261   0.53489   0.50244   0.00000  Uiso   1.00
C625   C     0.66166   0.51653   0.60040   0.00000  Uiso   1.00
C626   C     0.65662   0.44493   0.70581   0.00000  Uiso   1.00
C627   C     0.44320   0.45313   0.58341   0.00000  Uiso   1.00
C628   C     0.49094   0.48524   0.93232   0.00000  Uiso   1.00
C629   C     0.52066   0.48772   0.51495   0.00000  Uiso   1.00
C630   C     0.57573   0.47262   0.99358   0.00000  Uiso   1.00
C631   C     0.58343   0.45530   0.94291   0.00000  Uiso   1.00
C632   C     0.53864   0.45763   0.91364   0.00000  Uiso   1.00
C633   C     0.50322   0.48538   0.56692   0.00000  Uiso   1.00
C634   C     0.61039   0.49490   0.57430   0.00000  Uiso   1.00
Cu635  Cu    0.44043   0.49439   0.74435   0.00000  Uiso   1.00
Cu636  Cu    0.55957   0.50561   0.75564   0.00000  Uiso   1.00
H637   H     0.43197   0.65359   0.74181   0.00000  Uiso   1.00
H638   H     0.33820   0.54250   0.78732   0.00000  Uiso   1.00
H639   H     0.62312   0.43922   0.92629   0.00000  Uiso   1.00
H640   H     0.66458   0.46559   0.50818   0.00000  Uiso   1.00
H641   H     0.38226   0.54344   0.89814   0.00000  Uiso   1.00
H642   H     0.44131   0.55221   0.54029   0.00000  Uiso   1.00
H643   H     0.37612   0.57600   0.98624   0.00000  Uiso   1.00
H644   H     0.54376   0.43967   0.87598   0.00000  Uiso   1.00
H645   H     0.56746   0.34634   0.75959   0.00000  Uiso   1.00
N646   N     0.64908   0.51407   0.76416   0.00000  Uiso   1.00
N647   N     0.35092   0.48593   0.73584   0.00000  Uiso   1.00
N648   N     0.36827   0.53508   0.62235   0.00000  Uiso   1.00
N649   N     0.63404   0.41046   0.68061   0.00000  Uiso   1.00
N650   N     0.39581   0.42577   0.59536   0.00000  Uiso   1.00
O651   O     0.46131   0.57141   0.74633   0.00000  Uiso   1.00
O652   O     0.56191   0.58089   0.75586   0.00000  Uiso   1.00
O653   O     0.42515   0.49293   0.81839   0.00000  Uiso   1.00
O654   O     0.52575   0.50241   0.82793   0.00000  Uiso   1.00
O655   O     0.43809   0.41911   0.74413   0.00000  Uiso   1.00
O656   O     0.53869   0.42859   0.75367   0.00000  Uiso   1.00
O657   O     0.47425   0.49759   0.67207   0.00000  Uiso   1.00
O658   O     0.57485   0.50707   0.68161   0.00000  Uiso   1.00
C659   C     0.84823   0.59995   0.75188   0.00000  Uiso   1.00
C660   C     0.78640   0.49995   0.90119   0.00000  Uiso   1.00
C661   C     0.85629   0.65596   0.75350   0.00000  Uiso   1.00
C662   C     0.80118   0.49578   0.84638   0.00000  Uiso   1.00
C663   C     0.80993   0.34402   0.74760   0.00000  Uiso   1.00
C664   C     0.81828   0.40004   0.74852   0.00000  Uiso   1.00
C665   C     0.86554   0.50080   0.65317   0.00000  Uiso   1.00
C666   C     0.95427   0.47550   0.52401   0.00000  Uiso   1.00
C667   C     0.88255   0.49494   0.59773   0.00000  Uiso   1.00
C668   C     0.74322   0.53050   0.92173   0.00000  Uiso   1.00
C669   C     0.74001   0.54966   0.97150   0.00000  Uiso   1.00
C670   C     0.81623   0.50100   0.98389   0.00000  Uiso   1.00
C671   C     0.77594   0.53489   0.50244   0.00000  Uiso   1.00
C672   C     0.99500   0.51653   0.60040   0.00000  Uiso   1.00
C673   C     0.98995   0.44493   0.70581   0.00000  Uiso   1.00
C674   C     0.77653   0.45313   0.58341   0.00000  Uiso   1.00
C675   C     0.82428   0.48524   0.93232   0.00000  Uiso   1.00
C676   C     0.85399   0.48772   0.51495   0.00000  Uiso   1.00
C677   C     0.90907   0.47262   0.99358   0.00000  Uiso   1.00
C678   C     0.91676   0.45530   0.94291   0.00000  Uiso   1.00
C679   C     0.87197   0.45763   0.91364   0.00000  Uiso   1.00
C680   C     0.83655   0.48538   0.56692   0.00000  Uiso   1.00
C681   C     0.94372   0.49490   0.57430   0.00000  Uiso   1.00
Cu682  Cu    0.77377   0.49439   0.74435   0.00000  Uiso   1.00
Cu683  Cu    0.89290   0.50561   0.75564   0.00000  Uiso   1.00
H684   H     0.76530   0.65359   0.74181   0.00000  Uiso   1.00
H685   H     0.67153   0.54250   0.78732   0.00000  Uiso   1.00
H686   H     0.95645   0.43922   0.92629   0.00000  Uiso   1.00
H687   H     0.99792   0.46559   0.50818   0.00000  Uiso   1.00
H688   H     0.71559   0.54344   0.89814   0.00000  Uiso   1.00
H689   H     0.77464   0.55221   0.54029   0.00000  Uiso   1.00
H690   H     0.70945   0.57600   0.98624   0.00000  Uiso   1.00
H691   H     0.87710   0.43967   0.87598   0.00000  Uiso   1.00
H692   H     0.90079   0.34634   0.75959   0.00000  Uiso   1.00
N693   N     0.98241   0.51407   0.76416   0.00000  Uiso   1.00
N694   N     0.68426   0.48593   0.73584   0.00000  Uiso   1.00
N695   N     0.70160   0.53508   0.62235   0.00000  Uiso   1.00
N696   N     0.96737   0.41046   0.68061   0.00000  Uiso   1.00
N697   N     0.72914   0.42577   0.59536   0.00000  Uiso   1.00
O698   O     0.79464   0.57141   0.74633   0.00000  Uiso   1.00
O699   O     0.89524   0.58089   0.75586   0.00000  Uiso   1.00
O700   O     0.75848   0.49293   0.81839   0.00000  Uiso   1.00
O701   O     0.85908   0.50241   0.82793   0.00000  Uiso   1.00
O702   O     0.77142   0.41911   0.74413   0.00000  Uiso   1.00
O703   O     0.87203   0.42859   0.75367   0.00000  Uiso   1.00
O704   O     0.80758   0.49759   0.67207   0.00000  Uiso   1.00
O705   O     0.90819   0.50707   0.68161   0.00000  Uiso   1.00
C706   C     0.18156   0.93329   0.75188   0.00000  Uiso   1.00
C707   C     0.11974   0.83328   0.90119   0.00000  Uiso   1.00
C708   C     0.18962   0.98929   0.75350   0.00000  Uiso   1.00
C709   C     0.13452   0.82911   0.84638   0.00000  Uiso   1.00
C710   C     0.14326   0.67735   0.74760   0.00000  Uiso   1.00
C711   C     0.15162   0.73337   0.74852   0.00000  Uiso   1.00
C712   C     0.19888   0.83414   0.65317   0.00000  Uiso   1.00
C713   C     0.28760   0.80883   0.52401   0.00000  Uiso   1.00
C714   C     0.21589   0.82828   0.59773   0.00000  Uiso   1.00
C715   C     0.07656   0.86383   0.92173   0.00000  Uiso   1.00
C716   C     0.07335   0.88299   0.97150   0.00000  Uiso   1.00
C717   C     0.14956   0.83434   0.98389   0.00000  Uiso   1.00
C718   C     0.10928   0.86822   0.50244   0.00000  Uiso   1.00
C719   C     0.32833   0.84986   0.60040   0.00000  Uiso   1.00
C720   C     0.32329   0.77827   0.70581   0.00000  Uiso   1.00
C721   C     0.10986   0.78647   0.58341   0.00000  Uiso   1.00
C722   C     0.15761   0.81858   0.93232   0.00000  Uiso   1.00
C723   C     0.18733   0.82105   0.51495   0.00000  Uiso   1.00
C724   C     0.24240   0.80595   0.99358   0.00000  Uiso   1.00
C725   C     0.25009   0.78863   0.94291   0.00000  Uiso   1.00
C726   C     0.20531   0.79096   0.91364   0.00000  Uiso   1.00
C727   C     0.16988   0.81871   0.56692   0.00000  Uiso   1.00
C728   C     0.27706   0.82823   0.57430   0.00000  Uiso   1.00
Cu729  Cu    0.10710   0.82772   0.74435   0.00000  Uiso   1.00
Cu730  Cu    0.22623   0.83895   0.75564   0.00000  Uiso   1.00
H731   H     0.09863   0.98693   0.74181   0.00000  Uiso   1.00
H732   H     0.00487   0.87583   0.78732   0.00000  Uiso   1.00
H733   H     0.28979   0.77255   0.92629   0.00000  Uiso   1.00
H734   H     0.33125   0.79892   0.50818   0.00000  Uiso   1.00
H735   H     0.04893   0.87678   0.89814   0.00000  Uiso   1.00
H736   H     0.10798   0.88554   0.54029   0.00000  Uiso   1.00
H737   H     0.04278   0.90934   0.98624   0.00000  Uiso   1.00
H738   H     0.21043   0.77300   0.87598   0.00000  Uiso   1.00
H739   H     0.23412   0.67967   0.75959   0.00000  Uiso   1.00
N740   N     0.31574   0.84741   0.76416   0.00000  Uiso   1.00
N741   N     0.01759   0.81926   0.73584   0.00000  Uiso   1.00
N742   N     0.03494   0.86841   0.62235   0.00000  Uiso   1.00
N743   N     0.30071   0.74379   0.68061   0.00000  Uiso   1.00
N744   N     0.06248   0.75911   0.59536   0.00000  Uiso   1.00
O745   O     0.12797   0.90474   0.74633   0.00000  Uiso   1.00
O746   O     0.22858   0.91422   0.75586   0.00000  Uiso   1.00
O747   O     0.09181   0.82627   0.81839   0.00000  Uiso   1.00
O748   O     0.19242   0.83575   0.82793   0.00000  Uiso   1.00
O749   O     0.10476   0.75245   0.74413   0.00000  Uiso   1.00
O750   O     0.20536   0.76193   0.75367   0.00000  Uiso   1.00
O751   O     0.14092   0.83092   0.67207   0.00000  Uiso   1.00
O752   O     0.24152   0.84040   0.68161   0.00000  Uiso   1.00
C753   C     0.51489   0.93329   0.75188   0.00000  Uiso   1.00
C754   C     0.45307   0.83328   0.90119   0.00000  Uiso   1.00
C755   C     0.52296   0.98929   0.75350   0.00000  Uiso   1.00
C756   C     0.46785   0.82911   0.84638   0.00000  Uiso   1.00
C757   C     0.47659   0.67735   0.74760   0.00000  Uiso   1.00
C758   C     0.48495   0.73337   0.74852   0.00000  Uiso   1.00
C759   C     0.53221   0.83414   0.65317   0.00000  Uiso   1.00
C760   C     0.62094   0.80883   0.52401   0.00000  Uiso   1.00
C761   C     0.54922   0.82828   0.59773   0.00000  Uiso   1.00
C762   C     0.40989   0.86383   0.92173   0.00000  Uiso   1.00
C763   C     0.40668   0.88299   0.97150   0.00000  Uiso   1.00
C764   C     0.48290   0.83434   0.98389   0.00000  Uiso   1.00
C765   C     0.44261   0.86822   0.50244   0.00000  Uiso   1.00
C766   C     0.66166   0.84986   0.60040   0.00000  Uiso   1.00
C767   C     0.65662   0.77827   0.70581   0.00000  Uiso   1.00
C768   C     0.44320   0.78647   0.58341   0.00000  Uiso   1.00
C769   C     0.49094   0.81858   0.93232   0.00000  Uiso   1.00
C770   C     0.52066   0.82105   0.51495   0.00000  Uiso   1.00
C771   C     0.57573   0.80595   0.99358   0.00000  Uiso   1.00
C772   C     0.58343   0.78863   0.94291   0.00000  Uiso   1.00
C773   C     0.53864   0.79096   0.91364   0.00000  Uiso   1.00
C774   C     0.50322   0.81871   0.56692   0.00000  Uiso   1.00
C775   C     0.61039   0.82823   0.57430   0.00000  Uiso   1.00
Cu776  Cu    0.44043   0.82772   0.74435   0.00000  Uiso   1.00
Cu777  Cu    0.55957   0.83895   0.75564   0.00000  Uiso   1.00
H778   H     0.43197   0.98693   0.74181   0.00000  Uiso   1.00
H779   H     0.33820   0.87583   0.78732   0.00000  Uiso   1.00
H780   H     0.62312   0.77255   0.92629   0.00000  Uiso   1.00
H781   H     0.66458   0.79892   0.50818   0.00000  Uiso   1.00
H782   H     0.38226   0.87678   0.89814   0.00000  Uiso   1.00
H783   H     0.44131   0.88554   0.54029   0.00000  Uiso   1.00
H784   H     0.37612   0.90934   0.98624   0.00000  Uiso   1.00
H785   H     0.54376   0.77300   0.87598   0.00000  Uiso   1.00
H786   H     0.56746   0.67967   0.75959   0.00000  Uiso   1.00
N787   N     0.64908   0.84741   0.76416   0.00000  Uiso   1.00
N788   N     0.35092   0.81926   0.73584   0.00000  Uiso   1.00
N789   N     0.36827   0.86841   0.62235   0.00000  Uiso   1.00
N790   N     0.63404   0.74379   0.68061   0.00000  Uiso   1.00
N791   N     0.39581   0.75911   0.59536   0.00000  Uiso   1.00
O792   O     0.46131   0.90474   0.74633   0.00000  Uiso   1.00
O793   O     0.56191   0.91422   0.75586   0.00000  Uiso   1.00
O794   O     0.42515   0.82627   0.81839   0.00000  Uiso   1.00
O795   O     0.52575   0.83575   0.82793   0.00000  Uiso   1.00
O796   O     0.43809   0.75245   0.74413   0.00000  Uiso   1.00
O797   O     0.53869   0.76193   0.75367   0.00000  Uiso   1.00
O798   O     0.47425   0.83092   0.67207   0.00000  Uiso   1.00
O799   O     0.57485   0.84040   0.68161   0.00000  Uiso   1.00
C800   C     0.84823   0.93329   0.75188   0.00000  Uiso   1.00
C801   C     0.78640   0.83328   0.90119   0.00000  Uiso   1.00
C802   C     0.85629   0.98929   0.75350   0.00000  Uiso   1.00
C803   C     0.80118   0.82911   0.84638   0.00000  Uiso   1.00
C804   C     0.80993   0.67735   0.74760   0.00000  Uiso   1.00
C805   C     0.81828   0.73337   0.74852   0.00000  Uiso   1.00
C806   C     0.86554   0.83414   0.65317   0.00000  Uiso   1.00
C807   C     0.95427   0.80883   0.52401   0.00000  Uiso   1.00
C808   C     0.88255   0.82828   0.59773   0.00000  Uiso   1.00
C809   C     0.74322   0.86383   0.92173   0.00000  Uiso   1.00
C810   C     0.74001   0.88299   0.97150   0.00000  Uiso   1.00
C811   C     0.81623   0.83434   0.98389   0.00000  Uiso   1.00
C812   C     0.77594   0.86822   0.50244   0.00000  Uiso   1.00
C813   C     0.99500   0.84986   0.60040   0.00000  Uiso   1.00
C814   C     0.98995   0.77827   0.70581   0.00000  Uiso   1.00
C815   C     0.77653   0.78647   0.58341   0.00000  Uiso   1.00
C816   C     0.82428   0.81858   0.93232   0.00000  Uiso   1.00
C817   C     0.85399   0.82105   0.51495   0.00000  Uiso   1.00
C818   C     0.90907   0.80595   0.99358   0.00000  Uiso   1.00
C819   C     0.91676   0.78863   0.94291   0.00000  Uiso   1.00
C820   C     0.87197   0.79096   0.91364   0.00000  Uiso   1.00
C821   C     0.83655   0.81871   0.56692   0.00000  Uiso   1.00
C822   C     0.94372   0.82823   0.57430   0.00000  Uiso   1.00
Cu823  Cu    0.77377   0.82772   0.74435   0.00000  Uiso   1.00
Cu824  Cu    0.89290   0.83895   0.75564   0.00000  Uiso   1.00
H825   H     0.76530   0.98693   0.74181   0.00000  Uiso   1.00
H826   H     0.67153   0.87583   0.78732   0.00000  Uiso   1.00
H827   H     0.95645   0.77255   0.92629   0.00000  Uiso   1.00
H828   H     0.99792   0.79892   0.50818   0.00000  Uiso   1.00
H829   H     0.71559   0.87678   0.89814   0.00000  Uiso   1.00
H830   H     0.77464   0.88554   0.54029   0.00000  Uiso   1.00
H831   H     0.70945   0.90934   0.98624   0.00000  Uiso   1.00
H832   H     0.87710   0.77300   0.87598   0.00000  Uiso   1.00
H833   H     0.90079   0.67967   0.75959   0.00000  Uiso   1.00
N834   N     0.98241   0.84741   0.76416   0.00000  Uiso   1.00
N835   N     0.68426   0.81926   0.73584   0.00000  Uiso   1.00
N836   N     0.70160   0.86841   0.62235   0.00000  Uiso   1.00
N837   N     0.96737   0.74379   0.68061   0.00000  Uiso   1.00
N838   N     0.72914   0.75911   0.59536   0.00000  Uiso   1.00
O839   O     0.79464   0.90474   0.74633   0.00000  Uiso   1.00
O840   O     0.89524   0.91422   0.75586   0.00000  Uiso   1.00
O841   O     0.75848   0.82627   0.81839   0.00000  Uiso   1.00
O842   O     0.85908   0.83575   0.82793   0.00000  Uiso   1.00
O843   O     0.77142   0.75245   0.74413   0.00000  Uiso   1.00
O844   O     0.87203   0.76193   0.75367   0.00000  Uiso   1.00
O845   O     0.80758   0.83092   0.67207   0.00000  Uiso   1.00
O846   O     0.90819   0.84040   0.68161   0.00000  Uiso   1.00
loop_
_geom_bond_atom_site_label_1
_geom_bond_atom_site_label_2
_geom_bond_distance
_geom_bond_site_symmetry_2
_ccdc_geom_bond_type
C1     O41     1.291   .     A
C1     O40     1.297   .     A
C1     C3      1.426   .     S
C2     C4      1.458   .     S
C2     C17     1.425   .     A
C2     C10     1.404   .     A
C3     C146    1.327   .     S
C3     H175    1.087   .     S
C4     O42     1.310   .     A
C4     O43     1.294   .     A
C5     C6      1.426   .     S
C5     C285    1.327   1_545 S
C5     H308    1.088   1_545 S
C6     O45     1.298   .     A
C6     O44     1.291   .     A
C7     O46     1.306   .     A
C7     C9      1.481   .     S
C7     O47     1.306   .     A
C8     H29     1.080   .     S
C8     C23     1.406   .     A
C8     C442    1.402   1_554 S
C9     C22     1.407   .     A
C9     C23     1.415   .     A
C10    C11     1.387   .     A
C10    H30     1.084   .     S
C11    H32     1.083   .     S
C11    C436    1.389   .     S
C12    C17     1.408   .     A
C12    C436    1.406   .     S
C12    C441    1.406   .     S
C13    H31     1.078   .     S
C13    C434    1.389   1_554 S
C13    C435    1.406   1_554 S
C14    C23     1.442   .     S
C14    N84     1.158   .     S
C15    N38     1.158   .     T
C15    N83     1.384   .     S
C16    N39     1.156   .     T
C16    C22     1.445   .     S
C17    C21     1.422   .     A
C18    C22     1.391   .     A
C18    C435    1.406   1_554 S
C18    C442    1.401   1_554 S
C19    C20     1.396   .     A
C19    C431    1.402   .     S
C19    C441    1.401   .     S
C20    C21     1.400   .     A
C20    H28     1.084   .     S
C21    H33     1.080   .     S
Cu24   Cu25    2.707   .     S
Cu24   O42     1.969   .     S
Cu24   O46     1.968   .     S
Cu24   N36     2.034   .     S
Cu24   O44     1.947   .     S
Cu24   O40     1.952   .     S
Cu25   O47     1.969   .     S
Cu25   O43     1.968   .     S
Cu25   N35     2.034   .     S
Cu25   O45     1.952   .     S
Cu25   O41     1.947   .     S
H26    C146    1.088   .     S
H27    N129    1.029   1_455 S
H34    C285    1.087   1_545 S
N35    H74     1.029   .     S
N35    N83     1.305   .     S
N36    N129    1.305   1_455 S
N36    C109    1.384   1_455 S
N37    C108    1.158   1_455 S
C48    O88     1.291   .     A
C48    O87     1.297   .     A
C48    C50     1.426   .     S
C49    C51     1.458   .     S
C49    C64     1.425   .     A
C49    C57     1.404   .     A
C50    C193    1.327   .     S
C50    H222    1.087   .     S
C51    O89     1.310   .     A
C51    O90     1.294   .     A
C52    C53     1.426   .     S
C52    C332    1.327   1_545 S
C52    H355    1.088   1_545 S
C53    O92     1.298   .     A
C53    O91     1.291   .     A
C54    O93     1.306   .     A
C54    C56     1.481   .     S
C54    O94     1.306   .     A
C55    H76     1.080   .     S
C55    C70     1.406   .     A
C55    C489    1.402   1_554 S
C56    C69     1.407   .     A
C56    C70     1.415   .     A
C57    C58     1.387   .     A
C57    H77     1.084   .     S
C58    H79     1.083   .     S
C58    C483    1.389   .     S
C59    C64     1.408   .     A
C59    C483    1.406   .     S
C59    C488    1.406   .     S
C60    H78     1.078   .     S
C60    C481    1.389   1_554 S
C60    C482    1.406   1_554 S
C61    C70     1.442   .     S
C61    N131    1.158   .     S
C62    N85     1.158   .     T
C62    N130    1.384   .     S
C63    N86     1.156   .     T
C63    C69     1.445   .     S
C64    C68     1.422   .     A
C65    C69     1.391   .     A
C65    C482    1.406   1_554 S
C65    C489    1.401   1_554 S
C66    C67     1.396   .     A
C66    C478    1.402   .     S
C66    C488    1.401   .     S
C67    C68     1.400   .     A
C67    H75     1.084   .     S
C68    H80     1.080   .     S
Cu71   Cu72    2.707   .     S
Cu71   O89     1.969   .     S
Cu71   O93     1.968   .     S
Cu71   N83     2.034   .     S
Cu71   O91     1.947   .     S
Cu71   O87     1.952   .     S
Cu72   O94     1.969   .     S
Cu72   O90     1.968   .     S
Cu72   N82     2.034   .     S
Cu72   O92     1.952   .     S
Cu72   O88     1.947   .     S
H73    C193    1.088   .     S
H81    C332    1.087   1_545 S
N82    H121    1.029   .     S
N82    N130    1.305   .     S
C95    O135    1.291   .     A
C95    O134    1.297   .     A
C95    C97     1.426   .     S
C96    C98     1.458   .     S
C96    C111    1.425   .     A
C96    C104    1.404   .     A
C97    C240    1.327   .     S
C97    H269    1.087   .     S
C98    O136    1.310   .     A
C98    O137    1.294   .     A
C99    C100    1.426   .     S
C99    C379    1.327   1_545 S
C99    H402    1.088   1_545 S
C100   O139    1.298   .     A
C100   O138    1.291   .     A
C101   O140    1.306   .     A
C101   C103    1.481   .     S
C101   O141    1.306   .     A
C102   H123    1.080   .     S
C102   C117    1.406   .     A
C102   C536    1.402   1_554 S
C103   C116    1.407   .     A
C103   C117    1.415   .     A
C104   C105    1.387   .     A
C104   H124    1.084   .     S
C105   H126    1.083   .     S
C105   C530    1.389   .     S
C106   C111    1.408   .     A
C106   C530    1.406   .     S
C106   C535    1.406   .     S
C107   H125    1.078   .     S
C107   C528    1.389   1_554 S
C107   C529    1.406   1_554 S
C108   C117    1.442   .     S
C108   N37     1.158   1_655 S
C109   N132    1.158   .     T
C109   N36     1.384   1_655 S
C110   N133    1.156   .     T
C110   C116    1.445   .     S
C111   C115    1.422   .     A
C112   C116    1.391   .     A
C112   C529    1.406   1_554 S
C112   C536    1.401   1_554 S
C113   C114    1.396   .     A
C113   C525    1.402   .     S
C113   C535    1.401   .     S
C114   C115    1.400   .     A
C114   H122    1.084   .     S
C115   H127    1.080   .     S
Cu118  Cu119   2.707   .     S
Cu118  O136    1.969   .     S
Cu118  O140    1.968   .     S
Cu118  N130    2.034   .     S
Cu118  O138    1.947   .     S
Cu118  O134    1.952   .     S
Cu119  O141    1.969   .     S
Cu119  O137    1.968   .     S
Cu119  N129    2.034   .     S
Cu119  O139    1.952   .     S
Cu119  O135    1.947   .     S
H120   C240    1.088   .     S
H128   C379    1.087   1_545 S
N129   H27     1.029   1_655 S
N129   N36     1.305   1_655 S
C142   O182    1.291   .     A
C142   O181    1.297   .     A
C142   C144    1.426   .     S
C143   C145    1.458   .     S
C143   C158    1.425   .     A
C143   C151    1.404   .     A
C144   C287    1.327   .     S
C144   H316    1.087   .     S
C145   O183    1.310   .     A
C145   O184    1.294   .     A
C146   C147    1.426   .     S
C147   O186    1.298   .     A
C147   O185    1.291   .     A
C148   O187    1.306   .     A
C148   C150    1.481   .     S
C148   O188    1.306   .     A
C149   H170    1.080   .     S
C149   C164    1.406   .     A
C149   C583    1.402   1_554 S
C150   C163    1.407   .     A
C150   C164    1.415   .     A
C151   C152    1.387   .     A
C151   H171    1.084   .     S
C152   H173    1.083   .     S
C152   C577    1.389   .     S
C153   C158    1.408   .     A
C153   C577    1.406   .     S
C153   C582    1.406   .     S
C154   H172    1.078   .     S
C154   C575    1.389   1_554 S
C154   C576    1.406   1_554 S
C155   C164    1.442   .     S
C155   N225    1.158   .     S
C156   N179    1.158   .     T
C156   N224    1.384   .     S
C157   N180    1.156   .     T
C157   C163    1.445   .     S
C158   C162    1.422   .     A
C159   C163    1.391   .     A
C159   C576    1.406   1_554 S
C159   C583    1.401   1_554 S
C160   C161    1.396   .     A
C160   C572    1.402   .     S
C160   C582    1.401   .     S
C161   C162    1.400   .     A
C161   H169    1.084   .     S
C162   H174    1.080   .     S
Cu165  Cu166   2.707   .     S
Cu165  O183    1.969   .     S
Cu165  O187    1.968   .     S
Cu165  N177    2.034   .     S
Cu165  O185    1.947   .     S
Cu165  O181    1.952   .     S
Cu166  O188    1.969   .     S
Cu166  O184    1.968   .     S
Cu166  N176    2.034   .     S
Cu166  O186    1.952   .     S
Cu166  O182    1.947   .     S
H167   C287    1.088   .     S
H168   N270    1.029   1_455 S
N176   H215    1.029   .     S
N176   N224    1.305   .     S
N177   N270    1.305   1_455 S
N177   C250    1.384   1_455 S
N178   C249    1.158   1_455 S
C189   O229    1.291   .     A
C189   O228    1.297   .     A
C189   C191    1.426   .     S
C190   C192    1.458   .     S
C190   C205    1.425   .     A
C190   C198    1.404   .     A
C191   C334    1.327   .     S
C191   H363    1.087   .     S
C192   O230    1.310   .     A
C192   O231    1.294   .     A
C193   C194    1.426   .     S
C194   O233    1.298   .     A
C194   O232    1.291   .     A
C195   O234    1.306   .     A
C195   C197    1.481   .     S
C195   O235    1.306   .     A
C196   H217    1.080   .     S
C196   C211    1.406   .     A
C196   C630    1.402   1_554 S
C197   C210    1.407   .     A
C197   C211    1.415   .     A
C198   C199    1.387   .     A
C198   H218    1.084   .     S
C199   H220    1.083   .     S
C199   C624    1.389   .     S
C200   C205    1.408   .     A
C200   C624    1.406   .     S
C200   C629    1.406   .     S
C201   H219    1.078   .     S
C201   C622    1.389   1_554 S
C201   C623    1.406   1_554 S
C202   C211    1.442   .     S
C202   N272    1.158   .     S
C203   N226    1.158   .     T
C203   N271    1.384   .     S
C204   N227    1.156   .     T
C204   C210    1.445   .     S
C205   C209    1.422   .     A
C206   C210    1.391   .     A
C206   C623    1.406   1_554 S
C206   C630    1.401   1_554 S
C207   C208    1.396   .     A
C207   C619    1.402   .     S
C207   C629    1.401   .     S
C208   C209    1.400   .     A
C208   H216    1.084   .     S
C209   H221    1.080   .     S
Cu212  Cu213   2.707   .     S
Cu212  O230    1.969   .     S
Cu212  O234    1.968   .     S
Cu212  N224    2.034   .     S
Cu212  O232    1.947   .     S
Cu212  O228    1.952   .     S
Cu213  O235    1.969   .     S
Cu213  O231    1.968   .     S
Cu213  N223    2.034   .     S
Cu213  O233    1.952   .     S
Cu213  O229    1.947   .     S
H214   C334    1.088   .     S
N223   H262    1.029   .     S
N223   N271    1.305   .     S
C236   O276    1.291   .     A
C236   O275    1.297   .     A
C236   C238    1.426   .     S
C237   C239    1.458   .     S
C237   C252    1.425   .     A
C237   C245    1.404   .     A
C238   C381    1.327   .     S
C238   H410    1.087   .     S
C239   O277    1.310   .     A
C239   O278    1.294   .     A
C240   C241    1.426   .     S
C241   O280    1.298   .     A
C241   O279    1.291   .     A
C242   O281    1.306   .     A
C242   C244    1.481   .     S
C242   O282    1.306   .     A
C243   H264    1.080   .     S
C243   C258    1.406   .     A
C243   C677    1.402   1_554 S
C244   C257    1.407   .     A
C244   C258    1.415   .     A
C245   C246    1.387   .     A
C245   H265    1.084   .     S
C246   H267    1.083   .     S
C246   C671    1.389   .     S
C247   C252    1.408   .     A
C247   C671    1.406   .     S
C247   C676    1.406   .     S
C248   H266    1.078   .     S
C248   C669    1.389   1_554 S
C248   C670    1.406   1_554 S
C249   C258    1.442   .     S
C249   N178    1.158   1_655 S
C250   N273    1.158   .     T
C250   N177    1.384   1_655 S
C251   N274    1.156   .     T
C251   C257    1.445   .     S
C252   C256    1.422   .     A
C253   C257    1.391   .     A
C253   C670    1.406   1_554 S
C253   C677    1.401   1_554 S
C254   C255    1.396   .     A
C254   C666    1.402   .     S
C254   C676    1.401   .     S
C255   C256    1.400   .     A
C255   H263    1.084   .     S
C256   H268    1.080   .     S
Cu259  Cu260   2.707   .     S
Cu259  O277    1.969   .     S
Cu259  O281    1.968   .     S
Cu259  N271    2.034   .     S
Cu259  O279    1.947   .     S
Cu259  O275    1.952   .     S
Cu260  O282    1.969   .     S
Cu260  O278    1.968   .     S
Cu260  N270    2.034   .     S
Cu260  O280    1.952   .     S
Cu260  O276    1.947   .     S
H261   C381    1.088   .     S
N270   H168    1.029   1_655 S
N270   N177    1.305   1_655 S
C283   O323    1.291   .     A
C283   O322    1.297   .     A
C283   C285    1.426   .     S
C284   C286    1.458   .     S
C284   C299    1.425   .     A
C284   C292    1.404   .     A
C285   C5      1.327   1_565 S
C285   H34     1.087   1_565 S
C286   O324    1.310   .     A
C286   O325    1.294   .     A
C287   C288    1.426   .     S
C288   O327    1.298   .     A
C288   O326    1.291   .     A
C289   O328    1.306   .     A
C289   C291    1.481   .     S
C289   O329    1.306   .     A
C290   H311    1.080   .     S
C290   C305    1.406   .     A
C290   C724    1.402   1_554 S
C291   C304    1.407   .     A
C291   C305    1.415   .     A
C292   C293    1.387   .     A
C292   H312    1.084   .     S
C293   H314    1.083   .     S
C293   C718    1.389   .     S
C294   C299    1.408   .     A
C294   C718    1.406   .     S
C294   C723    1.406   .     S
C295   H313    1.078   .     S
C295   C716    1.389   1_554 S
C295   C717    1.406   1_554 S
C296   C305    1.442   .     S
C296   N366    1.158   .     S
C297   N320    1.158   .     T
C297   N365    1.384   .     S
C298   N321    1.156   .     T
C298   C304    1.445   .     S
C299   C303    1.422   .     A
C300   C304    1.391   .     A
C300   C717    1.406   1_554 S
C300   C724    1.401   1_554 S
C301   C302    1.396   .     A
C301   C713    1.402   .     S
C301   C723    1.401   .     S
C302   C303    1.400   .     A
C302   H310    1.084   .     S
C303   H315    1.080   .     S
Cu306  Cu307   2.707   .     S
Cu306  O324    1.969   .     S
Cu306  O328    1.968   .     S
Cu306  N318    2.034   .     S
Cu306  O326    1.947   .     S
Cu306  O322    1.952   .     S
Cu307  O329    1.969   .     S
Cu307  O325    1.968   .     S
Cu307  N317    2.034   .     S
Cu307  O327    1.952   .     S
Cu307  O323    1.947   .     S
H308   C5      1.088   1_565 S
H309   N411    1.029   1_455 S
N317   H356    1.029   .     S
N317   N365    1.305   .     S
N318   N411    1.305   1_455 S
N318   C391    1.384   1_455 S
N319   C390    1.158   1_455 S
C330   O370    1.291   .     A
C330   O369    1.297   .     A
C330   C332    1.426   .     S
C331   C333    1.458   .     S
C331   C346    1.425   .     A
C331   C339    1.404   .     A
C332   C52     1.327   1_565 S
C332   H81     1.087   1_565 S
C333   O371    1.310   .     A
C333   O372    1.294   .     A
C334   C335    1.426   .     S
C335   O374    1.298   .     A
C335   O373    1.291   .     A
C336   O375    1.306   .     A
C336   C338    1.481   .     S
C336   O376    1.306   .     A
C337   H358    1.080   .     S
C337   C352    1.406   .     A
C337   C771    1.402   1_554 S
C338   C351    1.407   .     A
C338   C352    1.415   .     A
C339   C340    1.387   .     A
C339   H359    1.084   .     S
C340   H361    1.083   .     S
C340   C765    1.389   .     S
C341   C346    1.408   .     A
C341   C765    1.406   .     S
C341   C770    1.406   .     S
C342   H360    1.078   .     S
C342   C763    1.389   1_554 S
C342   C764    1.406   1_554 S
C343   C352    1.442   .     S
C343   N413    1.158   .     S
C344   N367    1.158   .     T
C344   N412    1.384   .     S
C345   N368    1.156   .     T
C345   C351    1.445   .     S
C346   C350    1.422   .     A
C347   C351    1.391   .     A
C347   C764    1.406   1_554 S
C347   C771    1.401   1_554 S
C348   C349    1.396   .     A
C348   C760    1.402   .     S
C348   C770    1.401   .     S
C349   C350    1.400   .     A
C349   H357    1.084   .     S
C350   H362    1.080   .     S
Cu353  Cu354   2.707   .     S
Cu353  O371    1.969   .     S
Cu353  O375    1.968   .     S
Cu353  N365    2.034   .     S
Cu353  O373    1.947   .     S
Cu353  O369    1.952   .     S
Cu354  O376    1.969   .     S
Cu354  O372    1.968   .     S
Cu354  N364    2.034   .     S
Cu354  O374    1.952   .     S
Cu354  O370    1.947   .     S
H355   C52     1.088   1_565 S
N364   H403    1.029   .     S
N364   N412    1.305   .     S
C377   O417    1.291   .     A
C377   O416    1.297   .     A
C377   C379    1.426   .     S
C378   C380    1.458   .     S
C378   C393    1.425   .     A
C378   C386    1.404   .     A
C379   C99     1.327   1_565 S
C379   H128    1.087   1_565 S
C380   O418    1.310   .     A
C380   O419    1.294   .     A
C381   C382    1.426   .     S
C382   O421    1.298   .     A
C382   O420    1.291   .     A
C383   O422    1.306   .     A
C383   C385    1.481   .     S
C383   O423    1.306   .     A
C384   H405    1.080   .     S
C384   C399    1.406   .     A
C384   C818    1.402   1_554 S
C385   C398    1.407   .     A
C385   C399    1.415   .     A
C386   C387    1.387   .     A
C386   H406    1.084   .     S
C387   H408    1.083   .     S
C387   C812    1.389   .     S
C388   C393    1.408   .     A
C388   C812    1.406   .     S
C388   C817    1.406   .     S
C389   H407    1.078   .     S
C389   C810    1.389   1_554 S
C389   C811    1.406   1_554 S
C390   C399    1.442   .     S
C390   N319    1.158   1_655 S
C391   N414    1.158   .     T
C391   N318    1.384   1_655 S
C392   N415    1.156   .     T
C392   C398    1.445   .     S
C393   C397    1.422   .     A
C394   C398    1.391   .     A
C394   C811    1.406   1_554 S
C394   C818    1.401   1_554 S
C395   C396    1.396   .     A
C395   C807    1.402   .     S
C395   C817    1.401   .     S
C396   C397    1.400   .     A
C396   H404    1.084   .     S
C397   H409    1.080   .     S
Cu400  Cu401   2.707   .     S
Cu400  O418    1.969   .     S
Cu400  O422    1.968   .     S
Cu400  N412    2.034   .     S
Cu400  O420    1.947   .     S
Cu400  O416    1.952   .     S
Cu401  O423    1.969   .     S
Cu401  O419    1.968   .     S
Cu401  N411    2.034   .     S
Cu401  O421    1.952   .     S
Cu401  O417    1.947   .     S
H402   C99     1.088   1_565 S
N411   H309    1.029   1_655 S
N411   N318    1.305   1_655 S
C424   O464    1.291   .     A
C424   O463    1.297   .     A
C424   C426    1.426   .     S
C425   C427    1.458   .     S
C425   C440    1.425   .     A
C425   C433    1.404   .     A
C426   C569    1.327   .     S
C426   H598    1.087   .     S
C427   O465    1.310   .     A
C427   O466    1.294   .     A
C428   C429    1.426   .     S
C428   C708    1.327   1_545 S
C428   H731    1.088   1_545 S
C429   O468    1.298   .     A
C429   O467    1.291   .     A
C430   O469    1.306   .     A
C430   C432    1.481   .     S
C430   O470    1.306   .     A
C431   H452    1.080   .     S
C431   C446    1.406   .     A
C432   C445    1.407   .     A
C432   C446    1.415   .     A
C433   C434    1.387   .     A
C433   H453    1.084   .     S
C434   H455    1.083   .     S
C434   C13     1.389   1_556 S
C435   C440    1.408   .     A
C435   C13     1.406   1_556 S
C435   C18     1.406   1_556 S
C436   H454    1.078   .     S
C437   C446    1.442   .     S
C437   N507    1.158   .     S
C438   N461    1.158   .     T
C438   N506    1.384   .     S
C439   N462    1.156   .     T
C439   C445    1.445   .     S
C440   C444    1.422   .     A
C441   C445    1.391   .     A
C442   C443    1.396   .     A
C442   C8      1.402   1_556 S
C442   C18     1.401   1_556 S
C443   C444    1.400   .     A
C443   H451    1.084   .     S
C444   H456    1.080   .     S
Cu447  Cu448   2.707   .     S
Cu447  O465    1.969   .     S
Cu447  O469    1.968   .     S
Cu447  N459    2.034   .     S
Cu447  O467    1.947   .     S
Cu447  O463    1.952   .     S
Cu448  O470    1.969   .     S
Cu448  O466    1.968   .     S
Cu448  N458    2.034   .     S
Cu448  O468    1.952   .     S
Cu448  O464    1.947   .     S
H449   C569    1.088   .     S
H450   N552    1.029   1_455 S
H457   C708    1.087   1_545 S
N458   H497    1.029   .     S
N458   N506    1.305   .     S
N459   N552    1.305   1_455 S
N459   C532    1.384   1_455 S
N460   C531    1.158   1_455 S
C471   O511    1.291   .     A
C471   O510    1.297   .     A
C471   C473    1.426   .     S
C472   C474    1.458   .     S
C472   C487    1.425   .     A
C472   C480    1.404   .     A
C473   C616    1.327   .     S
C473   H645    1.087   .     S
C474   O512    1.310   .     A
C474   O513    1.294   .     A
C475   C476    1.426   .     S
C475   C755    1.327   1_545 S
C475   H778    1.088   1_545 S
C476   O515    1.298   .     A
C476   O514    1.291   .     A
C477   O516    1.306   .     A
C477   C479    1.481   .     S
C477   O517    1.306   .     A
C478   H499    1.080   .     S
C478   C493    1.406   .     A
C479   C492    1.407   .     A
C479   C493    1.415   .     A
C480   C481    1.387   .     A
C480   H500    1.084   .     S
C481   H502    1.083   .     S
C481   C60     1.389   1_556 S
C482   C487    1.408   .     A
C482   C60     1.406   1_556 S
C482   C65     1.406   1_556 S
C483   H501    1.078   .     S
C484   C493    1.442   .     S
C484   N554    1.158   .     S
C485   N508    1.158   .     T
C485   N553    1.384   .     S
C486   N509    1.156   .     T
C486   C492    1.445   .     S
C487   C491    1.422   .     A
C488   C492    1.391   .     A
C489   C490    1.396   .     A
C489   C55     1.402   1_556 S
C489   C65     1.401   1_556 S
C490   C491    1.400   .     A
C490   H498    1.084   .     S
C491   H503    1.080   .     S
Cu494  Cu495   2.707   .     S
Cu494  O512    1.969   .     S
Cu494  O516    1.968   .     S
Cu494  N506    2.034   .     S
Cu494  O514    1.947   .     S
Cu494  O510    1.952   .     S
Cu495  O517    1.969   .     S
Cu495  O513    1.968   .     S
Cu495  N505    2.034   .     S
Cu495  O515    1.952   .     S
Cu495  O511    1.947   .     S
H496   C616    1.088   .     S
H504   C755    1.087   1_545 S
N505   H544    1.029   .     S
N505   N553    1.305   .     S
C518   O558    1.291   .     A
C518   O557    1.297   .     A
C518   C520    1.426   .     S
C519   C521    1.458   .     S
C519   C534    1.425   .     A
C519   C527    1.404   .     A
C520   C663    1.327   .     S
C520   H692    1.087   .     S
C521   O559    1.310   .     A
C521   O560    1.294   .     A
C522   C523    1.426   .     S
C522   C802    1.327   1_545 S
C522   H825    1.088   1_545 S
C523   O562    1.298   .     A
C523   O561    1.291   .     A
C524   O563    1.306   .     A
C524   C526    1.481   .     S
C524   O564    1.306   .     A
C525   H546    1.080   .     S
C525   C540    1.406   .     A
C526   C539    1.407   .     A
C526   C540    1.415   .     A
C527   C528    1.387   .     A
C527   H547    1.084   .     S
C528   H549    1.083   .     S
C528   C107    1.389   1_556 S
C529   C534    1.408   .     A
C529   C107    1.406   1_556 S
C529   C112    1.406   1_556 S
C530   H548    1.078   .     S
C531   C540    1.442   .     S
C531   N460    1.158   1_655 S
C532   N555    1.158   .     T
C532   N459    1.384   1_655 S
C533   N556    1.156   .     T
C533   C539    1.445   .     S
C534   C538    1.422   .     A
C535   C539    1.391   .     A
C536   C537    1.396   .     A
C536   C102    1.402   1_556 S
C536   C112    1.401   1_556 S
C537   C538    1.400   .     A
C537   H545    1.084   .     S
C538   H550    1.080   .     S
Cu541  Cu542   2.707   .     S
Cu541  O559    1.969   .     S
Cu541  O563    1.968   .     S
Cu541  N553    2.034   .     S
Cu541  O561    1.947   .     S
Cu541  O557    1.952   .     S
Cu542  O564    1.969   .     S
Cu542  O560    1.968   .     S
Cu542  N552    2.034   .     S
Cu542  O562    1.952   .     S
Cu542  O558    1.947   .     S
H543   C663    1.088   .     S
H551   C802    1.087   1_545 S
N552   H450    1.029   1_655 S
N552   N459    1.305   1_655 S
C565   O605    1.291   .     A
C565   O604    1.297   .     A
C565   C567    1.426   .     S
C566   C568    1.458   .     S
C566   C581    1.425   .     A
C566   C574    1.404   .     A
C567   C710    1.327   .     S
C567   H739    1.087   .     S
C568   O606    1.310   .     A
C568   O607    1.294   .     A
C569   C570    1.426   .     S
C570   O609    1.298   .     A
C570   O608    1.291   .     A
C571   O610    1.306   .     A
C571   C573    1.481   .     S
C571   O611    1.306   .     A
C572   H593    1.080   .     S
C572   C587    1.406   .     A
C573   C586    1.407   .     A
C573   C587    1.415   .     A
C574   C575    1.387   .     A
C574   H594    1.084   .     S
C575   H596    1.083   .     S
C575   C154    1.389   1_556 S
C576   C581    1.408   .     A
C576   C154    1.406   1_556 S
C576   C159    1.406   1_556 S
C577   H595    1.078   .     S
C578   C587    1.442   .     S
C578   N648    1.158   .     S
C579   N602    1.158   .     T
C579   N647    1.384   .     S
C580   N603    1.156   .     T
C580   C586    1.445   .     S
C581   C585    1.422   .     A
C582   C586    1.391   .     A
C583   C584    1.396   .     A
C583   C149    1.402   1_556 S
C583   C159    1.401   1_556 S
C584   C585    1.400   .     A
C584   H592    1.084   .     S
C585   H597    1.080   .     S
Cu588  Cu589   2.707   .     S
Cu588  O606    1.969   .     S
Cu588  O610    1.968   .     S
Cu588  N600    2.034   .     S
Cu588  O608    1.947   .     S
Cu588  O604    1.952   .     S
Cu589  O611    1.969   .     S
Cu589  O607    1.968   .     S
Cu589  N599    2.034   .     S
Cu589  O609    1.952   .     S
Cu589  O605    1.947   .     S
H590   C710    1.088   .     S
H591   N693    1.029   1_455 S
N599   H638    1.029   .     S
N599   N647    1.305   .     S
N600   N693    1.305   1_455 S
N600   C673    1.384   1_455 S
N601   C672    1.158   1_455 S
C612   O652    1.291   .     A
C612   O651    1.297   .     A
C612   C614    1.426   .     S
C613   C615    1.458   .     S
C613   C628    1.425   .     A
C613   C621    1.404   .     A
C614   C757    1.327   .     S
C614   H786    1.087   .     S
C615   O653    1.310   .     A
C615   O654    1.294   .     A
C616   C617    1.426   .     S
C617   O656    1.298   .     A
C617   O655    1.291   .     A
C618   O657    1.306   .     A
C618   C620    1.481   .     S
C618   O658    1.306   .     A
C619   H640    1.080   .     S
C619   C634    1.406   .     A
C620   C633    1.407   .     A
C620   C634    1.415   .     A
C621   C622    1.387   .     A
C621   H641    1.084   .     S
C622   H643    1.083   .     S
C622   C201    1.389   1_556 S
C623   C628    1.408   .     A
C623   C201    1.406   1_556 S
C623   C206    1.406   1_556 S
C624   H642    1.078   .     S
C625   C634    1.442   .     S
C625   N695    1.158   .     S
C626   N649    1.158   .     T
C626   N694    1.384   .     S
C627   N650    1.156   .     T
C627   C633    1.445   .     S
C628   C632    1.422   .     A
C629   C633    1.391   .     A
C630   C631    1.396   .     A
C630   C196    1.402   1_556 S
C630   C206    1.401   1_556 S
C631   C632    1.400   .     A
C631   H639    1.084   .     S
C632   H644    1.080   .     S
Cu635  Cu636   2.707   .     S
Cu635  O653    1.969   .     S
Cu635  O657    1.968   .     S
Cu635  N647    2.034   .     S
Cu635  O655    1.947   .     S
Cu635  O651    1.952   .     S
Cu636  O658    1.969   .     S
Cu636  O654    1.968   .     S
Cu636  N646    2.034   .     S
Cu636  O656    1.952   .     S
Cu636  O652    1.947   .     S
H637   C757    1.088   .     S
N646   H685    1.029   .     S
N646   N694    1.305   .     S
C659   O699    1.291   .     A
C659   O698    1.297   .     A
C659   C661    1.426   .     S
C660   C662    1.458   .     S
C660   C675    1.425   .     A
C660   C668    1.404   .     A
C661   C804    1.327   .     S
C661   H833    1.087   .     S
C662   O700    1.310   .     A
C662   O701    1.294   .     A
C663   C664    1.426   .     S
C664   O703    1.298   .     A
C664   O702    1.291   .     A
C665   O704    1.306   .     A
C665   C667    1.481   .     S
C665   O705    1.306   .     A
C666   H687    1.080   .     S
C666   C681    1.406   .     A
C667   C680    1.407   .     A
C667   C681    1.415   .     A
C668   C669    1.387   .     A
C668   H688    1.084   .     S
C669   H690    1.083   .     S
C669   C248    1.389   1_556 S
C670   C675    1.408   .     A
C670   C248    1.406   1_556 S
C670   C253    1.406   1_556 S
C671   H689    1.078   .     S
C672   C681    1.442   .     S
C672   N601    1.158   1_655 S
C673   N696    1.158   .     T
C673   N600    1.384   1_655 S
C674   N697    1.156   .     T
C674   C680    1.445   .     S
C675   C679    1.422   .     A
C676   C680    1.391   .     A
C677   C678    1.396   .     A
C677   C243    1.402   1_556 S
C677   C253    1.401   1_556 S
C678   C679    1.400   .     A
C678   H686    1.084   .     S
C679   H691    1.080   .     S
Cu682  Cu683   2.707   .     S
Cu682  O700    1.969   .     S
Cu682  O704    1.968   .     S
Cu682  N694    2.034   .     S
Cu682  O702    1.947   .     S
Cu682  O698    1.952   .     S
Cu683  O705    1.969   .     S
Cu683  O701    1.968   .     S
Cu683  N693    2.034   .     S
Cu683  O703    1.952   .     S
Cu683  O699    1.947   .     S
H684   C804    1.088   .     S
N693   H591    1.029   1_655 S
N693   N600    1.305   1_655 S
C706   O746    1.291   .     A
C706   O745    1.297   .     A
C706   C708    1.426   .     S
C707   C709    1.458   .     S
C707   C722    1.425   .     A
C707   C715    1.404   .     A
C708   C428    1.327   1_565 S
C708   H457    1.087   1_565 S
C709   O747    1.310   .     A
C709   O748    1.294   .     A
C710   C711    1.426   .     S
C711   O750    1.298   .     A
C711   O749    1.291   .     A
C712   O751    1.306   .     A
C712   C714    1.481   .     S
C712   O752    1.306   .     A
C713   H734    1.080   .     S
C713   C728    1.406   .     A
C714   C727    1.407   .     A
C714   C728    1.415   .     A
C715   C716    1.387   .     A
C715   H735    1.084   .     S
C716   H737    1.083   .     S
C716   C295    1.389   1_556 S
C717   C722    1.408   .     A
C717   C295    1.406   1_556 S
C717   C300    1.406   1_556 S
C718   H736    1.078   .     S
C719   C728    1.442   .     S
C719   N789    1.158   .     S
C720   N743    1.158   .     T
C720   N788    1.384   .     S
C721   N744    1.156   .     T
C721   C727    1.445   .     S
C722   C726    1.422   .     A
C723   C727    1.391   .     A
C724   C725    1.396   .     A
C724   C290    1.402   1_556 S
C724   C300    1.401   1_556 S
C725   C726    1.400   .     A
C725   H733    1.084   .     S
C726   H738    1.080   .     S
Cu729  Cu730   2.707   .     S
Cu729  O747    1.969   .     S
Cu729  O751    1.968   .     S
Cu729  N741    2.034   .     S
Cu729  O749    1.947   .     S
Cu729  O745    1.952   .     S
Cu730  O752    1.969   .     S
Cu730  O748    1.968   .     S
Cu730  N740    2.034   .     S
Cu730  O750    1.952   .     S
Cu730  O746    1.947   .     S
H731   C428    1.088   1_565 S
H732   N834    1.029   1_455 S
N740   H779    1.029   .     S
N740   N788    1.305   .     S
N741   N834    1.305   1_455 S
N741   C814    1.384   1_455 S
N742   C813    1.158   1_455 S
C753   O793    1.291   .     A
C753   O792    1.297   .     A
C753   C755    1.426   .     S
C754   C756    1.458   .     S
C754   C769    1.425   .     A
C754   C762    1.404   .     A
C755   C475    1.327   1_565 S
C755   H504    1.087   1_565 S
C756   O794    1.310   .     A
C756   O795    1.294   .     A
C757   C758    1.426   .     S
C758   O797    1.298   .     A
C758   O796    1.291   .     A
C759   O798    1.306   .     A
C759   C761    1.481   .     S
C759   O799    1.306   .     A
C760   H781    1.080   .     S
C760   C775    1.406   .     A
C761   C774    1.407   .     A
C761   C775    1.415   .     A
C762   C763    1.387   .     A
C762   H782    1.084   .     S
C763   H784    1.083   .     S
C763   C342    1.389   1_556 S
C764   C769    1.408   .     A
C764   C342    1.406   1_556 S
C764   C347    1.406   1_556 S
C765   H783    1.078   .     S
C766   C775    1.442   .     S
C766   N836    1.158   .     S
C767   N790    1.158   .     T
C767   N835    1.384   .     S
C768   N791    1.156   .     T
C768   C774    1.445   .     S
C769   C773    1.422   .     A
C770   C774    1.391   .     A
C771   C772    1.396   .     A
C771   C337    1.402   1_556 S
C771   C347    1.401   1_556 S
C772   C773    1.400   .     A
C772   H780    1.084   .     S
C773   H785    1.080   .     S
Cu776  Cu777   2.707   .     S
Cu776  O794    1.969   .     S
Cu776  O798    1.968   .     S
Cu776  N788    2.034   .     S
Cu776  O796    1.947   .     S
Cu776  O792    1.952   .     S
Cu777  O799    1.969   .     S
Cu777  O795    1.968   .     S
Cu777  N787    2.034   .     S
Cu777  O797    1.952   .     S
Cu777  O793    1.947   .     S
H778   C475    1.088   1_565 S
N787   H826    1.029   .     S
N787   N835    1.305   .     S
C800   O840    1.291   .     A
C800   O839    1.297   .     A
C800   C802    1.426   .     S
C801   C803    1.458   .     S
C801   C816    1.425   .     A
C801   C809    1.404   .     A
C802   C522    1.327   1_565 S
C802   H551    1.087   1_565 S
C803   O841    1.310   .     A
C803   O842    1.294   .     A
C804   C805    1.426   .     S
C805   O844    1.298   .     A
C805   O843    1.291   .     A
C806   O845    1.306   .     A
C806   C808    1.481   .     S
C806   O846    1.306   .     A
C807   H828    1.080   .     S
C807   C822    1.406   .     A
C808   C821    1.407   .     A
C808   C822    1.415   .     A
C809   C810    1.387   .     A
C809   H829    1.084   .     S
C810   H831    1.083   .     S
C810   C389    1.389   1_556 S
C811   C816    1.408   .     A
C811   C389    1.406   1_556 S
C811   C394    1.406   1_556 S
C812   H830    1.078   .     S
C813   C822    1.442   .     S
C813   N742    1.158   1_655 S
C814   N837    1.158   .     T
C814   N741    1.384   1_655 S
C815   N838    1.156   .     T
C815   C821    1.445   .     S
C816   C820    1.422   .     A
C817   C821    1.391   .     A
C818   C819    1.396   .     A
C818   C384    1.402   1_556 S
C818   C394    1.401   1_556 S
C819   C820    1.400   .     A
C819   H827    1.084   .     S
C820   H832    1.080   .     S
Cu823  Cu824   2.707   .     S
Cu823  O841    1.969   .     S
Cu823  O845    1.968   .     S
Cu823  N835    2.034   .     S
Cu823  O843    1.947   .     S
Cu823  O839    1.952   .     S
Cu824  O846    1.969   .     S
Cu824  O842    1.968   .     S
Cu824  N834    2.034   .     S
Cu824  O844    1.952   .     S
Cu824  O840    1.947   .     S
H825   C522    1.088   1_565 S
N834   H732    1.029   1_655 S
N834   N741    1.305   1_655 S
