data_str_m2_o10_o16_pcu_sym.48
_audit_creation_date              2020-01-03
_audit_creation_method            'Materials Studio'
_symmetry_space_group_name_H-M    'P1'
_symmetry_Int_Tables_number       1
_symmetry_cell_setting            triclinic
loop_
_symmetry_equiv_pos_as_xyz
  x,y,z
_cell_length_a                    22.2966
_cell_length_b                    26.0761
_cell_length_c                    26.7634
_cell_angle_alpha                 94.0036
_cell_angle_beta                  77.3188
_cell_angle_gamma                 103.1394
loop_
_atom_site_label
_atom_site_type_symbol
_atom_site_fract_x
_atom_site_fract_y
_atom_site_fract_z
_atom_site_U_iso_or_equiv
_atom_site_adp_type
_atom_site_occupancy
C1     C     0.18177   0.26673   0.25151   0.00000  Uiso   1.00
C2     C     0.11208   0.16483   0.40351   0.00000  Uiso   1.00
C3     C     0.19029   0.32269   0.25224   0.00000  Uiso   1.00
C4     C     0.13308   0.16578   0.34728   0.00000  Uiso   1.00
C5     C     0.14307   0.01064   0.24769   0.00000  Uiso   1.00
C6     C     0.15157   0.06660   0.24847   0.00000  Uiso   1.00
C7     C     0.20055   0.17000   0.15292   0.00000  Uiso   1.00
C8     C     0.28795   0.23438   0.02963   0.00000  Uiso   1.00
C9     C     0.22111   0.17895   0.09775   0.00000  Uiso   1.00
C10    C     0.05033   0.13869   0.42471   0.00000  Uiso   1.00
C11    C     0.03094   0.13069   0.47716   0.00000  Uiso   1.00
C12    C     0.13865   0.16939   0.48792   0.00000  Uiso   1.00
C13    C     0.07498   0.14605   0.00863   0.00000  Uiso   1.00
C14    C     0.13802   0.10619   0.07800   0.00000  Uiso   1.00
C15    C     0.15463   0.18496   0.43619   0.00000  Uiso   1.00
C16    C     0.18603   0.18104   0.01782   0.00000  Uiso   1.00
C17    C     0.24307   0.21786   0.49915   0.00000  Uiso   1.00
C18    C     0.25461   0.23833   0.45039   0.00000  Uiso   1.00
C19    C     0.21161   0.22162   0.41907   0.00000  Uiso   1.00
C20    C     0.17973   0.15713   0.06518   0.00000  Uiso   1.00
C21    C     0.27595   0.21649   0.07933   0.00000  Uiso   1.00
Cu22   Cu    0.10710   0.16105   0.24435   0.00000  Uiso   1.00
Cu23   Cu    0.22623   0.17228   0.25564   0.00000  Uiso   1.00
H24    H     0.30850   0.23318   0.10387   0.00000  Uiso   1.00
H25    H     0.23580   0.01315   0.25655   0.00000  Uiso   1.00
H26    H     0.29630   0.10259   0.03383   0.00000  Uiso   1.00
H27    H     0.09756   0.32018   0.24339   0.00000  Uiso   1.00
H28    H     0.00360   0.20590   0.28970   0.00000  Uiso   1.00
H29    H     0.32972   0.12742   0.21031   0.00000  Uiso   1.00
H30    H     0.29752   0.26704   0.43610   0.00000  Uiso   1.00
H31    H     0.33111   0.26298   0.01580   0.00000  Uiso   1.00
H32    H     0.01692   0.12384   0.40040   0.00000  Uiso   1.00
H33    H     0.05806   0.14175   0.04944   0.00000  Uiso   1.00
H34    H     0.22239   0.23991   0.38221   0.00000  Uiso   1.00
N35    N     0.31574   0.18074   0.26416   0.00000  Uiso   1.00
N36    N     0.01759   0.15259   0.23584   0.00000  Uiso   1.00
N37    N     0.10503   0.06550   0.08831   0.00000  Uiso   1.00
O38    O     0.12797   0.23807   0.24633   0.00000  Uiso   1.00
O39    O     0.22858   0.24755   0.25586   0.00000  Uiso   1.00
O40    O     0.09181   0.15960   0.31839   0.00000  Uiso   1.00
O41    O     0.19242   0.16908   0.32793   0.00000  Uiso   1.00
O42    O     0.10476   0.08578   0.24413   0.00000  Uiso   1.00
O43    O     0.20536   0.09526   0.25367   0.00000  Uiso   1.00
O44    O     0.14092   0.16425   0.17207   0.00000  Uiso   1.00
O45    O     0.24152   0.17373   0.18160   0.00000  Uiso   1.00
O46    O     0.30241   0.10646   0.49634   0.00000  Uiso   1.00
C47    C     0.51511   0.26673   0.25151   0.00000  Uiso   1.00
C48    C     0.44541   0.16483   0.40351   0.00000  Uiso   1.00
C49    C     0.52362   0.32269   0.25224   0.00000  Uiso   1.00
C50    C     0.46642   0.16578   0.34728   0.00000  Uiso   1.00
C51    C     0.47640   0.01064   0.24769   0.00000  Uiso   1.00
C52    C     0.48490   0.06660   0.24847   0.00000  Uiso   1.00
C53    C     0.53388   0.17000   0.15292   0.00000  Uiso   1.00
C54    C     0.62129   0.23438   0.02963   0.00000  Uiso   1.00
C55    C     0.55445   0.17895   0.09775   0.00000  Uiso   1.00
C56    C     0.38366   0.13869   0.42471   0.00000  Uiso   1.00
C57    C     0.36427   0.13069   0.47716   0.00000  Uiso   1.00
C58    C     0.47199   0.16939   0.48792   0.00000  Uiso   1.00
C59    C     0.40832   0.14605   0.00863   0.00000  Uiso   1.00
C60    C     0.47135   0.10619   0.07800   0.00000  Uiso   1.00
C61    C     0.48796   0.18496   0.43619   0.00000  Uiso   1.00
C62    C     0.51936   0.18104   0.01782   0.00000  Uiso   1.00
C63    C     0.57641   0.21786   0.49915   0.00000  Uiso   1.00
C64    C     0.58794   0.23833   0.45039   0.00000  Uiso   1.00
C65    C     0.54494   0.22162   0.41907   0.00000  Uiso   1.00
C66    C     0.51306   0.15713   0.06518   0.00000  Uiso   1.00
C67    C     0.60928   0.21649   0.07933   0.00000  Uiso   1.00
Cu68   Cu    0.44043   0.16105   0.24435   0.00000  Uiso   1.00
Cu69   Cu    0.55957   0.17228   0.25564   0.00000  Uiso   1.00
H70    H     0.64184   0.23318   0.10387   0.00000  Uiso   1.00
H71    H     0.56914   0.01315   0.25655   0.00000  Uiso   1.00
H72    H     0.62963   0.10259   0.03383   0.00000  Uiso   1.00
H73    H     0.43089   0.32018   0.24339   0.00000  Uiso   1.00
H74    H     0.33693   0.20590   0.28970   0.00000  Uiso   1.00
H75    H     0.66305   0.12742   0.21031   0.00000  Uiso   1.00
H76    H     0.63085   0.26704   0.43610   0.00000  Uiso   1.00
H77    H     0.66444   0.26298   0.01580   0.00000  Uiso   1.00
H78    H     0.35025   0.12384   0.40040   0.00000  Uiso   1.00
H79    H     0.39139   0.14175   0.04944   0.00000  Uiso   1.00
H80    H     0.55572   0.23991   0.38221   0.00000  Uiso   1.00
N81    N     0.64908   0.18074   0.26416   0.00000  Uiso   1.00
N82    N     0.35092   0.15259   0.23584   0.00000  Uiso   1.00
N83    N     0.43836   0.06550   0.08831   0.00000  Uiso   1.00
O84    O     0.46131   0.23807   0.24633   0.00000  Uiso   1.00
O85    O     0.56191   0.24755   0.25586   0.00000  Uiso   1.00
O86    O     0.42515   0.15960   0.31839   0.00000  Uiso   1.00
O87    O     0.52575   0.16908   0.32793   0.00000  Uiso   1.00
O88    O     0.43809   0.08578   0.24413   0.00000  Uiso   1.00
O89    O     0.53869   0.09526   0.25367   0.00000  Uiso   1.00
O90    O     0.47425   0.16425   0.17207   0.00000  Uiso   1.00
O91    O     0.57485   0.17373   0.18160   0.00000  Uiso   1.00
O92    O     0.63575   0.10646   0.49634   0.00000  Uiso   1.00
C93    C     0.84844   0.26673   0.25151   0.00000  Uiso   1.00
C94    C     0.77875   0.16483   0.40351   0.00000  Uiso   1.00
C95    C     0.85696   0.32269   0.25224   0.00000  Uiso   1.00
C96    C     0.79975   0.16578   0.34728   0.00000  Uiso   1.00
C97    C     0.80973   0.01064   0.24769   0.00000  Uiso   1.00
C98    C     0.81824   0.06660   0.24847   0.00000  Uiso   1.00
C99    C     0.86721   0.17000   0.15292   0.00000  Uiso   1.00
C100   C     0.95462   0.23438   0.02963   0.00000  Uiso   1.00
C101   C     0.88778   0.17895   0.09775   0.00000  Uiso   1.00
C102   C     0.71699   0.13869   0.42471   0.00000  Uiso   1.00
C103   C     0.69760   0.13069   0.47716   0.00000  Uiso   1.00
C104   C     0.80532   0.16939   0.48792   0.00000  Uiso   1.00
C105   C     0.74165   0.14605   0.00863   0.00000  Uiso   1.00
C106   C     0.80469   0.10619   0.07800   0.00000  Uiso   1.00
C107   C     0.82129   0.18496   0.43619   0.00000  Uiso   1.00
C108   C     0.85270   0.18104   0.01782   0.00000  Uiso   1.00
C109   C     0.90974   0.21786   0.49915   0.00000  Uiso   1.00
C110   C     0.92128   0.23833   0.45039   0.00000  Uiso   1.00
C111   C     0.87828   0.22162   0.41907   0.00000  Uiso   1.00
C112   C     0.84640   0.15713   0.06518   0.00000  Uiso   1.00
C113   C     0.94261   0.21649   0.07933   0.00000  Uiso   1.00
Cu114  Cu    0.77377   0.16105   0.24435   0.00000  Uiso   1.00
Cu115  Cu    0.89290   0.17228   0.25564   0.00000  Uiso   1.00
H116   H     0.97517   0.23318   0.10387   0.00000  Uiso   1.00
H117   H     0.90247   0.01315   0.25655   0.00000  Uiso   1.00
H118   H     0.96296   0.10259   0.03383   0.00000  Uiso   1.00
H119   H     0.76422   0.32018   0.24339   0.00000  Uiso   1.00
H120   H     0.67027   0.20590   0.28970   0.00000  Uiso   1.00
H121   H     0.99639   0.12742   0.21031   0.00000  Uiso   1.00
H122   H     0.96418   0.26704   0.43610   0.00000  Uiso   1.00
H123   H     0.99777   0.26298   0.01580   0.00000  Uiso   1.00
H124   H     0.68358   0.12384   0.40040   0.00000  Uiso   1.00
H125   H     0.72472   0.14175   0.04944   0.00000  Uiso   1.00
H126   H     0.88906   0.23991   0.38221   0.00000  Uiso   1.00
N127   N     0.98241   0.18074   0.26416   0.00000  Uiso   1.00
N128   N     0.68426   0.15259   0.23584   0.00000  Uiso   1.00
N129   N     0.77169   0.06550   0.08831   0.00000  Uiso   1.00
O130   O     0.79464   0.23807   0.24633   0.00000  Uiso   1.00
O131   O     0.89524   0.24755   0.25586   0.00000  Uiso   1.00
O132   O     0.75848   0.15960   0.31839   0.00000  Uiso   1.00
O133   O     0.85908   0.16908   0.32793   0.00000  Uiso   1.00
O134   O     0.77142   0.08578   0.24413   0.00000  Uiso   1.00
O135   O     0.87203   0.09526   0.25367   0.00000  Uiso   1.00
O136   O     0.80758   0.16425   0.17207   0.00000  Uiso   1.00
O137   O     0.90819   0.17373   0.18160   0.00000  Uiso   1.00
O138   O     0.96908   0.10646   0.49634   0.00000  Uiso   1.00
C139   C     0.18177   0.60006   0.25151   0.00000  Uiso   1.00
C140   C     0.11208   0.49816   0.40351   0.00000  Uiso   1.00
C141   C     0.19029   0.65602   0.25224   0.00000  Uiso   1.00
C142   C     0.13308   0.49911   0.34728   0.00000  Uiso   1.00
C143   C     0.14307   0.34398   0.24769   0.00000  Uiso   1.00
C144   C     0.15157   0.39994   0.24847   0.00000  Uiso   1.00
C145   C     0.20055   0.50333   0.15292   0.00000  Uiso   1.00
C146   C     0.28795   0.56771   0.02963   0.00000  Uiso   1.00
C147   C     0.22111   0.51228   0.09775   0.00000  Uiso   1.00
C148   C     0.05033   0.47202   0.42471   0.00000  Uiso   1.00
C149   C     0.03094   0.46402   0.47716   0.00000  Uiso   1.00
C150   C     0.13865   0.50272   0.48792   0.00000  Uiso   1.00
C151   C     0.07498   0.47939   0.00863   0.00000  Uiso   1.00
C152   C     0.13802   0.43953   0.07800   0.00000  Uiso   1.00
C153   C     0.15463   0.51830   0.43619   0.00000  Uiso   1.00
C154   C     0.18603   0.51437   0.01782   0.00000  Uiso   1.00
C155   C     0.24307   0.55120   0.49915   0.00000  Uiso   1.00
C156   C     0.25461   0.57167   0.45039   0.00000  Uiso   1.00
C157   C     0.21161   0.55496   0.41907   0.00000  Uiso   1.00
C158   C     0.17973   0.49046   0.06518   0.00000  Uiso   1.00
C159   C     0.27595   0.54982   0.07933   0.00000  Uiso   1.00
Cu160  Cu    0.10710   0.49439   0.24435   0.00000  Uiso   1.00
Cu161  Cu    0.22623   0.50561   0.25564   0.00000  Uiso   1.00
H162   H     0.30850   0.56651   0.10387   0.00000  Uiso   1.00
H163   H     0.23580   0.34649   0.25655   0.00000  Uiso   1.00
H164   H     0.29630   0.43592   0.03383   0.00000  Uiso   1.00
H165   H     0.09756   0.65351   0.24339   0.00000  Uiso   1.00
H166   H     0.00360   0.53923   0.28970   0.00000  Uiso   1.00
H167   H     0.32972   0.46075   0.21031   0.00000  Uiso   1.00
H168   H     0.29752   0.60037   0.43610   0.00000  Uiso   1.00
H169   H     0.33111   0.59631   0.01580   0.00000  Uiso   1.00
H170   H     0.01692   0.45718   0.40040   0.00000  Uiso   1.00
H171   H     0.05806   0.47508   0.04944   0.00000  Uiso   1.00
H172   H     0.22239   0.57325   0.38221   0.00000  Uiso   1.00
N173   N     0.31574   0.51407   0.26416   0.00000  Uiso   1.00
N174   N     0.01759   0.48593   0.23584   0.00000  Uiso   1.00
N175   N     0.10503   0.39883   0.08831   0.00000  Uiso   1.00
O176   O     0.12797   0.57141   0.24633   0.00000  Uiso   1.00
O177   O     0.22858   0.58089   0.25586   0.00000  Uiso   1.00
O178   O     0.09181   0.49293   0.31839   0.00000  Uiso   1.00
O179   O     0.19242   0.50241   0.32793   0.00000  Uiso   1.00
O180   O     0.10476   0.41911   0.24413   0.00000  Uiso   1.00
O181   O     0.20536   0.42859   0.25367   0.00000  Uiso   1.00
O182   O     0.14092   0.49759   0.17207   0.00000  Uiso   1.00
O183   O     0.24152   0.50707   0.18160   0.00000  Uiso   1.00
O184   O     0.30241   0.43979   0.49634   0.00000  Uiso   1.00
C185   C     0.51511   0.60006   0.25151   0.00000  Uiso   1.00
C186   C     0.44541   0.49816   0.40351   0.00000  Uiso   1.00
C187   C     0.52362   0.65602   0.25224   0.00000  Uiso   1.00
C188   C     0.46642   0.49911   0.34728   0.00000  Uiso   1.00
C189   C     0.47640   0.34398   0.24769   0.00000  Uiso   1.00
C190   C     0.48490   0.39994   0.24847   0.00000  Uiso   1.00
C191   C     0.53388   0.50333   0.15292   0.00000  Uiso   1.00
C192   C     0.62129   0.56771   0.02963   0.00000  Uiso   1.00
C193   C     0.55445   0.51228   0.09775   0.00000  Uiso   1.00
C194   C     0.38366   0.47202   0.42471   0.00000  Uiso   1.00
C195   C     0.36427   0.46402   0.47716   0.00000  Uiso   1.00
C196   C     0.47199   0.50272   0.48792   0.00000  Uiso   1.00
C197   C     0.40832   0.47939   0.00863   0.00000  Uiso   1.00
C198   C     0.47135   0.43953   0.07800   0.00000  Uiso   1.00
C199   C     0.48796   0.51830   0.43619   0.00000  Uiso   1.00
C200   C     0.51936   0.51437   0.01782   0.00000  Uiso   1.00
C201   C     0.57641   0.55120   0.49915   0.00000  Uiso   1.00
C202   C     0.58794   0.57167   0.45039   0.00000  Uiso   1.00
C203   C     0.54494   0.55496   0.41907   0.00000  Uiso   1.00
C204   C     0.51306   0.49046   0.06518   0.00000  Uiso   1.00
C205   C     0.60928   0.54982   0.07933   0.00000  Uiso   1.00
Cu206  Cu    0.44043   0.49439   0.24435   0.00000  Uiso   1.00
Cu207  Cu    0.55957   0.50561   0.25564   0.00000  Uiso   1.00
H208   H     0.64184   0.56651   0.10387   0.00000  Uiso   1.00
H209   H     0.56914   0.34649   0.25655   0.00000  Uiso   1.00
H210   H     0.62963   0.43592   0.03383   0.00000  Uiso   1.00
H211   H     0.43089   0.65351   0.24339   0.00000  Uiso   1.00
H212   H     0.33693   0.53923   0.28970   0.00000  Uiso   1.00
H213   H     0.66305   0.46075   0.21031   0.00000  Uiso   1.00
H214   H     0.63085   0.60037   0.43610   0.00000  Uiso   1.00
H215   H     0.66444   0.59631   0.01580   0.00000  Uiso   1.00
H216   H     0.35025   0.45718   0.40040   0.00000  Uiso   1.00
H217   H     0.39139   0.47508   0.04944   0.00000  Uiso   1.00
H218   H     0.55572   0.57325   0.38221   0.00000  Uiso   1.00
N219   N     0.64908   0.51407   0.26416   0.00000  Uiso   1.00
N220   N     0.35092   0.48593   0.23584   0.00000  Uiso   1.00
N221   N     0.43836   0.39883   0.08831   0.00000  Uiso   1.00
O222   O     0.46131   0.57141   0.24633   0.00000  Uiso   1.00
O223   O     0.56191   0.58089   0.25586   0.00000  Uiso   1.00
O224   O     0.42515   0.49293   0.31839   0.00000  Uiso   1.00
O225   O     0.52575   0.50241   0.32793   0.00000  Uiso   1.00
O226   O     0.43809   0.41911   0.24413   0.00000  Uiso   1.00
O227   O     0.53869   0.42859   0.25367   0.00000  Uiso   1.00
O228   O     0.47425   0.49759   0.17207   0.00000  Uiso   1.00
O229   O     0.57485   0.50707   0.18160   0.00000  Uiso   1.00
O230   O     0.63575   0.43979   0.49634   0.00000  Uiso   1.00
C231   C     0.84844   0.60006   0.25151   0.00000  Uiso   1.00
C232   C     0.77875   0.49816   0.40351   0.00000  Uiso   1.00
C233   C     0.85696   0.65602   0.25224   0.00000  Uiso   1.00
C234   C     0.79975   0.49911   0.34728   0.00000  Uiso   1.00
C235   C     0.80973   0.34398   0.24769   0.00000  Uiso   1.00
C236   C     0.81824   0.39994   0.24847   0.00000  Uiso   1.00
C237   C     0.86721   0.50333   0.15292   0.00000  Uiso   1.00
C238   C     0.95462   0.56771   0.02963   0.00000  Uiso   1.00
C239   C     0.88778   0.51228   0.09775   0.00000  Uiso   1.00
C240   C     0.71699   0.47202   0.42471   0.00000  Uiso   1.00
C241   C     0.69760   0.46402   0.47716   0.00000  Uiso   1.00
C242   C     0.80532   0.50272   0.48792   0.00000  Uiso   1.00
C243   C     0.74165   0.47939   0.00863   0.00000  Uiso   1.00
C244   C     0.80469   0.43953   0.07800   0.00000  Uiso   1.00
C245   C     0.82129   0.51830   0.43619   0.00000  Uiso   1.00
C246   C     0.85270   0.51437   0.01782   0.00000  Uiso   1.00
C247   C     0.90974   0.55120   0.49915   0.00000  Uiso   1.00
C248   C     0.92128   0.57167   0.45039   0.00000  Uiso   1.00
C249   C     0.87828   0.55496   0.41907   0.00000  Uiso   1.00
C250   C     0.84640   0.49046   0.06518   0.00000  Uiso   1.00
C251   C     0.94261   0.54982   0.07933   0.00000  Uiso   1.00
Cu252  Cu    0.77377   0.49439   0.24435   0.00000  Uiso   1.00
Cu253  Cu    0.89290   0.50561   0.25564   0.00000  Uiso   1.00
H254   H     0.97517   0.56651   0.10387   0.00000  Uiso   1.00
H255   H     0.90247   0.34649   0.25655   0.00000  Uiso   1.00
H256   H     0.96296   0.43592   0.03383   0.00000  Uiso   1.00
H257   H     0.76422   0.65351   0.24339   0.00000  Uiso   1.00
H258   H     0.67027   0.53923   0.28970   0.00000  Uiso   1.00
H259   H     0.99639   0.46075   0.21031   0.00000  Uiso   1.00
H260   H     0.96418   0.60037   0.43610   0.00000  Uiso   1.00
H261   H     0.99777   0.59631   0.01580   0.00000  Uiso   1.00
H262   H     0.68358   0.45718   0.40040   0.00000  Uiso   1.00
H263   H     0.72472   0.47508   0.04944   0.00000  Uiso   1.00
H264   H     0.88906   0.57325   0.38221   0.00000  Uiso   1.00
N265   N     0.98241   0.51407   0.26416   0.00000  Uiso   1.00
N266   N     0.68426   0.48593   0.23584   0.00000  Uiso   1.00
N267   N     0.77169   0.39883   0.08831   0.00000  Uiso   1.00
O268   O     0.79464   0.57141   0.24633   0.00000  Uiso   1.00
O269   O     0.89524   0.58089   0.25586   0.00000  Uiso   1.00
O270   O     0.75848   0.49293   0.31839   0.00000  Uiso   1.00
O271   O     0.85908   0.50241   0.32793   0.00000  Uiso   1.00
O272   O     0.77142   0.41911   0.24413   0.00000  Uiso   1.00
O273   O     0.87203   0.42859   0.25367   0.00000  Uiso   1.00
O274   O     0.80758   0.49759   0.17207   0.00000  Uiso   1.00
O275   O     0.90819   0.50707   0.18160   0.00000  Uiso   1.00
O276   O     0.96908   0.43979   0.49634   0.00000  Uiso   1.00
C277   C     0.18177   0.93340   0.25151   0.00000  Uiso   1.00
C278   C     0.11208   0.83150   0.40351   0.00000  Uiso   1.00
C279   C     0.19029   0.98936   0.25224   0.00000  Uiso   1.00
C280   C     0.13308   0.83244   0.34728   0.00000  Uiso   1.00
C281   C     0.14307   0.67731   0.24769   0.00000  Uiso   1.00
C282   C     0.15157   0.73327   0.24847   0.00000  Uiso   1.00
C283   C     0.20055   0.83667   0.15292   0.00000  Uiso   1.00
C284   C     0.28795   0.90104   0.02963   0.00000  Uiso   1.00
C285   C     0.22111   0.84561   0.09775   0.00000  Uiso   1.00
C286   C     0.05033   0.80536   0.42471   0.00000  Uiso   1.00
C287   C     0.03094   0.79735   0.47716   0.00000  Uiso   1.00
C288   C     0.13865   0.83606   0.48792   0.00000  Uiso   1.00
C289   C     0.07498   0.81272   0.00863   0.00000  Uiso   1.00
C290   C     0.13802   0.77286   0.07800   0.00000  Uiso   1.00
C291   C     0.15463   0.85163   0.43619   0.00000  Uiso   1.00
C292   C     0.18603   0.84771   0.01782   0.00000  Uiso   1.00
C293   C     0.24307   0.88453   0.49915   0.00000  Uiso   1.00
C294   C     0.25461   0.90500   0.45039   0.00000  Uiso   1.00
C295   C     0.21161   0.88829   0.41907   0.00000  Uiso   1.00
C296   C     0.17973   0.82380   0.06518   0.00000  Uiso   1.00
C297   C     0.27595   0.88315   0.07933   0.00000  Uiso   1.00
Cu298  Cu    0.10710   0.82772   0.24435   0.00000  Uiso   1.00
Cu299  Cu    0.22623   0.83895   0.25564   0.00000  Uiso   1.00
H300   H     0.30850   0.89984   0.10387   0.00000  Uiso   1.00
H301   H     0.23580   0.67982   0.25655   0.00000  Uiso   1.00
H302   H     0.29630   0.76926   0.03383   0.00000  Uiso   1.00
H303   H     0.09756   0.98685   0.24339   0.00000  Uiso   1.00
H304   H     0.00360   0.87257   0.28970   0.00000  Uiso   1.00
H305   H     0.32972   0.79409   0.21031   0.00000  Uiso   1.00
H306   H     0.29752   0.93370   0.43610   0.00000  Uiso   1.00
H307   H     0.33111   0.92964   0.01580   0.00000  Uiso   1.00
H308   H     0.01692   0.79051   0.40040   0.00000  Uiso   1.00
H309   H     0.05806   0.80842   0.04944   0.00000  Uiso   1.00
H310   H     0.22239   0.90658   0.38221   0.00000  Uiso   1.00
N311   N     0.31574   0.84741   0.26416   0.00000  Uiso   1.00
N312   N     0.01759   0.81926   0.23584   0.00000  Uiso   1.00
N313   N     0.10503   0.73216   0.08831   0.00000  Uiso   1.00
O314   O     0.12797   0.90474   0.24633   0.00000  Uiso   1.00
O315   O     0.22858   0.91422   0.25586   0.00000  Uiso   1.00
O316   O     0.09181   0.82627   0.31839   0.00000  Uiso   1.00
O317   O     0.19242   0.83575   0.32793   0.00000  Uiso   1.00
O318   O     0.10476   0.75245   0.24413   0.00000  Uiso   1.00
O319   O     0.20536   0.76193   0.25367   0.00000  Uiso   1.00
O320   O     0.14092   0.83092   0.17207   0.00000  Uiso   1.00
O321   O     0.24152   0.84040   0.18160   0.00000  Uiso   1.00
O322   O     0.30241   0.77312   0.49634   0.00000  Uiso   1.00
C323   C     0.51511   0.93340   0.25151   0.00000  Uiso   1.00
C324   C     0.44541   0.83150   0.40351   0.00000  Uiso   1.00
C325   C     0.52362   0.98936   0.25224   0.00000  Uiso   1.00
C326   C     0.46642   0.83244   0.34728   0.00000  Uiso   1.00
C327   C     0.47640   0.67731   0.24769   0.00000  Uiso   1.00
C328   C     0.48490   0.73327   0.24847   0.00000  Uiso   1.00
C329   C     0.53388   0.83667   0.15292   0.00000  Uiso   1.00
C330   C     0.62129   0.90104   0.02963   0.00000  Uiso   1.00
C331   C     0.55445   0.84561   0.09775   0.00000  Uiso   1.00
C332   C     0.38366   0.80536   0.42471   0.00000  Uiso   1.00
C333   C     0.36427   0.79735   0.47716   0.00000  Uiso   1.00
C334   C     0.47199   0.83606   0.48792   0.00000  Uiso   1.00
C335   C     0.40832   0.81272   0.00863   0.00000  Uiso   1.00
C336   C     0.47135   0.77286   0.07800   0.00000  Uiso   1.00
C337   C     0.48796   0.85163   0.43619   0.00000  Uiso   1.00
C338   C     0.51936   0.84771   0.01782   0.00000  Uiso   1.00
C339   C     0.57641   0.88453   0.49915   0.00000  Uiso   1.00
C340   C     0.58794   0.90500   0.45039   0.00000  Uiso   1.00
C341   C     0.54494   0.88829   0.41907   0.00000  Uiso   1.00
C342   C     0.51306   0.82380   0.06518   0.00000  Uiso   1.00
C343   C     0.60928   0.88315   0.07933   0.00000  Uiso   1.00
Cu344  Cu    0.44043   0.82772   0.24435   0.00000  Uiso   1.00
Cu345  Cu    0.55957   0.83895   0.25564   0.00000  Uiso   1.00
H346   H     0.64184   0.89984   0.10387   0.00000  Uiso   1.00
H347   H     0.56914   0.67982   0.25655   0.00000  Uiso   1.00
H348   H     0.62963   0.76926   0.03383   0.00000  Uiso   1.00
H349   H     0.43089   0.98685   0.24339   0.00000  Uiso   1.00
H350   H     0.33693   0.87257   0.28970   0.00000  Uiso   1.00
H351   H     0.66305   0.79409   0.21031   0.00000  Uiso   1.00
H352   H     0.63085   0.93370   0.43610   0.00000  Uiso   1.00
H353   H     0.66444   0.92964   0.01580   0.00000  Uiso   1.00
H354   H     0.35025   0.79051   0.40040   0.00000  Uiso   1.00
H355   H     0.39139   0.80842   0.04944   0.00000  Uiso   1.00
H356   H     0.55572   0.90658   0.38221   0.00000  Uiso   1.00
N357   N     0.64908   0.84741   0.26416   0.00000  Uiso   1.00
N358   N     0.35092   0.81926   0.23584   0.00000  Uiso   1.00
N359   N     0.43836   0.73216   0.08831   0.00000  Uiso   1.00
O360   O     0.46131   0.90474   0.24633   0.00000  Uiso   1.00
O361   O     0.56191   0.91422   0.25586   0.00000  Uiso   1.00
O362   O     0.42515   0.82627   0.31839   0.00000  Uiso   1.00
O363   O     0.52575   0.83575   0.32793   0.00000  Uiso   1.00
O364   O     0.43809   0.75245   0.24413   0.00000  Uiso   1.00
O365   O     0.53869   0.76193   0.25367   0.00000  Uiso   1.00
O366   O     0.47425   0.83092   0.17207   0.00000  Uiso   1.00
O367   O     0.57485   0.84040   0.18160   0.00000  Uiso   1.00
O368   O     0.63575   0.77312   0.49634   0.00000  Uiso   1.00
C369   C     0.84844   0.93340   0.25151   0.00000  Uiso   1.00
C370   C     0.77875   0.83150   0.40351   0.00000  Uiso   1.00
C371   C     0.85696   0.98936   0.25224   0.00000  Uiso   1.00
C372   C     0.79975   0.83244   0.34728   0.00000  Uiso   1.00
C373   C     0.80973   0.67731   0.24769   0.00000  Uiso   1.00
C374   C     0.81824   0.73327   0.24847   0.00000  Uiso   1.00
C375   C     0.86721   0.83667   0.15292   0.00000  Uiso   1.00
C376   C     0.95462   0.90104   0.02963   0.00000  Uiso   1.00
C377   C     0.88778   0.84561   0.09775   0.00000  Uiso   1.00
C378   C     0.71699   0.80536   0.42471   0.00000  Uiso   1.00
C379   C     0.69760   0.79735   0.47716   0.00000  Uiso   1.00
C380   C     0.80532   0.83606   0.48792   0.00000  Uiso   1.00
C381   C     0.74165   0.81272   0.00863   0.00000  Uiso   1.00
C382   C     0.80469   0.77286   0.07800   0.00000  Uiso   1.00
C383   C     0.82129   0.85163   0.43619   0.00000  Uiso   1.00
C384   C     0.85270   0.84771   0.01782   0.00000  Uiso   1.00
C385   C     0.90974   0.88453   0.49915   0.00000  Uiso   1.00
C386   C     0.92128   0.90500   0.45039   0.00000  Uiso   1.00
C387   C     0.87828   0.88829   0.41907   0.00000  Uiso   1.00
C388   C     0.84640   0.82380   0.06518   0.00000  Uiso   1.00
C389   C     0.94261   0.88315   0.07933   0.00000  Uiso   1.00
Cu390  Cu    0.77377   0.82772   0.24435   0.00000  Uiso   1.00
Cu391  Cu    0.89290   0.83895   0.25564   0.00000  Uiso   1.00
H392   H     0.97517   0.89984   0.10387   0.00000  Uiso   1.00
H393   H     0.90247   0.67982   0.25655   0.00000  Uiso   1.00
H394   H     0.96296   0.76926   0.03383   0.00000  Uiso   1.00
H395   H     0.76422   0.98685   0.24339   0.00000  Uiso   1.00
H396   H     0.67027   0.87257   0.28970   0.00000  Uiso   1.00
H397   H     0.99639   0.79409   0.21031   0.00000  Uiso   1.00
H398   H     0.96418   0.93370   0.43610   0.00000  Uiso   1.00
H399   H     0.99777   0.92964   0.01580   0.00000  Uiso   1.00
H400   H     0.68358   0.79051   0.40040   0.00000  Uiso   1.00
H401   H     0.72472   0.80842   0.04944   0.00000  Uiso   1.00
H402   H     0.88906   0.90658   0.38221   0.00000  Uiso   1.00
N403   N     0.98241   0.84741   0.26416   0.00000  Uiso   1.00
N404   N     0.68426   0.81926   0.23584   0.00000  Uiso   1.00
N405   N     0.77169   0.73216   0.08831   0.00000  Uiso   1.00
O406   O     0.79464   0.90474   0.24633   0.00000  Uiso   1.00
O407   O     0.89524   0.91422   0.25586   0.00000  Uiso   1.00
O408   O     0.75848   0.82627   0.31839   0.00000  Uiso   1.00
O409   O     0.85908   0.83575   0.32793   0.00000  Uiso   1.00
O410   O     0.77142   0.75245   0.24413   0.00000  Uiso   1.00
O411   O     0.87203   0.76193   0.25367   0.00000  Uiso   1.00
O412   O     0.80758   0.83092   0.17207   0.00000  Uiso   1.00
O413   O     0.90819   0.84040   0.18160   0.00000  Uiso   1.00
O414   O     0.96908   0.77312   0.49634   0.00000  Uiso   1.00
C415   C     0.18177   0.26673   0.75151   0.00000  Uiso   1.00
C416   C     0.11208   0.16483   0.90351   0.00000  Uiso   1.00
C417   C     0.19029   0.32269   0.75224   0.00000  Uiso   1.00
C418   C     0.13308   0.16578   0.84728   0.00000  Uiso   1.00
C419   C     0.14307   0.01064   0.74769   0.00000  Uiso   1.00
C420   C     0.15157   0.06660   0.74847   0.00000  Uiso   1.00
C421   C     0.20055   0.17000   0.65292   0.00000  Uiso   1.00
C422   C     0.28795   0.23438   0.52963   0.00000  Uiso   1.00
C423   C     0.22111   0.17895   0.59775   0.00000  Uiso   1.00
C424   C     0.05033   0.13869   0.92471   0.00000  Uiso   1.00
C425   C     0.03094   0.13069   0.97716   0.00000  Uiso   1.00
C426   C     0.13865   0.16939   0.98792   0.00000  Uiso   1.00
C427   C     0.07498   0.14605   0.50863   0.00000  Uiso   1.00
C428   C     0.13802   0.10619   0.57800   0.00000  Uiso   1.00
C429   C     0.15463   0.18496   0.93619   0.00000  Uiso   1.00
C430   C     0.18603   0.18104   0.51782   0.00000  Uiso   1.00
C431   C     0.24307   0.21786   0.99915   0.00000  Uiso   1.00
C432   C     0.25461   0.23833   0.95039   0.00000  Uiso   1.00
C433   C     0.21161   0.22162   0.91907   0.00000  Uiso   1.00
C434   C     0.17973   0.15713   0.56518   0.00000  Uiso   1.00
C435   C     0.27595   0.21649   0.57933   0.00000  Uiso   1.00
Cu436  Cu    0.10710   0.16105   0.74435   0.00000  Uiso   1.00
Cu437  Cu    0.22623   0.17228   0.75564   0.00000  Uiso   1.00
H438   H     0.30850   0.23318   0.60387   0.00000  Uiso   1.00
H439   H     0.23580   0.01315   0.75655   0.00000  Uiso   1.00
H440   H     0.29630   0.10259   0.53383   0.00000  Uiso   1.00
H441   H     0.09756   0.32018   0.74339   0.00000  Uiso   1.00
H442   H     0.00360   0.20590   0.78970   0.00000  Uiso   1.00
H443   H     0.32972   0.12742   0.71031   0.00000  Uiso   1.00
H444   H     0.29752   0.26704   0.93610   0.00000  Uiso   1.00
H445   H     0.33111   0.26298   0.51580   0.00000  Uiso   1.00
H446   H     0.01692   0.12384   0.90040   0.00000  Uiso   1.00
H447   H     0.05806   0.14175   0.54944   0.00000  Uiso   1.00
H448   H     0.22239   0.23991   0.88221   0.00000  Uiso   1.00
N449   N     0.31574   0.18074   0.76416   0.00000  Uiso   1.00
N450   N     0.01759   0.15259   0.73584   0.00000  Uiso   1.00
N451   N     0.10503   0.06550   0.58831   0.00000  Uiso   1.00
O452   O     0.12797   0.23807   0.74633   0.00000  Uiso   1.00
O453   O     0.22858   0.24755   0.75586   0.00000  Uiso   1.00
O454   O     0.09181   0.15960   0.81839   0.00000  Uiso   1.00
O455   O     0.19242   0.16908   0.82793   0.00000  Uiso   1.00
O456   O     0.10476   0.08578   0.74413   0.00000  Uiso   1.00
O457   O     0.20536   0.09526   0.75367   0.00000  Uiso   1.00
O458   O     0.14092   0.16425   0.67207   0.00000  Uiso   1.00
O459   O     0.24152   0.17373   0.68160   0.00000  Uiso   1.00
O460   O     0.30241   0.10646   0.99634   0.00000  Uiso   1.00
C461   C     0.51511   0.26673   0.75151   0.00000  Uiso   1.00
C462   C     0.44541   0.16483   0.90351   0.00000  Uiso   1.00
C463   C     0.52362   0.32269   0.75224   0.00000  Uiso   1.00
C464   C     0.46642   0.16578   0.84728   0.00000  Uiso   1.00
C465   C     0.47640   0.01064   0.74769   0.00000  Uiso   1.00
C466   C     0.48490   0.06660   0.74847   0.00000  Uiso   1.00
C467   C     0.53388   0.17000   0.65292   0.00000  Uiso   1.00
C468   C     0.62129   0.23438   0.52963   0.00000  Uiso   1.00
C469   C     0.55445   0.17895   0.59775   0.00000  Uiso   1.00
C470   C     0.38366   0.13869   0.92471   0.00000  Uiso   1.00
C471   C     0.36427   0.13069   0.97716   0.00000  Uiso   1.00
C472   C     0.47199   0.16939   0.98792   0.00000  Uiso   1.00
C473   C     0.40832   0.14605   0.50863   0.00000  Uiso   1.00
C474   C     0.47135   0.10619   0.57800   0.00000  Uiso   1.00
C475   C     0.48796   0.18496   0.93619   0.00000  Uiso   1.00
C476   C     0.51936   0.18104   0.51782   0.00000  Uiso   1.00
C477   C     0.57641   0.21786   0.99915   0.00000  Uiso   1.00
C478   C     0.58794   0.23833   0.95039   0.00000  Uiso   1.00
C479   C     0.54494   0.22162   0.91907   0.00000  Uiso   1.00
C480   C     0.51306   0.15713   0.56518   0.00000  Uiso   1.00
C481   C     0.60928   0.21649   0.57933   0.00000  Uiso   1.00
Cu482  Cu    0.44043   0.16105   0.74435   0.00000  Uiso   1.00
Cu483  Cu    0.55957   0.17228   0.75564   0.00000  Uiso   1.00
H484   H     0.64184   0.23318   0.60387   0.00000  Uiso   1.00
H485   H     0.56914   0.01315   0.75655   0.00000  Uiso   1.00
H486   H     0.62963   0.10259   0.53383   0.00000  Uiso   1.00
H487   H     0.43089   0.32018   0.74339   0.00000  Uiso   1.00
H488   H     0.33693   0.20590   0.78970   0.00000  Uiso   1.00
H489   H     0.66305   0.12742   0.71031   0.00000  Uiso   1.00
H490   H     0.63085   0.26704   0.93610   0.00000  Uiso   1.00
H491   H     0.66444   0.26298   0.51580   0.00000  Uiso   1.00
H492   H     0.35025   0.12384   0.90040   0.00000  Uiso   1.00
H493   H     0.39139   0.14175   0.54944   0.00000  Uiso   1.00
H494   H     0.55572   0.23991   0.88221   0.00000  Uiso   1.00
N495   N     0.64908   0.18074   0.76416   0.00000  Uiso   1.00
N496   N     0.35092   0.15259   0.73584   0.00000  Uiso   1.00
N497   N     0.43836   0.06550   0.58831   0.00000  Uiso   1.00
O498   O     0.46131   0.23807   0.74633   0.00000  Uiso   1.00
O499   O     0.56191   0.24755   0.75586   0.00000  Uiso   1.00
O500   O     0.42515   0.15960   0.81839   0.00000  Uiso   1.00
O501   O     0.52575   0.16908   0.82793   0.00000  Uiso   1.00
O502   O     0.43809   0.08578   0.74413   0.00000  Uiso   1.00
O503   O     0.53869   0.09526   0.75367   0.00000  Uiso   1.00
O504   O     0.47425   0.16425   0.67207   0.00000  Uiso   1.00
O505   O     0.57485   0.17373   0.68160   0.00000  Uiso   1.00
O506   O     0.63575   0.10646   0.99634   0.00000  Uiso   1.00
C507   C     0.84844   0.26673   0.75151   0.00000  Uiso   1.00
C508   C     0.77875   0.16483   0.90351   0.00000  Uiso   1.00
C509   C     0.85696   0.32269   0.75224   0.00000  Uiso   1.00
C510   C     0.79975   0.16578   0.84728   0.00000  Uiso   1.00
C511   C     0.80973   0.01064   0.74769   0.00000  Uiso   1.00
C512   C     0.81824   0.06660   0.74847   0.00000  Uiso   1.00
C513   C     0.86721   0.17000   0.65292   0.00000  Uiso   1.00
C514   C     0.95462   0.23438   0.52963   0.00000  Uiso   1.00
C515   C     0.88778   0.17895   0.59775   0.00000  Uiso   1.00
C516   C     0.71699   0.13869   0.92471   0.00000  Uiso   1.00
C517   C     0.69760   0.13069   0.97716   0.00000  Uiso   1.00
C518   C     0.80532   0.16939   0.98792   0.00000  Uiso   1.00
C519   C     0.74165   0.14605   0.50863   0.00000  Uiso   1.00
C520   C     0.80469   0.10619   0.57800   0.00000  Uiso   1.00
C521   C     0.82129   0.18496   0.93619   0.00000  Uiso   1.00
C522   C     0.85270   0.18104   0.51782   0.00000  Uiso   1.00
C523   C     0.90974   0.21786   0.99915   0.00000  Uiso   1.00
C524   C     0.92128   0.23833   0.95039   0.00000  Uiso   1.00
C525   C     0.87828   0.22162   0.91907   0.00000  Uiso   1.00
C526   C     0.84640   0.15713   0.56518   0.00000  Uiso   1.00
C527   C     0.94261   0.21649   0.57933   0.00000  Uiso   1.00
Cu528  Cu    0.77377   0.16105   0.74435   0.00000  Uiso   1.00
Cu529  Cu    0.89290   0.17228   0.75564   0.00000  Uiso   1.00
H530   H     0.97517   0.23318   0.60387   0.00000  Uiso   1.00
H531   H     0.90247   0.01315   0.75655   0.00000  Uiso   1.00
H532   H     0.96296   0.10259   0.53383   0.00000  Uiso   1.00
H533   H     0.76422   0.32018   0.74339   0.00000  Uiso   1.00
H534   H     0.67027   0.20590   0.78970   0.00000  Uiso   1.00
H535   H     0.99639   0.12742   0.71031   0.00000  Uiso   1.00
H536   H     0.96418   0.26704   0.93610   0.00000  Uiso   1.00
H537   H     0.99777   0.26298   0.51580   0.00000  Uiso   1.00
H538   H     0.68358   0.12384   0.90040   0.00000  Uiso   1.00
H539   H     0.72472   0.14175   0.54944   0.00000  Uiso   1.00
H540   H     0.88906   0.23991   0.88221   0.00000  Uiso   1.00
N541   N     0.98241   0.18074   0.76416   0.00000  Uiso   1.00
N542   N     0.68426   0.15259   0.73584   0.00000  Uiso   1.00
N543   N     0.77169   0.06550   0.58831   0.00000  Uiso   1.00
O544   O     0.79464   0.23807   0.74633   0.00000  Uiso   1.00
O545   O     0.89524   0.24755   0.75586   0.00000  Uiso   1.00
O546   O     0.75848   0.15960   0.81839   0.00000  Uiso   1.00
O547   O     0.85908   0.16908   0.82793   0.00000  Uiso   1.00
O548   O     0.77142   0.08578   0.74413   0.00000  Uiso   1.00
O549   O     0.87203   0.09526   0.75367   0.00000  Uiso   1.00
O550   O     0.80758   0.16425   0.67207   0.00000  Uiso   1.00
O551   O     0.90819   0.17373   0.68160   0.00000  Uiso   1.00
O552   O     0.96908   0.10646   0.99634   0.00000  Uiso   1.00
C553   C     0.18177   0.60006   0.75151   0.00000  Uiso   1.00
C554   C     0.11208   0.49816   0.90351   0.00000  Uiso   1.00
C555   C     0.19029   0.65602   0.75224   0.00000  Uiso   1.00
C556   C     0.13308   0.49911   0.84728   0.00000  Uiso   1.00
C557   C     0.14307   0.34398   0.74769   0.00000  Uiso   1.00
C558   C     0.15157   0.39994   0.74847   0.00000  Uiso   1.00
C559   C     0.20055   0.50333   0.65292   0.00000  Uiso   1.00
C560   C     0.28795   0.56771   0.52963   0.00000  Uiso   1.00
C561   C     0.22111   0.51228   0.59775   0.00000  Uiso   1.00
C562   C     0.05033   0.47202   0.92471   0.00000  Uiso   1.00
C563   C     0.03094   0.46402   0.97716   0.00000  Uiso   1.00
C564   C     0.13865   0.50272   0.98792   0.00000  Uiso   1.00
C565   C     0.07498   0.47939   0.50863   0.00000  Uiso   1.00
C566   C     0.13802   0.43953   0.57800   0.00000  Uiso   1.00
C567   C     0.15463   0.51830   0.93619   0.00000  Uiso   1.00
C568   C     0.18603   0.51437   0.51782   0.00000  Uiso   1.00
C569   C     0.24307   0.55120   0.99915   0.00000  Uiso   1.00
C570   C     0.25461   0.57167   0.95039   0.00000  Uiso   1.00
C571   C     0.21161   0.55496   0.91907   0.00000  Uiso   1.00
C572   C     0.17973   0.49046   0.56518   0.00000  Uiso   1.00
C573   C     0.27595   0.54982   0.57933   0.00000  Uiso   1.00
Cu574  Cu    0.10710   0.49439   0.74435   0.00000  Uiso   1.00
Cu575  Cu    0.22623   0.50561   0.75564   0.00000  Uiso   1.00
H576   H     0.30850   0.56651   0.60387   0.00000  Uiso   1.00
H577   H     0.23580   0.34649   0.75655   0.00000  Uiso   1.00
H578   H     0.29630   0.43592   0.53383   0.00000  Uiso   1.00
H579   H     0.09756   0.65351   0.74339   0.00000  Uiso   1.00
H580   H     0.00360   0.53923   0.78970   0.00000  Uiso   1.00
H581   H     0.32972   0.46075   0.71031   0.00000  Uiso   1.00
H582   H     0.29752   0.60037   0.93610   0.00000  Uiso   1.00
H583   H     0.33111   0.59631   0.51580   0.00000  Uiso   1.00
H584   H     0.01692   0.45718   0.90040   0.00000  Uiso   1.00
H585   H     0.05806   0.47508   0.54944   0.00000  Uiso   1.00
H586   H     0.22239   0.57325   0.88221   0.00000  Uiso   1.00
N587   N     0.31574   0.51407   0.76416   0.00000  Uiso   1.00
N588   N     0.01759   0.48593   0.73584   0.00000  Uiso   1.00
N589   N     0.10503   0.39883   0.58831   0.00000  Uiso   1.00
O590   O     0.12797   0.57141   0.74633   0.00000  Uiso   1.00
O591   O     0.22858   0.58089   0.75586   0.00000  Uiso   1.00
O592   O     0.09181   0.49293   0.81839   0.00000  Uiso   1.00
O593   O     0.19242   0.50241   0.82793   0.00000  Uiso   1.00
O594   O     0.10476   0.41911   0.74413   0.00000  Uiso   1.00
O595   O     0.20536   0.42859   0.75367   0.00000  Uiso   1.00
O596   O     0.14092   0.49759   0.67207   0.00000  Uiso   1.00
O597   O     0.24152   0.50707   0.68160   0.00000  Uiso   1.00
O598   O     0.30241   0.43979   0.99634   0.00000  Uiso   1.00
C599   C     0.51511   0.60006   0.75151   0.00000  Uiso   1.00
C600   C     0.44541   0.49816   0.90351   0.00000  Uiso   1.00
C601   C     0.52362   0.65602   0.75224   0.00000  Uiso   1.00
C602   C     0.46642   0.49911   0.84728   0.00000  Uiso   1.00
C603   C     0.47640   0.34398   0.74769   0.00000  Uiso   1.00
C604   C     0.48490   0.39994   0.74847   0.00000  Uiso   1.00
C605   C     0.53388   0.50333   0.65292   0.00000  Uiso   1.00
C606   C     0.62129   0.56771   0.52963   0.00000  Uiso   1.00
C607   C     0.55445   0.51228   0.59775   0.00000  Uiso   1.00
C608   C     0.38366   0.47202   0.92471   0.00000  Uiso   1.00
C609   C     0.36427   0.46402   0.97716   0.00000  Uiso   1.00
C610   C     0.47199   0.50272   0.98792   0.00000  Uiso   1.00
C611   C     0.40832   0.47939   0.50863   0.00000  Uiso   1.00
C612   C     0.47135   0.43953   0.57800   0.00000  Uiso   1.00
C613   C     0.48796   0.51830   0.93619   0.00000  Uiso   1.00
C614   C     0.51936   0.51437   0.51782   0.00000  Uiso   1.00
C615   C     0.57641   0.55120   0.99915   0.00000  Uiso   1.00
C616   C     0.58794   0.57167   0.95039   0.00000  Uiso   1.00
C617   C     0.54494   0.55496   0.91907   0.00000  Uiso   1.00
C618   C     0.51306   0.49046   0.56518   0.00000  Uiso   1.00
C619   C     0.60928   0.54982   0.57933   0.00000  Uiso   1.00
Cu620  Cu    0.44043   0.49439   0.74435   0.00000  Uiso   1.00
Cu621  Cu    0.55957   0.50561   0.75564   0.00000  Uiso   1.00
H622   H     0.64184   0.56651   0.60387   0.00000  Uiso   1.00
H623   H     0.56914   0.34649   0.75655   0.00000  Uiso   1.00
H624   H     0.62963   0.43592   0.53383   0.00000  Uiso   1.00
H625   H     0.43089   0.65351   0.74339   0.00000  Uiso   1.00
H626   H     0.33693   0.53923   0.78970   0.00000  Uiso   1.00
H627   H     0.66305   0.46075   0.71031   0.00000  Uiso   1.00
H628   H     0.63085   0.60037   0.93610   0.00000  Uiso   1.00
H629   H     0.66444   0.59631   0.51580   0.00000  Uiso   1.00
H630   H     0.35025   0.45718   0.90040   0.00000  Uiso   1.00
H631   H     0.39139   0.47508   0.54944   0.00000  Uiso   1.00
H632   H     0.55572   0.57325   0.88221   0.00000  Uiso   1.00
N633   N     0.64908   0.51407   0.76416   0.00000  Uiso   1.00
N634   N     0.35092   0.48593   0.73584   0.00000  Uiso   1.00
N635   N     0.43836   0.39883   0.58831   0.00000  Uiso   1.00
O636   O     0.46131   0.57141   0.74633   0.00000  Uiso   1.00
O637   O     0.56191   0.58089   0.75586   0.00000  Uiso   1.00
O638   O     0.42515   0.49293   0.81839   0.00000  Uiso   1.00
O639   O     0.52575   0.50241   0.82793   0.00000  Uiso   1.00
O640   O     0.43809   0.41911   0.74413   0.00000  Uiso   1.00
O641   O     0.53869   0.42859   0.75367   0.00000  Uiso   1.00
O642   O     0.47425   0.49759   0.67207   0.00000  Uiso   1.00
O643   O     0.57485   0.50707   0.68160   0.00000  Uiso   1.00
O644   O     0.63575   0.43979   0.99634   0.00000  Uiso   1.00
C645   C     0.84844   0.60006   0.75151   0.00000  Uiso   1.00
C646   C     0.77875   0.49816   0.90351   0.00000  Uiso   1.00
C647   C     0.85696   0.65602   0.75224   0.00000  Uiso   1.00
C648   C     0.79975   0.49911   0.84728   0.00000  Uiso   1.00
C649   C     0.80973   0.34398   0.74769   0.00000  Uiso   1.00
C650   C     0.81824   0.39994   0.74847   0.00000  Uiso   1.00
C651   C     0.86721   0.50333   0.65292   0.00000  Uiso   1.00
C652   C     0.95462   0.56771   0.52963   0.00000  Uiso   1.00
C653   C     0.88778   0.51228   0.59775   0.00000  Uiso   1.00
C654   C     0.71699   0.47202   0.92471   0.00000  Uiso   1.00
C655   C     0.69760   0.46402   0.97716   0.00000  Uiso   1.00
C656   C     0.80532   0.50272   0.98792   0.00000  Uiso   1.00
C657   C     0.74165   0.47939   0.50863   0.00000  Uiso   1.00
C658   C     0.80469   0.43953   0.57800   0.00000  Uiso   1.00
C659   C     0.82129   0.51830   0.93619   0.00000  Uiso   1.00
C660   C     0.85270   0.51437   0.51782   0.00000  Uiso   1.00
C661   C     0.90974   0.55120   0.99915   0.00000  Uiso   1.00
C662   C     0.92128   0.57167   0.95039   0.00000  Uiso   1.00
C663   C     0.87828   0.55496   0.91907   0.00000  Uiso   1.00
C664   C     0.84640   0.49046   0.56518   0.00000  Uiso   1.00
C665   C     0.94261   0.54982   0.57933   0.00000  Uiso   1.00
Cu666  Cu    0.77377   0.49439   0.74435   0.00000  Uiso   1.00
Cu667  Cu    0.89290   0.50561   0.75564   0.00000  Uiso   1.00
H668   H     0.97517   0.56651   0.60387   0.00000  Uiso   1.00
H669   H     0.90247   0.34649   0.75655   0.00000  Uiso   1.00
H670   H     0.96296   0.43592   0.53383   0.00000  Uiso   1.00
H671   H     0.76422   0.65351   0.74339   0.00000  Uiso   1.00
H672   H     0.67027   0.53923   0.78970   0.00000  Uiso   1.00
H673   H     0.99639   0.46075   0.71031   0.00000  Uiso   1.00
H674   H     0.96418   0.60037   0.93610   0.00000  Uiso   1.00
H675   H     0.99777   0.59631   0.51580   0.00000  Uiso   1.00
H676   H     0.68358   0.45718   0.90040   0.00000  Uiso   1.00
H677   H     0.72472   0.47508   0.54944   0.00000  Uiso   1.00
H678   H     0.88906   0.57325   0.88221   0.00000  Uiso   1.00
N679   N     0.98241   0.51407   0.76416   0.00000  Uiso   1.00
N680   N     0.68426   0.48593   0.73584   0.00000  Uiso   1.00
N681   N     0.77169   0.39883   0.58831   0.00000  Uiso   1.00
O682   O     0.79464   0.57141   0.74633   0.00000  Uiso   1.00
O683   O     0.89524   0.58089   0.75586   0.00000  Uiso   1.00
O684   O     0.75848   0.49293   0.81839   0.00000  Uiso   1.00
O685   O     0.85908   0.50241   0.82793   0.00000  Uiso   1.00
O686   O     0.77142   0.41911   0.74413   0.00000  Uiso   1.00
O687   O     0.87203   0.42859   0.75367   0.00000  Uiso   1.00
O688   O     0.80758   0.49759   0.67207   0.00000  Uiso   1.00
O689   O     0.90819   0.50707   0.68160   0.00000  Uiso   1.00
O690   O     0.96908   0.43979   0.99634   0.00000  Uiso   1.00
C691   C     0.18177   0.93340   0.75151   0.00000  Uiso   1.00
C692   C     0.11208   0.83150   0.90351   0.00000  Uiso   1.00
C693   C     0.19029   0.98936   0.75224   0.00000  Uiso   1.00
C694   C     0.13308   0.83244   0.84728   0.00000  Uiso   1.00
C695   C     0.14307   0.67731   0.74769   0.00000  Uiso   1.00
C696   C     0.15157   0.73327   0.74847   0.00000  Uiso   1.00
C697   C     0.20055   0.83667   0.65292   0.00000  Uiso   1.00
C698   C     0.28795   0.90104   0.52963   0.00000  Uiso   1.00
C699   C     0.22111   0.84561   0.59775   0.00000  Uiso   1.00
C700   C     0.05033   0.80536   0.92471   0.00000  Uiso   1.00
C701   C     0.03094   0.79735   0.97716   0.00000  Uiso   1.00
C702   C     0.13865   0.83606   0.98792   0.00000  Uiso   1.00
C703   C     0.07498   0.81272   0.50863   0.00000  Uiso   1.00
C704   C     0.13802   0.77286   0.57800   0.00000  Uiso   1.00
C705   C     0.15463   0.85163   0.93619   0.00000  Uiso   1.00
C706   C     0.18603   0.84771   0.51782   0.00000  Uiso   1.00
C707   C     0.24307   0.88453   0.99915   0.00000  Uiso   1.00
C708   C     0.25461   0.90500   0.95039   0.00000  Uiso   1.00
C709   C     0.21161   0.88829   0.91907   0.00000  Uiso   1.00
C710   C     0.17973   0.82380   0.56518   0.00000  Uiso   1.00
C711   C     0.27595   0.88315   0.57933   0.00000  Uiso   1.00
Cu712  Cu    0.10710   0.82772   0.74435   0.00000  Uiso   1.00
Cu713  Cu    0.22623   0.83895   0.75564   0.00000  Uiso   1.00
H714   H     0.30850   0.89984   0.60387   0.00000  Uiso   1.00
H715   H     0.23580   0.67982   0.75655   0.00000  Uiso   1.00
H716   H     0.29630   0.76926   0.53383   0.00000  Uiso   1.00
H717   H     0.09756   0.98685   0.74339   0.00000  Uiso   1.00
H718   H     0.00360   0.87257   0.78970   0.00000  Uiso   1.00
H719   H     0.32972   0.79409   0.71031   0.00000  Uiso   1.00
H720   H     0.29752   0.93370   0.93610   0.00000  Uiso   1.00
H721   H     0.33111   0.92964   0.51580   0.00000  Uiso   1.00
H722   H     0.01692   0.79051   0.90040   0.00000  Uiso   1.00
H723   H     0.05806   0.80842   0.54944   0.00000  Uiso   1.00
H724   H     0.22239   0.90658   0.88221   0.00000  Uiso   1.00
N725   N     0.31574   0.84741   0.76416   0.00000  Uiso   1.00
N726   N     0.01759   0.81926   0.73584   0.00000  Uiso   1.00
N727   N     0.10503   0.73216   0.58831   0.00000  Uiso   1.00
O728   O     0.12797   0.90474   0.74633   0.00000  Uiso   1.00
O729   O     0.22858   0.91422   0.75586   0.00000  Uiso   1.00
O730   O     0.09181   0.82627   0.81839   0.00000  Uiso   1.00
O731   O     0.19242   0.83575   0.82793   0.00000  Uiso   1.00
O732   O     0.10476   0.75245   0.74413   0.00000  Uiso   1.00
O733   O     0.20536   0.76193   0.75367   0.00000  Uiso   1.00
O734   O     0.14092   0.83092   0.67207   0.00000  Uiso   1.00
O735   O     0.24152   0.84040   0.68160   0.00000  Uiso   1.00
O736   O     0.30241   0.77312   0.99634   0.00000  Uiso   1.00
C737   C     0.51511   0.93340   0.75151   0.00000  Uiso   1.00
C738   C     0.44541   0.83150   0.90351   0.00000  Uiso   1.00
C739   C     0.52362   0.98936   0.75224   0.00000  Uiso   1.00
C740   C     0.46642   0.83244   0.84728   0.00000  Uiso   1.00
C741   C     0.47640   0.67731   0.74769   0.00000  Uiso   1.00
C742   C     0.48490   0.73327   0.74847   0.00000  Uiso   1.00
C743   C     0.53388   0.83667   0.65292   0.00000  Uiso   1.00
C744   C     0.62129   0.90104   0.52963   0.00000  Uiso   1.00
C745   C     0.55445   0.84561   0.59775   0.00000  Uiso   1.00
C746   C     0.38366   0.80536   0.92471   0.00000  Uiso   1.00
C747   C     0.36427   0.79735   0.97716   0.00000  Uiso   1.00
C748   C     0.47199   0.83606   0.98792   0.00000  Uiso   1.00
C749   C     0.40832   0.81272   0.50863   0.00000  Uiso   1.00
C750   C     0.47135   0.77286   0.57800   0.00000  Uiso   1.00
C751   C     0.48796   0.85163   0.93619   0.00000  Uiso   1.00
C752   C     0.51936   0.84771   0.51782   0.00000  Uiso   1.00
C753   C     0.57641   0.88453   0.99915   0.00000  Uiso   1.00
C754   C     0.58794   0.90500   0.95039   0.00000  Uiso   1.00
C755   C     0.54494   0.88829   0.91907   0.00000  Uiso   1.00
C756   C     0.51306   0.82380   0.56518   0.00000  Uiso   1.00
C757   C     0.60928   0.88315   0.57933   0.00000  Uiso   1.00
Cu758  Cu    0.44043   0.82772   0.74435   0.00000  Uiso   1.00
Cu759  Cu    0.55957   0.83895   0.75564   0.00000  Uiso   1.00
H760   H     0.64184   0.89984   0.60387   0.00000  Uiso   1.00
H761   H     0.56914   0.67982   0.75655   0.00000  Uiso   1.00
H762   H     0.62963   0.76926   0.53383   0.00000  Uiso   1.00
H763   H     0.43089   0.98685   0.74339   0.00000  Uiso   1.00
H764   H     0.33693   0.87257   0.78970   0.00000  Uiso   1.00
H765   H     0.66305   0.79409   0.71031   0.00000  Uiso   1.00
H766   H     0.63085   0.93370   0.93610   0.00000  Uiso   1.00
H767   H     0.66444   0.92964   0.51580   0.00000  Uiso   1.00
H768   H     0.35025   0.79051   0.90040   0.00000  Uiso   1.00
H769   H     0.39139   0.80842   0.54944   0.00000  Uiso   1.00
H770   H     0.55572   0.90658   0.88221   0.00000  Uiso   1.00
N771   N     0.64908   0.84741   0.76416   0.00000  Uiso   1.00
N772   N     0.35092   0.81926   0.73584   0.00000  Uiso   1.00
N773   N     0.43836   0.73216   0.58831   0.00000  Uiso   1.00
O774   O     0.46131   0.90474   0.74633   0.00000  Uiso   1.00
O775   O     0.56191   0.91422   0.75586   0.00000  Uiso   1.00
O776   O     0.42515   0.82627   0.81839   0.00000  Uiso   1.00
O777   O     0.52575   0.83575   0.82793   0.00000  Uiso   1.00
O778   O     0.43809   0.75245   0.74413   0.00000  Uiso   1.00
O779   O     0.53869   0.76193   0.75367   0.00000  Uiso   1.00
O780   O     0.47425   0.83092   0.67207   0.00000  Uiso   1.00
O781   O     0.57485   0.84040   0.68160   0.00000  Uiso   1.00
O782   O     0.63575   0.77312   0.99634   0.00000  Uiso   1.00
C783   C     0.84844   0.93340   0.75151   0.00000  Uiso   1.00
C784   C     0.77875   0.83150   0.90351   0.00000  Uiso   1.00
C785   C     0.85696   0.98936   0.75224   0.00000  Uiso   1.00
C786   C     0.79975   0.83244   0.84728   0.00000  Uiso   1.00
C787   C     0.80973   0.67731   0.74769   0.00000  Uiso   1.00
C788   C     0.81824   0.73327   0.74847   0.00000  Uiso   1.00
C789   C     0.86721   0.83667   0.65292   0.00000  Uiso   1.00
C790   C     0.95462   0.90104   0.52963   0.00000  Uiso   1.00
C791   C     0.88778   0.84561   0.59775   0.00000  Uiso   1.00
C792   C     0.71699   0.80536   0.92471   0.00000  Uiso   1.00
C793   C     0.69760   0.79735   0.97716   0.00000  Uiso   1.00
C794   C     0.80532   0.83606   0.98792   0.00000  Uiso   1.00
C795   C     0.74165   0.81272   0.50863   0.00000  Uiso   1.00
C796   C     0.80469   0.77286   0.57800   0.00000  Uiso   1.00
C797   C     0.82129   0.85163   0.93619   0.00000  Uiso   1.00
C798   C     0.85270   0.84771   0.51782   0.00000  Uiso   1.00
C799   C     0.90974   0.88453   0.99915   0.00000  Uiso   1.00
C800   C     0.92128   0.90500   0.95039   0.00000  Uiso   1.00
C801   C     0.87828   0.88829   0.91907   0.00000  Uiso   1.00
C802   C     0.84640   0.82380   0.56518   0.00000  Uiso   1.00
C803   C     0.94261   0.88315   0.57933   0.00000  Uiso   1.00
Cu804  Cu    0.77377   0.82772   0.74435   0.00000  Uiso   1.00
Cu805  Cu    0.89290   0.83895   0.75564   0.00000  Uiso   1.00
H806   H     0.97517   0.89984   0.60387   0.00000  Uiso   1.00
H807   H     0.90247   0.67982   0.75655   0.00000  Uiso   1.00
H808   H     0.96296   0.76926   0.53383   0.00000  Uiso   1.00
H809   H     0.76422   0.98685   0.74339   0.00000  Uiso   1.00
H810   H     0.67027   0.87257   0.78970   0.00000  Uiso   1.00
H811   H     0.99639   0.79409   0.71031   0.00000  Uiso   1.00
H812   H     0.96418   0.93370   0.93610   0.00000  Uiso   1.00
H813   H     0.99777   0.92964   0.51580   0.00000  Uiso   1.00
H814   H     0.68358   0.79051   0.90040   0.00000  Uiso   1.00
H815   H     0.72472   0.80842   0.54944   0.00000  Uiso   1.00
H816   H     0.88906   0.90658   0.88221   0.00000  Uiso   1.00
N817   N     0.98241   0.84741   0.76416   0.00000  Uiso   1.00
N818   N     0.68426   0.81926   0.73584   0.00000  Uiso   1.00
N819   N     0.77169   0.73216   0.58831   0.00000  Uiso   1.00
O820   O     0.79464   0.90474   0.74633   0.00000  Uiso   1.00
O821   O     0.89524   0.91422   0.75586   0.00000  Uiso   1.00
O822   O     0.75848   0.82627   0.81839   0.00000  Uiso   1.00
O823   O     0.85908   0.83575   0.82793   0.00000  Uiso   1.00
O824   O     0.77142   0.75245   0.74413   0.00000  Uiso   1.00
O825   O     0.87203   0.76193   0.75367   0.00000  Uiso   1.00
O826   O     0.80758   0.83092   0.67207   0.00000  Uiso   1.00
O827   O     0.90819   0.84040   0.68160   0.00000  Uiso   1.00
O828   O     0.96908   0.77312   0.99634   0.00000  Uiso   1.00
loop_
_geom_bond_atom_site_label_1
_geom_bond_atom_site_label_2
_geom_bond_distance
_geom_bond_site_symmetry_2
_ccdc_geom_bond_type
C1     O38     1.291   .     A
C1     O39     1.285   .     A
C1     C3      1.427   .     S
C2     C4      1.475   .     S
C2     C15     1.419   .     A
C2     C10     1.402   .     A
C3     C143    1.328   .     S
C3     H163    1.088   .     S
C4     O40     1.303   .     A
C4     O41     1.296   .     A
C5     C6      1.427   .     S
C5     C279    1.328   1_545 S
C5     H303    1.088   1_545 S
C6     O43     1.291   .     A
C6     O42     1.285   .     A
C7     O44     1.294   .     A
C7     O45     1.300   .     A
C7     C9      1.465   .     S
C8     C21     1.390   .     A
C8     H31     1.084   .     S
C8     C431    1.402   1_554 S
C9     C20     1.407   .     A
C9     C21     1.398   .     A
C10    H32     1.084   .     S
C10    C11     1.391   .     A
C11    C427    1.404   .     S
C11    O138    1.380   1_455 S
C12    C15     1.416   .     A
C12    C427    1.415   .     S
C12    C430    1.428   .     S
C13    H33     1.079   .     S
C13    C426    1.415   1_554 S
C13    C425    1.404   1_554 S
C14    N37     1.158   .     T
C14    C20     1.452   .     S
C15    C19     1.411   .     A
C16    C20     1.417   .     A
C16    C426    1.428   1_554 S
C16    C431    1.422   1_554 S
C17    C18     1.393   .     A
C17    C430    1.422   .     S
C17    C422    1.402   .     S
C18    H30     1.084   .     S
C18    C19     1.387   .     A
C19    H34     1.081   .     S
C21    H24     1.083   .     S
Cu22   N36     2.019   .     S
Cu22   O40     1.937   .     S
Cu22   O42     1.951   .     S
Cu22   O38     1.956   .     S
Cu22   Cu23    2.687   .     S
Cu22   O44     1.916   .     S
Cu23   O41     1.916   .     S
Cu23   O45     1.937   .     S
Cu23   N35     2.019   .     S
Cu23   O39     1.951   .     S
Cu23   O43     1.956   .     S
H25    C279    1.088   1_545 S
H26    O460    0.992   1_554 S
H27    C143    1.088   .     S
H28    N127    1.029   1_455 S
H29    N82     1.029   .     S
N35    H74     1.029   .     S
N35    N82     1.285   .     S
N36    N127    1.285   1_455 S
N36    H121    1.029   1_455 S
O46    C57     1.380   .     S
O46    H440    0.992   .     S
C47    O84     1.291   .     A
C47    O85     1.285   .     A
C47    C49     1.427   .     S
C48    C50     1.475   .     S
C48    C61     1.419   .     A
C48    C56     1.402   .     A
C49    C189    1.328   .     S
C49    H209    1.088   .     S
C50    O86     1.303   .     A
C50    O87     1.296   .     A
C51    C52     1.427   .     S
C51    C325    1.328   1_545 S
C51    H349    1.088   1_545 S
C52    O89     1.291   .     A
C52    O88     1.285   .     A
C53    O90     1.294   .     A
C53    O91     1.300   .     A
C53    C55     1.465   .     S
C54    C67     1.390   .     A
C54    H77     1.084   .     S
C54    C477    1.402   1_554 S
C55    C66     1.407   .     A
C55    C67     1.398   .     A
C56    H78     1.084   .     S
C56    C57     1.391   .     A
C57    C473    1.404   .     S
C58    C61     1.416   .     A
C58    C473    1.415   .     S
C58    C476    1.428   .     S
C59    H79     1.079   .     S
C59    C472    1.415   1_554 S
C59    C471    1.404   1_554 S
C60    N83     1.158   .     T
C60    C66     1.452   .     S
C61    C65     1.411   .     A
C62    C66     1.417   .     A
C62    C472    1.428   1_554 S
C62    C477    1.422   1_554 S
C63    C64     1.393   .     A
C63    C476    1.422   .     S
C63    C468    1.402   .     S
C64    H76     1.084   .     S
C64    C65     1.387   .     A
C65    H80     1.081   .     S
C67    H70     1.083   .     S
Cu68   N82     2.019   .     S
Cu68   O86     1.937   .     S
Cu68   O88     1.951   .     S
Cu68   O84     1.956   .     S
Cu68   Cu69    2.687   .     S
Cu68   O90     1.916   .     S
Cu69   O87     1.916   .     S
Cu69   O91     1.937   .     S
Cu69   N81     2.019   .     S
Cu69   O85     1.951   .     S
Cu69   O89     1.956   .     S
H71    C325    1.088   1_545 S
H72    O506    0.992   1_554 S
H73    C189    1.088   .     S
H75    N128    1.029   .     S
N81    H120    1.029   .     S
N81    N128    1.285   .     S
O92    C103    1.380   .     S
O92    H486    0.992   .     S
C93    O130    1.291   .     A
C93    O131    1.285   .     A
C93    C95     1.427   .     S
C94    C96     1.475   .     S
C94    C107    1.419   .     A
C94    C102    1.402   .     A
C95    C235    1.328   .     S
C95    H255    1.088   .     S
C96    O132    1.303   .     A
C96    O133    1.296   .     A
C97    C98     1.427   .     S
C97    C371    1.328   1_545 S
C97    H395    1.088   1_545 S
C98    O135    1.291   .     A
C98    O134    1.285   .     A
C99    O136    1.294   .     A
C99    O137    1.300   .     A
C99    C101    1.465   .     S
C100   C113    1.390   .     A
C100   H123    1.084   .     S
C100   C523    1.402   1_554 S
C101   C112    1.407   .     A
C101   C113    1.398   .     A
C102   H124    1.084   .     S
C102   C103    1.391   .     A
C103   C519    1.404   .     S
C104   C107    1.416   .     A
C104   C519    1.415   .     S
C104   C522    1.428   .     S
C105   H125    1.079   .     S
C105   C518    1.415   1_554 S
C105   C517    1.404   1_554 S
C106   N129    1.158   .     T
C106   C112    1.452   .     S
C107   C111    1.411   .     A
C108   C112    1.417   .     A
C108   C518    1.428   1_554 S
C108   C523    1.422   1_554 S
C109   C110    1.393   .     A
C109   C522    1.422   .     S
C109   C514    1.402   .     S
C110   H122    1.084   .     S
C110   C111    1.387   .     A
C111   H126    1.081   .     S
C113   H116    1.083   .     S
Cu114  N128    2.019   .     S
Cu114  O132    1.937   .     S
Cu114  O134    1.951   .     S
Cu114  O130    1.956   .     S
Cu114  Cu115   2.687   .     S
Cu114  O136    1.916   .     S
Cu115  O133    1.916   .     S
Cu115  O137    1.937   .     S
Cu115  N127    2.019   .     S
Cu115  O131    1.951   .     S
Cu115  O135    1.956   .     S
H117   C371    1.088   1_545 S
H118   O552    0.992   1_554 S
H119   C235    1.088   .     S
H121   N36     1.029   1_655 S
N127   H28     1.029   1_655 S
N127   N36     1.285   1_655 S
O138   C11     1.380   1_655 S
O138   H532    0.992   .     S
C139   O176    1.291   .     A
C139   O177    1.285   .     A
C139   C141    1.427   .     S
C140   C142    1.475   .     S
C140   C153    1.419   .     A
C140   C148    1.402   .     A
C141   C281    1.328   .     S
C141   H301    1.088   .     S
C142   O178    1.303   .     A
C142   O179    1.296   .     A
C143   C144    1.427   .     S
C144   O181    1.291   .     A
C144   O180    1.285   .     A
C145   O182    1.294   .     A
C145   O183    1.300   .     A
C145   C147    1.465   .     S
C146   C159    1.390   .     A
C146   H169    1.084   .     S
C146   C569    1.402   1_554 S
C147   C158    1.407   .     A
C147   C159    1.398   .     A
C148   H170    1.084   .     S
C148   C149    1.391   .     A
C149   C565    1.404   .     S
C149   O276    1.380   1_455 S
C150   C153    1.416   .     A
C150   C565    1.415   .     S
C150   C568    1.428   .     S
C151   H171    1.079   .     S
C151   C564    1.415   1_554 S
C151   C563    1.404   1_554 S
C152   N175    1.158   .     T
C152   C158    1.452   .     S
C153   C157    1.411   .     A
C154   C158    1.417   .     A
C154   C564    1.428   1_554 S
C154   C569    1.422   1_554 S
C155   C156    1.393   .     A
C155   C568    1.422   .     S
C155   C560    1.402   .     S
C156   H168    1.084   .     S
C156   C157    1.387   .     A
C157   H172    1.081   .     S
C159   H162    1.083   .     S
Cu160  N174    2.019   .     S
Cu160  O178    1.937   .     S
Cu160  O180    1.951   .     S
Cu160  O176    1.956   .     S
Cu160  Cu161   2.687   .     S
Cu160  O182    1.916   .     S
Cu161  O179    1.916   .     S
Cu161  O183    1.937   .     S
Cu161  N173    2.019   .     S
Cu161  O177    1.951   .     S
Cu161  O181    1.956   .     S
H164   O598    0.992   1_554 S
H165   C281    1.088   .     S
H166   N265    1.029   1_455 S
H167   N220    1.029   .     S
N173   H212    1.029   .     S
N173   N220    1.285   .     S
N174   N265    1.285   1_455 S
N174   H259    1.029   1_455 S
O184   C195    1.380   .     S
O184   H578    0.992   .     S
C185   O222    1.291   .     A
C185   O223    1.285   .     A
C185   C187    1.427   .     S
C186   C188    1.475   .     S
C186   C199    1.419   .     A
C186   C194    1.402   .     A
C187   C327    1.328   .     S
C187   H347    1.088   .     S
C188   O224    1.303   .     A
C188   O225    1.296   .     A
C189   C190    1.427   .     S
C190   O227    1.291   .     A
C190   O226    1.285   .     A
C191   O228    1.294   .     A
C191   O229    1.300   .     A
C191   C193    1.465   .     S
C192   C205    1.390   .     A
C192   H215    1.084   .     S
C192   C615    1.402   1_554 S
C193   C204    1.407   .     A
C193   C205    1.398   .     A
C194   H216    1.084   .     S
C194   C195    1.391   .     A
C195   C611    1.404   .     S
C196   C199    1.416   .     A
C196   C611    1.415   .     S
C196   C614    1.428   .     S
C197   H217    1.079   .     S
C197   C610    1.415   1_554 S
C197   C609    1.404   1_554 S
C198   N221    1.158   .     T
C198   C204    1.452   .     S
C199   C203    1.411   .     A
C200   C204    1.417   .     A
C200   C610    1.428   1_554 S
C200   C615    1.422   1_554 S
C201   C202    1.393   .     A
C201   C614    1.422   .     S
C201   C606    1.402   .     S
C202   H214    1.084   .     S
C202   C203    1.387   .     A
C203   H218    1.081   .     S
C205   H208    1.083   .     S
Cu206  N220    2.019   .     S
Cu206  O224    1.937   .     S
Cu206  O226    1.951   .     S
Cu206  O222    1.956   .     S
Cu206  Cu207   2.687   .     S
Cu206  O228    1.916   .     S
Cu207  O225    1.916   .     S
Cu207  O229    1.937   .     S
Cu207  N219    2.019   .     S
Cu207  O223    1.951   .     S
Cu207  O227    1.956   .     S
H210   O644    0.992   1_554 S
H211   C327    1.088   .     S
H213   N266    1.029   .     S
N219   H258    1.029   .     S
N219   N266    1.285   .     S
O230   C241    1.380   .     S
O230   H624    0.992   .     S
C231   O268    1.291   .     A
C231   O269    1.285   .     A
C231   C233    1.427   .     S
C232   C234    1.475   .     S
C232   C245    1.419   .     A
C232   C240    1.402   .     A
C233   C373    1.328   .     S
C233   H393    1.088   .     S
C234   O270    1.303   .     A
C234   O271    1.296   .     A
C235   C236    1.427   .     S
C236   O273    1.291   .     A
C236   O272    1.285   .     A
C237   O274    1.294   .     A
C237   O275    1.300   .     A
C237   C239    1.465   .     S
C238   C251    1.390   .     A
C238   H261    1.084   .     S
C238   C661    1.402   1_554 S
C239   C250    1.407   .     A
C239   C251    1.398   .     A
C240   H262    1.084   .     S
C240   C241    1.391   .     A
C241   C657    1.404   .     S
C242   C245    1.416   .     A
C242   C657    1.415   .     S
C242   C660    1.428   .     S
C243   H263    1.079   .     S
C243   C656    1.415   1_554 S
C243   C655    1.404   1_554 S
C244   N267    1.158   .     T
C244   C250    1.452   .     S
C245   C249    1.411   .     A
C246   C250    1.417   .     A
C246   C656    1.428   1_554 S
C246   C661    1.422   1_554 S
C247   C248    1.393   .     A
C247   C660    1.422   .     S
C247   C652    1.402   .     S
C248   H260    1.084   .     S
C248   C249    1.387   .     A
C249   H264    1.081   .     S
C251   H254    1.083   .     S
Cu252  N266    2.019   .     S
Cu252  O270    1.937   .     S
Cu252  O272    1.951   .     S
Cu252  O268    1.956   .     S
Cu252  Cu253   2.687   .     S
Cu252  O274    1.916   .     S
Cu253  O271    1.916   .     S
Cu253  O275    1.937   .     S
Cu253  N265    2.019   .     S
Cu253  O269    1.951   .     S
Cu253  O273    1.956   .     S
H256   O690    0.992   1_554 S
H257   C373    1.088   .     S
H259   N174    1.029   1_655 S
N265   H166    1.029   1_655 S
N265   N174    1.285   1_655 S
O276   C149    1.380   1_655 S
O276   H670    0.992   .     S
C277   O314    1.291   .     A
C277   O315    1.285   .     A
C277   C279    1.427   .     S
C278   C280    1.475   .     S
C278   C291    1.419   .     A
C278   C286    1.402   .     A
C279   C5      1.328   1_565 S
C279   H25     1.088   1_565 S
C280   O316    1.303   .     A
C280   O317    1.296   .     A
C281   C282    1.427   .     S
C282   O319    1.291   .     A
C282   O318    1.285   .     A
C283   O320    1.294   .     A
C283   O321    1.300   .     A
C283   C285    1.465   .     S
C284   C297    1.390   .     A
C284   H307    1.084   .     S
C284   C707    1.402   1_554 S
C285   C296    1.407   .     A
C285   C297    1.398   .     A
C286   H308    1.084   .     S
C286   C287    1.391   .     A
C287   C703    1.404   .     S
C287   O414    1.380   1_455 S
C288   C291    1.416   .     A
C288   C703    1.415   .     S
C288   C706    1.428   .     S
C289   H309    1.079   .     S
C289   C702    1.415   1_554 S
C289   C701    1.404   1_554 S
C290   N313    1.158   .     T
C290   C296    1.452   .     S
C291   C295    1.411   .     A
C292   C296    1.417   .     A
C292   C702    1.428   1_554 S
C292   C707    1.422   1_554 S
C293   C294    1.393   .     A
C293   C706    1.422   .     S
C293   C698    1.402   .     S
C294   H306    1.084   .     S
C294   C295    1.387   .     A
C295   H310    1.081   .     S
C297   H300    1.083   .     S
Cu298  N312    2.019   .     S
Cu298  O316    1.937   .     S
Cu298  O318    1.951   .     S
Cu298  O314    1.956   .     S
Cu298  Cu299   2.687   .     S
Cu298  O320    1.916   .     S
Cu299  O317    1.916   .     S
Cu299  O321    1.937   .     S
Cu299  N311    2.019   .     S
Cu299  O315    1.951   .     S
Cu299  O319    1.956   .     S
H302   O736    0.992   1_554 S
H303   C5      1.088   1_565 S
H304   N403    1.029   1_455 S
H305   N358    1.029   .     S
N311   H350    1.029   .     S
N311   N358    1.285   .     S
N312   N403    1.285   1_455 S
N312   H397    1.029   1_455 S
O322   C333    1.380   .     S
O322   H716    0.992   .     S
C323   O360    1.291   .     A
C323   O361    1.285   .     A
C323   C325    1.427   .     S
C324   C326    1.475   .     S
C324   C337    1.419   .     A
C324   C332    1.402   .     A
C325   C51     1.328   1_565 S
C325   H71     1.088   1_565 S
C326   O362    1.303   .     A
C326   O363    1.296   .     A
C327   C328    1.427   .     S
C328   O365    1.291   .     A
C328   O364    1.285   .     A
C329   O366    1.294   .     A
C329   O367    1.300   .     A
C329   C331    1.465   .     S
C330   C343    1.390   .     A
C330   H353    1.084   .     S
C330   C753    1.402   1_554 S
C331   C342    1.407   .     A
C331   C343    1.398   .     A
C332   H354    1.084   .     S
C332   C333    1.391   .     A
C333   C749    1.404   .     S
C334   C337    1.416   .     A
C334   C749    1.415   .     S
C334   C752    1.428   .     S
C335   H355    1.079   .     S
C335   C748    1.415   1_554 S
C335   C747    1.404   1_554 S
C336   N359    1.158   .     T
C336   C342    1.452   .     S
C337   C341    1.411   .     A
C338   C342    1.417   .     A
C338   C748    1.428   1_554 S
C338   C753    1.422   1_554 S
C339   C340    1.393   .     A
C339   C752    1.422   .     S
C339   C744    1.402   .     S
C340   H352    1.084   .     S
C340   C341    1.387   .     A
C341   H356    1.081   .     S
C343   H346    1.083   .     S
Cu344  N358    2.019   .     S
Cu344  O362    1.937   .     S
Cu344  O364    1.951   .     S
Cu344  O360    1.956   .     S
Cu344  Cu345   2.687   .     S
Cu344  O366    1.916   .     S
Cu345  O363    1.916   .     S
Cu345  O367    1.937   .     S
Cu345  N357    2.019   .     S
Cu345  O361    1.951   .     S
Cu345  O365    1.956   .     S
H348   O782    0.992   1_554 S
H349   C51     1.088   1_565 S
H351   N404    1.029   .     S
N357   H396    1.029   .     S
N357   N404    1.285   .     S
O368   C379    1.380   .     S
O368   H762    0.992   .     S
C369   O406    1.291   .     A
C369   O407    1.285   .     A
C369   C371    1.427   .     S
C370   C372    1.475   .     S
C370   C383    1.419   .     A
C370   C378    1.402   .     A
C371   C97     1.328   1_565 S
C371   H117    1.088   1_565 S
C372   O408    1.303   .     A
C372   O409    1.296   .     A
C373   C374    1.427   .     S
C374   O411    1.291   .     A
C374   O410    1.285   .     A
C375   O412    1.294   .     A
C375   O413    1.300   .     A
C375   C377    1.465   .     S
C376   C389    1.390   .     A
C376   H399    1.084   .     S
C376   C799    1.402   1_554 S
C377   C388    1.407   .     A
C377   C389    1.398   .     A
C378   H400    1.084   .     S
C378   C379    1.391   .     A
C379   C795    1.404   .     S
C380   C383    1.416   .     A
C380   C795    1.415   .     S
C380   C798    1.428   .     S
C381   H401    1.079   .     S
C381   C794    1.415   1_554 S
C381   C793    1.404   1_554 S
C382   N405    1.158   .     T
C382   C388    1.452   .     S
C383   C387    1.411   .     A
C384   C388    1.417   .     A
C384   C794    1.428   1_554 S
C384   C799    1.422   1_554 S
C385   C386    1.393   .     A
C385   C798    1.422   .     S
C385   C790    1.402   .     S
C386   H398    1.084   .     S
C386   C387    1.387   .     A
C387   H402    1.081   .     S
C389   H392    1.083   .     S
Cu390  N404    2.019   .     S
Cu390  O408    1.937   .     S
Cu390  O410    1.951   .     S
Cu390  O406    1.956   .     S
Cu390  Cu391   2.687   .     S
Cu390  O412    1.916   .     S
Cu391  O409    1.916   .     S
Cu391  O413    1.937   .     S
Cu391  N403    2.019   .     S
Cu391  O407    1.951   .     S
Cu391  O411    1.956   .     S
H394   O828    0.992   1_554 S
H395   C97     1.088   1_565 S
H397   N312    1.029   1_655 S
N403   H304    1.029   1_655 S
N403   N312    1.285   1_655 S
O414   C287    1.380   1_655 S
O414   H808    0.992   .     S
C415   O452    1.291   .     A
C415   O453    1.285   .     A
C415   C417    1.427   .     S
C416   C418    1.475   .     S
C416   C429    1.419   .     A
C416   C424    1.402   .     A
C417   C557    1.328   .     S
C417   H577    1.088   .     S
C418   O454    1.303   .     A
C418   O455    1.296   .     A
C419   C420    1.427   .     S
C419   C693    1.328   1_545 S
C419   H717    1.088   1_545 S
C420   O457    1.291   .     A
C420   O456    1.285   .     A
C421   O458    1.294   .     A
C421   O459    1.300   .     A
C421   C423    1.465   .     S
C422   C435    1.390   .     A
C422   H445    1.084   .     S
C423   C434    1.407   .     A
C423   C435    1.398   .     A
C424   H446    1.084   .     S
C424   C425    1.391   .     A
C425   C13     1.404   1_556 S
C425   O552    1.380   1_455 S
C426   C429    1.416   .     A
C426   C13     1.415   1_556 S
C426   C16     1.428   1_556 S
C427   H447    1.079   .     S
C428   N451    1.158   .     T
C428   C434    1.452   .     S
C429   C433    1.411   .     A
C430   C434    1.417   .     A
C431   C432    1.393   .     A
C431   C16     1.422   1_556 S
C431   C8      1.402   1_556 S
C432   H444    1.084   .     S
C432   C433    1.387   .     A
C433   H448    1.081   .     S
C435   H438    1.083   .     S
Cu436  N450    2.019   .     S
Cu436  O454    1.937   .     S
Cu436  O456    1.951   .     S
Cu436  O452    1.956   .     S
Cu436  Cu437   2.687   .     S
Cu436  O458    1.916   .     S
Cu437  O455    1.916   .     S
Cu437  O459    1.937   .     S
Cu437  N449    2.019   .     S
Cu437  O453    1.951   .     S
Cu437  O457    1.956   .     S
H439   C693    1.088   1_545 S
H441   C557    1.088   .     S
H442   N541    1.029   1_455 S
H443   N496    1.029   .     S
N449   H488    1.029   .     S
N449   N496    1.285   .     S
N450   N541    1.285   1_455 S
N450   H535    1.029   1_455 S
O460   C471    1.380   .     S
O460   H26     0.992   1_556 S
C461   O498    1.291   .     A
C461   O499    1.285   .     A
C461   C463    1.427   .     S
C462   C464    1.475   .     S
C462   C475    1.419   .     A
C462   C470    1.402   .     A
C463   C603    1.328   .     S
C463   H623    1.088   .     S
C464   O500    1.303   .     A
C464   O501    1.296   .     A
C465   C466    1.427   .     S
C465   C739    1.328   1_545 S
C465   H763    1.088   1_545 S
C466   O503    1.291   .     A
C466   O502    1.285   .     A
C467   O504    1.294   .     A
C467   O505    1.300   .     A
C467   C469    1.465   .     S
C468   C481    1.390   .     A
C468   H491    1.084   .     S
C469   C480    1.407   .     A
C469   C481    1.398   .     A
C470   H492    1.084   .     S
C470   C471    1.391   .     A
C471   C59     1.404   1_556 S
C472   C475    1.416   .     A
C472   C59     1.415   1_556 S
C472   C62     1.428   1_556 S
C473   H493    1.079   .     S
C474   N497    1.158   .     T
C474   C480    1.452   .     S
C475   C479    1.411   .     A
C476   C480    1.417   .     A
C477   C478    1.393   .     A
C477   C62     1.422   1_556 S
C477   C54     1.402   1_556 S
C478   H490    1.084   .     S
C478   C479    1.387   .     A
C479   H494    1.081   .     S
C481   H484    1.083   .     S
Cu482  N496    2.019   .     S
Cu482  O500    1.937   .     S
Cu482  O502    1.951   .     S
Cu482  O498    1.956   .     S
Cu482  Cu483   2.687   .     S
Cu482  O504    1.916   .     S
Cu483  O501    1.916   .     S
Cu483  O505    1.937   .     S
Cu483  N495    2.019   .     S
Cu483  O499    1.951   .     S
Cu483  O503    1.956   .     S
H485   C739    1.088   1_545 S
H487   C603    1.088   .     S
H489   N542    1.029   .     S
N495   H534    1.029   .     S
N495   N542    1.285   .     S
O506   C517    1.380   .     S
O506   H72     0.992   1_556 S
C507   O544    1.291   .     A
C507   O545    1.285   .     A
C507   C509    1.427   .     S
C508   C510    1.475   .     S
C508   C521    1.419   .     A
C508   C516    1.402   .     A
C509   C649    1.328   .     S
C509   H669    1.088   .     S
C510   O546    1.303   .     A
C510   O547    1.296   .     A
C511   C512    1.427   .     S
C511   C785    1.328   1_545 S
C511   H809    1.088   1_545 S
C512   O549    1.291   .     A
C512   O548    1.285   .     A
C513   O550    1.294   .     A
C513   O551    1.300   .     A
C513   C515    1.465   .     S
C514   C527    1.390   .     A
C514   H537    1.084   .     S
C515   C526    1.407   .     A
C515   C527    1.398   .     A
C516   H538    1.084   .     S
C516   C517    1.391   .     A
C517   C105    1.404   1_556 S
C518   C521    1.416   .     A
C518   C105    1.415   1_556 S
C518   C108    1.428   1_556 S
C519   H539    1.079   .     S
C520   N543    1.158   .     T
C520   C526    1.452   .     S
C521   C525    1.411   .     A
C522   C526    1.417   .     A
C523   C524    1.393   .     A
C523   C108    1.422   1_556 S
C523   C100    1.402   1_556 S
C524   H536    1.084   .     S
C524   C525    1.387   .     A
C525   H540    1.081   .     S
C527   H530    1.083   .     S
Cu528  N542    2.019   .     S
Cu528  O546    1.937   .     S
Cu528  O548    1.951   .     S
Cu528  O544    1.956   .     S
Cu528  Cu529   2.687   .     S
Cu528  O550    1.916   .     S
Cu529  O547    1.916   .     S
Cu529  O551    1.937   .     S
Cu529  N541    2.019   .     S
Cu529  O545    1.951   .     S
Cu529  O549    1.956   .     S
H531   C785    1.088   1_545 S
H533   C649    1.088   .     S
H535   N450    1.029   1_655 S
N541   H442    1.029   1_655 S
N541   N450    1.285   1_655 S
O552   C425    1.380   1_655 S
O552   H118    0.992   1_556 S
C553   O590    1.291   .     A
C553   O591    1.285   .     A
C553   C555    1.427   .     S
C554   C556    1.475   .     S
C554   C567    1.419   .     A
C554   C562    1.402   .     A
C555   C695    1.328   .     S
C555   H715    1.088   .     S
C556   O592    1.303   .     A
C556   O593    1.296   .     A
C557   C558    1.427   .     S
C558   O595    1.291   .     A
C558   O594    1.285   .     A
C559   O596    1.294   .     A
C559   O597    1.300   .     A
C559   C561    1.465   .     S
C560   C573    1.390   .     A
C560   H583    1.084   .     S
C561   C572    1.407   .     A
C561   C573    1.398   .     A
C562   H584    1.084   .     S
C562   C563    1.391   .     A
C563   C151    1.404   1_556 S
C563   O690    1.380   1_455 S
C564   C567    1.416   .     A
C564   C151    1.415   1_556 S
C564   C154    1.428   1_556 S
C565   H585    1.079   .     S
C566   N589    1.158   .     T
C566   C572    1.452   .     S
C567   C571    1.411   .     A
C568   C572    1.417   .     A
C569   C570    1.393   .     A
C569   C154    1.422   1_556 S
C569   C146    1.402   1_556 S
C570   H582    1.084   .     S
C570   C571    1.387   .     A
C571   H586    1.081   .     S
C573   H576    1.083   .     S
Cu574  N588    2.019   .     S
Cu574  O592    1.937   .     S
Cu574  O594    1.951   .     S
Cu574  O590    1.956   .     S
Cu574  Cu575   2.687   .     S
Cu574  O596    1.916   .     S
Cu575  O593    1.916   .     S
Cu575  O597    1.937   .     S
Cu575  N587    2.019   .     S
Cu575  O591    1.951   .     S
Cu575  O595    1.956   .     S
H579   C695    1.088   .     S
H580   N679    1.029   1_455 S
H581   N634    1.029   .     S
N587   H626    1.029   .     S
N587   N634    1.285   .     S
N588   N679    1.285   1_455 S
N588   H673    1.029   1_455 S
O598   C609    1.380   .     S
O598   H164    0.992   1_556 S
C599   O636    1.291   .     A
C599   O637    1.285   .     A
C599   C601    1.427   .     S
C600   C602    1.475   .     S
C600   C613    1.419   .     A
C600   C608    1.402   .     A
C601   C741    1.328   .     S
C601   H761    1.088   .     S
C602   O638    1.303   .     A
C602   O639    1.296   .     A
C603   C604    1.427   .     S
C604   O641    1.291   .     A
C604   O640    1.285   .     A
C605   O642    1.294   .     A
C605   O643    1.300   .     A
C605   C607    1.465   .     S
C606   C619    1.390   .     A
C606   H629    1.084   .     S
C607   C618    1.407   .     A
C607   C619    1.398   .     A
C608   H630    1.084   .     S
C608   C609    1.391   .     A
C609   C197    1.404   1_556 S
C610   C613    1.416   .     A
C610   C197    1.415   1_556 S
C610   C200    1.428   1_556 S
C611   H631    1.079   .     S
C612   N635    1.158   .     T
C612   C618    1.452   .     S
C613   C617    1.411   .     A
C614   C618    1.417   .     A
C615   C616    1.393   .     A
C615   C200    1.422   1_556 S
C615   C192    1.402   1_556 S
C616   H628    1.084   .     S
C616   C617    1.387   .     A
C617   H632    1.081   .     S
C619   H622    1.083   .     S
Cu620  N634    2.019   .     S
Cu620  O638    1.937   .     S
Cu620  O640    1.951   .     S
Cu620  O636    1.956   .     S
Cu620  Cu621   2.687   .     S
Cu620  O642    1.916   .     S
Cu621  O639    1.916   .     S
Cu621  O643    1.937   .     S
Cu621  N633    2.019   .     S
Cu621  O637    1.951   .     S
Cu621  O641    1.956   .     S
H625   C741    1.088   .     S
H627   N680    1.029   .     S
N633   H672    1.029   .     S
N633   N680    1.285   .     S
O644   C655    1.380   .     S
O644   H210    0.992   1_556 S
C645   O682    1.291   .     A
C645   O683    1.285   .     A
C645   C647    1.427   .     S
C646   C648    1.475   .     S
C646   C659    1.419   .     A
C646   C654    1.402   .     A
C647   C787    1.328   .     S
C647   H807    1.088   .     S
C648   O684    1.303   .     A
C648   O685    1.296   .     A
C649   C650    1.427   .     S
C650   O687    1.291   .     A
C650   O686    1.285   .     A
C651   O688    1.294   .     A
C651   O689    1.300   .     A
C651   C653    1.465   .     S
C652   C665    1.390   .     A
C652   H675    1.084   .     S
C653   C664    1.407   .     A
C653   C665    1.398   .     A
C654   H676    1.084   .     S
C654   C655    1.391   .     A
C655   C243    1.404   1_556 S
C656   C659    1.416   .     A
C656   C243    1.415   1_556 S
C656   C246    1.428   1_556 S
C657   H677    1.079   .     S
C658   N681    1.158   .     T
C658   C664    1.452   .     S
C659   C663    1.411   .     A
C660   C664    1.417   .     A
C661   C662    1.393   .     A
C661   C246    1.422   1_556 S
C661   C238    1.402   1_556 S
C662   H674    1.084   .     S
C662   C663    1.387   .     A
C663   H678    1.081   .     S
C665   H668    1.083   .     S
Cu666  N680    2.019   .     S
Cu666  O684    1.937   .     S
Cu666  O686    1.951   .     S
Cu666  O682    1.956   .     S
Cu666  Cu667   2.687   .     S
Cu666  O688    1.916   .     S
Cu667  O685    1.916   .     S
Cu667  O689    1.937   .     S
Cu667  N679    2.019   .     S
Cu667  O683    1.951   .     S
Cu667  O687    1.956   .     S
H671   C787    1.088   .     S
H673   N588    1.029   1_655 S
N679   H580    1.029   1_655 S
N679   N588    1.285   1_655 S
O690   C563    1.380   1_655 S
O690   H256    0.992   1_556 S
C691   O728    1.291   .     A
C691   O729    1.285   .     A
C691   C693    1.427   .     S
C692   C694    1.475   .     S
C692   C705    1.419   .     A
C692   C700    1.402   .     A
C693   C419    1.328   1_565 S
C693   H439    1.088   1_565 S
C694   O730    1.303   .     A
C694   O731    1.296   .     A
C695   C696    1.427   .     S
C696   O733    1.291   .     A
C696   O732    1.285   .     A
C697   O734    1.294   .     A
C697   O735    1.300   .     A
C697   C699    1.465   .     S
C698   C711    1.390   .     A
C698   H721    1.084   .     S
C699   C710    1.407   .     A
C699   C711    1.398   .     A
C700   H722    1.084   .     S
C700   C701    1.391   .     A
C701   C289    1.404   1_556 S
C701   O828    1.380   1_455 S
C702   C705    1.416   .     A
C702   C289    1.415   1_556 S
C702   C292    1.428   1_556 S
C703   H723    1.079   .     S
C704   N727    1.158   .     T
C704   C710    1.452   .     S
C705   C709    1.411   .     A
C706   C710    1.417   .     A
C707   C708    1.393   .     A
C707   C292    1.422   1_556 S
C707   C284    1.402   1_556 S
C708   H720    1.084   .     S
C708   C709    1.387   .     A
C709   H724    1.081   .     S
C711   H714    1.083   .     S
Cu712  N726    2.019   .     S
Cu712  O730    1.937   .     S
Cu712  O732    1.951   .     S
Cu712  O728    1.956   .     S
Cu712  Cu713   2.687   .     S
Cu712  O734    1.916   .     S
Cu713  O731    1.916   .     S
Cu713  O735    1.937   .     S
Cu713  N725    2.019   .     S
Cu713  O729    1.951   .     S
Cu713  O733    1.956   .     S
H717   C419    1.088   1_565 S
H718   N817    1.029   1_455 S
H719   N772    1.029   .     S
N725   H764    1.029   .     S
N725   N772    1.285   .     S
N726   N817    1.285   1_455 S
N726   H811    1.029   1_455 S
O736   C747    1.380   .     S
O736   H302    0.992   1_556 S
C737   O774    1.291   .     A
C737   O775    1.285   .     A
C737   C739    1.427   .     S
C738   C740    1.475   .     S
C738   C751    1.419   .     A
C738   C746    1.402   .     A
C739   C465    1.328   1_565 S
C739   H485    1.088   1_565 S
C740   O776    1.303   .     A
C740   O777    1.296   .     A
C741   C742    1.427   .     S
C742   O779    1.291   .     A
C742   O778    1.285   .     A
C743   O780    1.294   .     A
C743   O781    1.300   .     A
C743   C745    1.465   .     S
C744   C757    1.390   .     A
C744   H767    1.084   .     S
C745   C756    1.407   .     A
C745   C757    1.398   .     A
C746   H768    1.084   .     S
C746   C747    1.391   .     A
C747   C335    1.404   1_556 S
C748   C751    1.416   .     A
C748   C335    1.415   1_556 S
C748   C338    1.428   1_556 S
C749   H769    1.079   .     S
C750   N773    1.158   .     T
C750   C756    1.452   .     S
C751   C755    1.411   .     A
C752   C756    1.417   .     A
C753   C754    1.393   .     A
C753   C338    1.422   1_556 S
C753   C330    1.402   1_556 S
C754   H766    1.084   .     S
C754   C755    1.387   .     A
C755   H770    1.081   .     S
C757   H760    1.083   .     S
Cu758  N772    2.019   .     S
Cu758  O776    1.937   .     S
Cu758  O778    1.951   .     S
Cu758  O774    1.956   .     S
Cu758  Cu759   2.687   .     S
Cu758  O780    1.916   .     S
Cu759  O777    1.916   .     S
Cu759  O781    1.937   .     S
Cu759  N771    2.019   .     S
Cu759  O775    1.951   .     S
Cu759  O779    1.956   .     S
H763   C465    1.088   1_565 S
H765   N818    1.029   .     S
N771   H810    1.029   .     S
N771   N818    1.285   .     S
O782   C793    1.380   .     S
O782   H348    0.992   1_556 S
C783   O820    1.291   .     A
C783   O821    1.285   .     A
C783   C785    1.427   .     S
C784   C786    1.475   .     S
C784   C797    1.419   .     A
C784   C792    1.402   .     A
C785   C511    1.328   1_565 S
C785   H531    1.088   1_565 S
C786   O822    1.303   .     A
C786   O823    1.296   .     A
C787   C788    1.427   .     S
C788   O825    1.291   .     A
C788   O824    1.285   .     A
C789   O826    1.294   .     A
C789   O827    1.300   .     A
C789   C791    1.465   .     S
C790   C803    1.390   .     A
C790   H813    1.084   .     S
C791   C802    1.407   .     A
C791   C803    1.398   .     A
C792   H814    1.084   .     S
C792   C793    1.391   .     A
C793   C381    1.404   1_556 S
C794   C797    1.416   .     A
C794   C381    1.415   1_556 S
C794   C384    1.428   1_556 S
C795   H815    1.079   .     S
C796   N819    1.158   .     T
C796   C802    1.452   .     S
C797   C801    1.411   .     A
C798   C802    1.417   .     A
C799   C800    1.393   .     A
C799   C384    1.422   1_556 S
C799   C376    1.402   1_556 S
C800   H812    1.084   .     S
C800   C801    1.387   .     A
C801   H816    1.081   .     S
C803   H806    1.083   .     S
Cu804  N818    2.019   .     S
Cu804  O822    1.937   .     S
Cu804  O824    1.951   .     S
Cu804  O820    1.956   .     S
Cu804  Cu805   2.687   .     S
Cu804  O826    1.916   .     S
Cu805  O823    1.916   .     S
Cu805  O827    1.937   .     S
Cu805  N817    2.019   .     S
Cu805  O821    1.951   .     S
Cu805  O825    1.956   .     S
H809   C511    1.088   1_565 S
H811   N726    1.029   1_655 S
N817   H718    1.029   1_655 S
N817   N726    1.285   1_655 S
O828   C701    1.380   1_655 S
O828   H394    0.992   1_556 S
