data_str_m2_o1_o1_pcu_sym.4
_audit_creation_date              2020-01-03
_audit_creation_method            'Materials Studio'
_symmetry_space_group_name_H-M    'P1'
_symmetry_Int_Tables_number       1
_symmetry_cell_setting            triclinic
loop_
_symmetry_equiv_pos_as_xyz
  x,y,z
_cell_length_a                    32.6042
_cell_length_b                    29.5550
_cell_length_c                    28.8436
_cell_angle_alpha                 90.5644
_cell_angle_beta                  89.7718
_cell_angle_gamma                 90.1595
loop_
_atom_site_label
_atom_site_type_symbol
_atom_site_fract_x
_atom_site_fract_y
_atom_site_fract_z
_atom_site_U_iso_or_equiv
_atom_site_adp_type
_atom_site_occupancy
C1     C     0.05942   0.19061   0.16662   0.00000  Uiso   1.00
C2     C     0.00201   0.28962   0.30947   0.00000  Uiso   1.00
C3     C     0.00283   0.28965   0.02490   0.00000  Uiso   1.00
C4     C     0.00012   0.21021   0.30855   0.00000  Uiso   1.00
C5     C     0.25032   0.46034   0.02383   0.00000  Uiso   1.00
C6     C     0.24983   0.03971   0.30937   0.00000  Uiso   1.00
C7     C     0.25156   0.03967   0.02472   0.00000  Uiso   1.00
C8     C     0.25173   0.46030   0.30844   0.00000  Uiso   1.00
C9     C     0.38706   0.14454   0.12351   0.00000  Uiso   1.00
C10    C     0.09842   0.37116   0.20608   0.00000  Uiso   1.00
C11    C     0.11039   0.35674   0.12410   0.00000  Uiso   1.00
C12    C     0.44075   0.30971   0.16696   0.00000  Uiso   1.00
C13    C     0.38086   0.15132   0.20780   0.00000  Uiso   1.00
C14    C     0.10561   0.13745   0.20904   0.00000  Uiso   1.00
C15    C     0.38791   0.35485   0.12537   0.00000  Uiso   1.00
C16    C     0.39189   0.36231   0.20962   0.00000  Uiso   1.00
C17    C     0.11509   0.14746   0.12599   0.00000  Uiso   1.00
C18    C     0.13897   0.39191   0.12370   0.00000  Uiso   1.00
C19    C     0.34632   0.12322   0.20562   0.00000  Uiso   1.00
C20    C     0.35882   0.10898   0.12373   0.00000  Uiso   1.00
C21    C     0.13363   0.39800   0.20821   0.00000  Uiso   1.00
C22    C     0.36260   0.39663   0.20850   0.00000  Uiso   1.00
C23    C     0.43908   0.19222   0.16662   0.00000  Uiso   1.00
C24    C     0.15013   0.12068   0.12776   0.00000  Uiso   1.00
C25    C     0.13514   0.10327   0.20860   0.00000  Uiso   1.00
C26    C     0.35282   0.38159   0.12605   0.00000  Uiso   1.00
C27    C     0.08969   0.34622   0.16566   0.00000  Uiso   1.00
C28    C     0.40230   0.16236   0.16618   0.00000  Uiso   1.00
C29    C     0.40693   0.34300   0.16749   0.00000  Uiso   1.00
C30    C     0.09347   0.15780   0.16705   0.00000  Uiso   1.00
C31    C     0.33869   0.09747   0.16543   0.00000  Uiso   1.00
C32    C     0.15411   0.41009   0.16633   0.00000  Uiso   1.00
C33    C     0.15867   0.09499   0.16782   0.00000  Uiso   1.00
C34    C     0.05821   0.31062   0.16654   0.00000  Uiso   1.00
C35    C     0.34187   0.40596   0.16669   0.00000  Uiso   1.00
C36    C     0.38053   0.20348   0.06572   0.00000  Uiso   1.00
C37    C     0.04264   0.41264   0.23982   0.00000  Uiso   1.00
C38    C     0.12823   0.29405   0.07367   0.00000  Uiso   1.00
C39    C     0.41369   0.13765   0.28131   0.00000  Uiso   1.00
C40    C     0.11284   0.18705   0.27518   0.00000  Uiso   1.00
C41    C     0.42070   0.37329   0.05272   0.00000  Uiso   1.00
C42    C     0.38584   0.30987   0.27348   0.00000  Uiso   1.00
C43    C     0.08523   0.12995   0.05195   0.00000  Uiso   1.00
C44    C     0.13371   0.44742   0.06213   0.00000  Uiso   1.00
C45    C     0.30877   0.43987   0.16650   0.00000  Uiso   1.00
C46    C     0.28741   0.16230   0.23529   0.00000  Uiso   1.00
C47    C     0.37659   0.04842   0.07063   0.00000  Uiso   1.00
C48    C     0.16902   0.37884   0.27899   0.00000  Uiso   1.00
C49    C     0.37922   0.46110   0.25706   0.00000  Uiso   1.00
C50    C     0.21025   0.15655   0.09515   0.00000  Uiso   1.00
C51    C     0.11942   0.03601   0.25279   0.00000  Uiso   1.00
C52    C     0.29661   0.34450   0.08650   0.00000  Uiso   1.00
C53    C     0.19135   0.06038   0.16696   0.00000  Uiso   1.00
C54    C     0.18977   0.44135   0.16662   0.00000  Uiso   1.00
C55    C     0.30801   0.06089   0.16649   0.00000  Uiso   1.00
C56    C     0.49927   0.21022   0.02401   0.00000  Uiso   1.00
Cu57   Cu    0.00000   0.25000   0.21355   0.00000  Uiso   1.00
Cu58   Cu    0.00000   0.25000   0.11978   0.00000  Uiso   1.00
Cu59   Cu    0.25000  -0.00000   0.21355   0.00000  Uiso   1.00
Cu60   Cu    0.25000  -0.00000   0.11978   0.00000  Uiso   1.00
H61    H     0.00061   0.17176   0.07788   0.00000  Uiso   1.00
H62    H     0.39139   0.21275   0.03054   0.00000  Uiso   1.00
H63    H     0.38860   0.23124   0.09025   0.00000  Uiso   1.00
H64    H     0.34664   0.19966   0.06479   0.00000  Uiso   1.00
H65    H     0.08152   0.37025   0.27563   0.00000  Uiso   1.00
H66    H     0.02088   0.41330   0.26948   0.00000  Uiso   1.00
H67    H     0.02469   0.41099   0.20716   0.00000  Uiso   1.00
H68    H     0.06086   0.44449   0.24087   0.00000  Uiso   1.00
H69    H     0.09862   0.35258   0.05308   0.00000  Uiso   1.00
H70    H     0.11759   0.27542   0.04231   0.00000  Uiso   1.00
H71    H     0.12697   0.27061   0.10355   0.00000  Uiso   1.00
H72    H     0.00038   0.32755   0.25589   0.00000  Uiso   1.00
H73    H     0.16039   0.30532   0.06802   0.00000  Uiso   1.00
H74    H     0.39953   0.20255   0.25518   0.00000  Uiso   1.00
H75    H     0.42362   0.15501   0.31360   0.00000  Uiso   1.00
H76    H     0.44080   0.12396   0.26259   0.00000  Uiso   1.00
H77    H     0.39381   0.10871   0.29101   0.00000  Uiso   1.00
H78    H     0.08045   0.12628   0.27437   0.00000  Uiso   1.00
H79    H     0.09489   0.20196   0.30427   0.00000  Uiso   1.00
H80    H     0.12022   0.21474   0.25068   0.00000  Uiso   1.00
H81    H     0.14176   0.17270   0.28895   0.00000  Uiso   1.00
H82    H     0.38230   0.31827   0.06403   0.00000  Uiso   1.00
H83    H     0.49989   0.32904   0.07868   0.00000  Uiso   1.00
H84    H     0.43435   0.35748   0.02130   0.00000  Uiso   1.00
H85    H     0.44520   0.39175   0.07183   0.00000  Uiso   1.00
H86    H     0.39704   0.39772   0.04139   0.00000  Uiso   1.00
H87    H     0.43667   0.35314   0.26024   0.00000  Uiso   1.00
H88    H     0.40048   0.30082   0.30678   0.00000  Uiso   1.00
H89    H     0.38790   0.28051   0.24939   0.00000  Uiso   1.00
H90    H     0.35299   0.31743   0.28013   0.00000  Uiso   1.00
H91    H     0.12384   0.18427   0.06604   0.00000  Uiso   1.00
H92    H     0.07156   0.14610   0.02132   0.00000  Uiso   1.00
H93    H     0.06080   0.11062   0.07012   0.00000  Uiso   1.00
H94    H     0.49998   0.17145   0.25412   0.00000  Uiso   1.00
H95    H     0.10946   0.10627   0.03977   0.00000  Uiso   1.00
H96    H     0.18256   0.40050   0.07105   0.00000  Uiso   1.00
H97    H     0.14595   0.45488   0.02705   0.00000  Uiso   1.00
H98    H     0.14009   0.47677   0.08533   0.00000  Uiso   1.00
H99    H     0.10000   0.44257   0.05953   0.00000  Uiso   1.00
H100   H     0.32762   0.12496   0.27480   0.00000  Uiso   1.00
H101   H     0.26505   0.16313   0.26439   0.00000  Uiso   1.00
H102   H     0.27026   0.15737   0.20240   0.00000  Uiso   1.00
H103   H     0.30370   0.19539   0.23468   0.00000  Uiso   1.00
H104   H     0.34518   0.10677   0.05318   0.00000  Uiso   1.00
H105   H     0.24967   0.42258   0.07752   0.00000  Uiso   1.00
H106   H     0.36548   0.03053   0.03903   0.00000  Uiso   1.00
H107   H     0.37669   0.02398   0.09968   0.00000  Uiso   1.00
H108   H     0.40831   0.06077   0.06423   0.00000  Uiso   1.00
H109   H     0.15391   0.44569   0.25916   0.00000  Uiso   1.00
H110   H     0.17877   0.39329   0.31283   0.00000  Uiso   1.00
H111   H     0.19635   0.36749   0.25904   0.00000  Uiso   1.00
H112   H     0.14944   0.34883   0.28580   0.00000  Uiso   1.00
H113   H     0.35094   0.40224   0.27964   0.00000  Uiso   1.00
H114   H     0.36837   0.48006   0.28817   0.00000  Uiso   1.00
H115   H     0.37720   0.48379   0.22665   0.00000  Uiso   1.00
H116   H     0.24882   0.07781   0.25561   0.00000  Uiso   1.00
H117   H     0.41168   0.45105   0.26241   0.00000  Uiso   1.00
H118   H     0.18291   0.09507   0.07002   0.00000  Uiso   1.00
H119   H     0.22616   0.16144   0.06149   0.00000  Uiso   1.00
H120   H     0.23259   0.14489   0.12141   0.00000  Uiso   1.00
H121   H     0.19755   0.18979   0.10635   0.00000  Uiso   1.00
H122   H     0.16907   0.08076   0.26593   0.00000  Uiso   1.00
H123   H     0.12506   0.02028   0.28696   0.00000  Uiso   1.00
H124   H     0.13015   0.01286   0.22478   0.00000  Uiso   1.00
H125   H     0.08588   0.04130   0.24900   0.00000  Uiso   1.00
H126   H     0.32205   0.40901   0.06847   0.00000  Uiso   1.00
H127   H     0.25196   0.07803   0.07878   0.00000  Uiso   1.00
H128   H     0.28334   0.34043   0.05134   0.00000  Uiso   1.00
H129   H     0.27199   0.35327   0.11172   0.00000  Uiso   1.00
H130   H     0.31027   0.31154   0.09628   0.00000  Uiso   1.00
H131   H     0.24997   0.42128   0.25439   0.00000  Uiso   1.00
H132   H     0.42888   0.15543   0.06939   0.00000  Uiso   1.00
N133   N    -0.00000   0.25000   0.28402   0.00000  Uiso   1.00
N134   N     0.40280   0.33863   0.08171   0.00000  Uiso   1.00
N135   N     0.40601   0.34903   0.25395   0.00000  Uiso   1.00
N136   N     0.10222   0.16440   0.08236   0.00000  Uiso   1.00
N137   N     0.15260   0.40674   0.07954   0.00000  Uiso   1.00
N138   N     0.31629   0.12570   0.24156   0.00000  Uiso   1.00
N139   N     0.34972   0.08601   0.08122   0.00000  Uiso   1.00
N140   N     0.14657   0.41235   0.25316   0.00000  Uiso   1.00
N141   N     0.35384   0.42141   0.25013   0.00000  Uiso   1.00
N142   N     0.17761   0.12368   0.08964   0.00000  Uiso   1.00
N143   N     0.14076   0.07886   0.25040   0.00000  Uiso   1.00
N144   N     0.00000   0.25000   0.04931   0.00000  Uiso   1.00
N145   N     0.32765   0.37963   0.08608   0.00000  Uiso   1.00
N146   N     0.25000  -0.00000   0.28402   0.00000  Uiso   1.00
N147   N     0.25000  -0.00000   0.04931   0.00000  Uiso   1.00
N148   N     0.39919   0.16132   0.07950   0.00000  Uiso   1.00
N149   N     0.06935   0.37367   0.24295   0.00000  Uiso   1.00
N150   N     0.10198   0.33269   0.08199   0.00000  Uiso   1.00
N151   N     0.39172   0.16894   0.25222   0.00000  Uiso   1.00
N152   N     0.08894   0.15199   0.25241   0.00000  Uiso   1.00
O153   O     0.04508   0.20491   0.20625   0.00000  Uiso   1.00
O154   O     0.20491   0.04509   0.12709   0.00000  Uiso   1.00
O155   O     0.20491   0.04509   0.20625   0.00000  Uiso   1.00
O156   O     0.29508   0.45491   0.12709   0.00000  Uiso   1.00
O157   O     0.20491   0.45491   0.12709   0.00000  Uiso   1.00
O158   O     0.29508   0.04509   0.20625   0.00000  Uiso   1.00
O159   O     0.29508   0.04509   0.12709   0.00000  Uiso   1.00
O160   O     0.20491   0.45491   0.20625   0.00000  Uiso   1.00
O161   O     0.49867   0.16833   0.04431   0.00000  Uiso   1.00
O162   O     0.00400   0.33125   0.28924   0.00000  Uiso   1.00
O163   O     0.00798   0.33116   0.04615   0.00000  Uiso   1.00
O164   O     0.45491   0.29509   0.12709   0.00000  Uiso   1.00
O165   O     0.00287   0.16836   0.28754   0.00000  Uiso   1.00
O166   O     0.24981   0.41863   0.04396   0.00000  Uiso   1.00
O167   O     0.24833   0.08152   0.28919   0.00000  Uiso   1.00
O168   O     0.25653   0.08119   0.04560   0.00000  Uiso   1.00
O169   O     0.25626   0.41870   0.28728   0.00000  Uiso   1.00
O170   O     0.45491   0.29509   0.20625   0.00000  Uiso   1.00
O171   O     0.04508   0.20491   0.12709   0.00000  Uiso   1.00
O172   O     0.45491   0.20491   0.12709   0.00000  Uiso   1.00
O173   O     0.04508   0.29509   0.20625   0.00000  Uiso   1.00
O174   O     0.04508   0.29509   0.12709   0.00000  Uiso   1.00
O175   O     0.45491   0.20491   0.20625   0.00000  Uiso   1.00
O176   O     0.29508   0.45491   0.20625   0.00000  Uiso   1.00
C177   C     0.55942   0.19061   0.16662   0.00000  Uiso   1.00
C178   C     0.50201   0.28962   0.30947   0.00000  Uiso   1.00
C179   C     0.50283   0.28965   0.02490   0.00000  Uiso   1.00
C180   C     0.50012   0.21021   0.30855   0.00000  Uiso   1.00
C181   C     0.75032   0.46034   0.02383   0.00000  Uiso   1.00
C182   C     0.74983   0.03971   0.30937   0.00000  Uiso   1.00
C183   C     0.75156   0.03967   0.02472   0.00000  Uiso   1.00
C184   C     0.75173   0.46030   0.30844   0.00000  Uiso   1.00
C185   C     0.88706   0.14454   0.12351   0.00000  Uiso   1.00
C186   C     0.59842   0.37116   0.20608   0.00000  Uiso   1.00
C187   C     0.61039   0.35674   0.12410   0.00000  Uiso   1.00
C188   C     0.94075   0.30971   0.16696   0.00000  Uiso   1.00
C189   C     0.88086   0.15132   0.20780   0.00000  Uiso   1.00
C190   C     0.60561   0.13745   0.20904   0.00000  Uiso   1.00
C191   C     0.88791   0.35485   0.12537   0.00000  Uiso   1.00
C192   C     0.89189   0.36231   0.20962   0.00000  Uiso   1.00
C193   C     0.61509   0.14746   0.12599   0.00000  Uiso   1.00
C194   C     0.63897   0.39191   0.12370   0.00000  Uiso   1.00
C195   C     0.84632   0.12322   0.20562   0.00000  Uiso   1.00
C196   C     0.85882   0.10898   0.12373   0.00000  Uiso   1.00
C197   C     0.63363   0.39800   0.20821   0.00000  Uiso   1.00
C198   C     0.86260   0.39663   0.20850   0.00000  Uiso   1.00
C199   C     0.93908   0.19222   0.16662   0.00000  Uiso   1.00
C200   C     0.65013   0.12068   0.12776   0.00000  Uiso   1.00
C201   C     0.63514   0.10327   0.20860   0.00000  Uiso   1.00
C202   C     0.85282   0.38159   0.12605   0.00000  Uiso   1.00
C203   C     0.58969   0.34622   0.16566   0.00000  Uiso   1.00
C204   C     0.90230   0.16236   0.16618   0.00000  Uiso   1.00
C205   C     0.90693   0.34300   0.16749   0.00000  Uiso   1.00
C206   C     0.59347   0.15780   0.16705   0.00000  Uiso   1.00
C207   C     0.83869   0.09747   0.16543   0.00000  Uiso   1.00
C208   C     0.65411   0.41009   0.16633   0.00000  Uiso   1.00
C209   C     0.65867   0.09499   0.16782   0.00000  Uiso   1.00
C210   C     0.55821   0.31062   0.16654   0.00000  Uiso   1.00
C211   C     0.84187   0.40596   0.16669   0.00000  Uiso   1.00
C212   C     0.88053   0.20348   0.06572   0.00000  Uiso   1.00
C213   C     0.54264   0.41264   0.23982   0.00000  Uiso   1.00
C214   C     0.62823   0.29405   0.07367   0.00000  Uiso   1.00
C215   C     0.91369   0.13765   0.28131   0.00000  Uiso   1.00
C216   C     0.61284   0.18705   0.27518   0.00000  Uiso   1.00
C217   C     0.92070   0.37329   0.05272   0.00000  Uiso   1.00
C218   C     0.88584   0.30987   0.27348   0.00000  Uiso   1.00
C219   C     0.58523   0.12995   0.05195   0.00000  Uiso   1.00
C220   C     0.63371   0.44742   0.06213   0.00000  Uiso   1.00
C221   C     0.80877   0.43987   0.16650   0.00000  Uiso   1.00
C222   C     0.78741   0.16230   0.23529   0.00000  Uiso   1.00
C223   C     0.87659   0.04842   0.07063   0.00000  Uiso   1.00
C224   C     0.66902   0.37884   0.27899   0.00000  Uiso   1.00
C225   C     0.87922   0.46110   0.25706   0.00000  Uiso   1.00
C226   C     0.71025   0.15655   0.09515   0.00000  Uiso   1.00
C227   C     0.61942   0.03601   0.25279   0.00000  Uiso   1.00
C228   C     0.79661   0.34450   0.08650   0.00000  Uiso   1.00
C229   C     0.69135   0.06038   0.16696   0.00000  Uiso   1.00
C230   C     0.68977   0.44135   0.16662   0.00000  Uiso   1.00
C231   C     0.80801   0.06089   0.16649   0.00000  Uiso   1.00
C232   C     0.99927   0.21022   0.02401   0.00000  Uiso   1.00
Cu233  Cu    0.50000   0.25000   0.21355   0.00000  Uiso   1.00
Cu234  Cu    0.50000   0.25000   0.11978   0.00000  Uiso   1.00
Cu235  Cu    0.75000  -0.00000   0.21355   0.00000  Uiso   1.00
Cu236  Cu    0.75000  -0.00000   0.11978   0.00000  Uiso   1.00
H237   H     0.50061   0.17176   0.07788   0.00000  Uiso   1.00
H238   H     0.89139   0.21275   0.03054   0.00000  Uiso   1.00
H239   H     0.88860   0.23124   0.09025   0.00000  Uiso   1.00
H240   H     0.84664   0.19966   0.06479   0.00000  Uiso   1.00
H241   H     0.58152   0.37025   0.27563   0.00000  Uiso   1.00
H242   H     0.52088   0.41330   0.26948   0.00000  Uiso   1.00
H243   H     0.52469   0.41099   0.20716   0.00000  Uiso   1.00
H244   H     0.56086   0.44449   0.24087   0.00000  Uiso   1.00
H245   H     0.59862   0.35258   0.05308   0.00000  Uiso   1.00
H246   H     0.61759   0.27542   0.04231   0.00000  Uiso   1.00
H247   H     0.62697   0.27061   0.10355   0.00000  Uiso   1.00
H248   H     0.50038   0.32755   0.25589   0.00000  Uiso   1.00
H249   H     0.66039   0.30532   0.06802   0.00000  Uiso   1.00
H250   H     0.89953   0.20255   0.25518   0.00000  Uiso   1.00
H251   H     0.92362   0.15501   0.31360   0.00000  Uiso   1.00
H252   H     0.94080   0.12396   0.26259   0.00000  Uiso   1.00
H253   H     0.89381   0.10871   0.29101   0.00000  Uiso   1.00
H254   H     0.58045   0.12628   0.27437   0.00000  Uiso   1.00
H255   H     0.59489   0.20196   0.30427   0.00000  Uiso   1.00
H256   H     0.62022   0.21474   0.25068   0.00000  Uiso   1.00
H257   H     0.64176   0.17270   0.28895   0.00000  Uiso   1.00
H258   H     0.88230   0.31827   0.06403   0.00000  Uiso   1.00
H259   H     0.99989   0.32904   0.07868   0.00000  Uiso   1.00
H260   H     0.93435   0.35748   0.02130   0.00000  Uiso   1.00
H261   H     0.94520   0.39175   0.07183   0.00000  Uiso   1.00
H262   H     0.89704   0.39772   0.04139   0.00000  Uiso   1.00
H263   H     0.93667   0.35314   0.26024   0.00000  Uiso   1.00
H264   H     0.90048   0.30082   0.30678   0.00000  Uiso   1.00
H265   H     0.88790   0.28051   0.24939   0.00000  Uiso   1.00
H266   H     0.85299   0.31743   0.28013   0.00000  Uiso   1.00
H267   H     0.62384   0.18427   0.06604   0.00000  Uiso   1.00
H268   H     0.57156   0.14610   0.02132   0.00000  Uiso   1.00
H269   H     0.56080   0.11062   0.07012   0.00000  Uiso   1.00
H270   H     0.99998   0.17145   0.25412   0.00000  Uiso   1.00
H271   H     0.60946   0.10627   0.03977   0.00000  Uiso   1.00
H272   H     0.68256   0.40050   0.07105   0.00000  Uiso   1.00
H273   H     0.64595   0.45488   0.02705   0.00000  Uiso   1.00
H274   H     0.64009   0.47677   0.08533   0.00000  Uiso   1.00
H275   H     0.60000   0.44257   0.05953   0.00000  Uiso   1.00
H276   H     0.82762   0.12496   0.27480   0.00000  Uiso   1.00
H277   H     0.76505   0.16313   0.26439   0.00000  Uiso   1.00
H278   H     0.77026   0.15737   0.20240   0.00000  Uiso   1.00
H279   H     0.80370   0.19539   0.23468   0.00000  Uiso   1.00
H280   H     0.84518   0.10677   0.05318   0.00000  Uiso   1.00
H281   H     0.74967   0.42258   0.07752   0.00000  Uiso   1.00
H282   H     0.86548   0.03053   0.03903   0.00000  Uiso   1.00
H283   H     0.87669   0.02398   0.09968   0.00000  Uiso   1.00
H284   H     0.90831   0.06077   0.06423   0.00000  Uiso   1.00
H285   H     0.65391   0.44569   0.25916   0.00000  Uiso   1.00
H286   H     0.67877   0.39329   0.31283   0.00000  Uiso   1.00
H287   H     0.69635   0.36749   0.25904   0.00000  Uiso   1.00
H288   H     0.64944   0.34883   0.28580   0.00000  Uiso   1.00
H289   H     0.85094   0.40224   0.27964   0.00000  Uiso   1.00
H290   H     0.86837   0.48006   0.28817   0.00000  Uiso   1.00
H291   H     0.87720   0.48379   0.22665   0.00000  Uiso   1.00
H292   H     0.74882   0.07781   0.25561   0.00000  Uiso   1.00
H293   H     0.91168   0.45105   0.26241   0.00000  Uiso   1.00
H294   H     0.68291   0.09507   0.07002   0.00000  Uiso   1.00
H295   H     0.72616   0.16144   0.06149   0.00000  Uiso   1.00
H296   H     0.73259   0.14489   0.12141   0.00000  Uiso   1.00
H297   H     0.69755   0.18979   0.10635   0.00000  Uiso   1.00
H298   H     0.66907   0.08076   0.26593   0.00000  Uiso   1.00
H299   H     0.62506   0.02028   0.28696   0.00000  Uiso   1.00
H300   H     0.63015   0.01286   0.22478   0.00000  Uiso   1.00
H301   H     0.58588   0.04130   0.24900   0.00000  Uiso   1.00
H302   H     0.82205   0.40901   0.06847   0.00000  Uiso   1.00
H303   H     0.75196   0.07803   0.07878   0.00000  Uiso   1.00
H304   H     0.78334   0.34043   0.05134   0.00000  Uiso   1.00
H305   H     0.77199   0.35327   0.11172   0.00000  Uiso   1.00
H306   H     0.81027   0.31154   0.09628   0.00000  Uiso   1.00
H307   H     0.74997   0.42128   0.25439   0.00000  Uiso   1.00
H308   H     0.92888   0.15543   0.06939   0.00000  Uiso   1.00
N309   N     0.50000   0.25000   0.28402   0.00000  Uiso   1.00
N310   N     0.90280   0.33863   0.08171   0.00000  Uiso   1.00
N311   N     0.90601   0.34903   0.25395   0.00000  Uiso   1.00
N312   N     0.60222   0.16440   0.08236   0.00000  Uiso   1.00
N313   N     0.65260   0.40674   0.07954   0.00000  Uiso   1.00
N314   N     0.81629   0.12570   0.24156   0.00000  Uiso   1.00
N315   N     0.84972   0.08601   0.08122   0.00000  Uiso   1.00
N316   N     0.64657   0.41235   0.25316   0.00000  Uiso   1.00
N317   N     0.85384   0.42141   0.25013   0.00000  Uiso   1.00
N318   N     0.67761   0.12368   0.08964   0.00000  Uiso   1.00
N319   N     0.64076   0.07886   0.25040   0.00000  Uiso   1.00
N320   N     0.50000   0.25000   0.04931   0.00000  Uiso   1.00
N321   N     0.82765   0.37963   0.08608   0.00000  Uiso   1.00
N322   N     0.75000  -0.00000   0.28402   0.00000  Uiso   1.00
N323   N     0.75000  -0.00000   0.04931   0.00000  Uiso   1.00
N324   N     0.89919   0.16132   0.07950   0.00000  Uiso   1.00
N325   N     0.56935   0.37367   0.24295   0.00000  Uiso   1.00
N326   N     0.60198   0.33269   0.08199   0.00000  Uiso   1.00
N327   N     0.89172   0.16894   0.25222   0.00000  Uiso   1.00
N328   N     0.58894   0.15199   0.25241   0.00000  Uiso   1.00
O329   O     0.54508   0.20491   0.20625   0.00000  Uiso   1.00
O330   O     0.70491   0.04509   0.12709   0.00000  Uiso   1.00
O331   O     0.70491   0.04509   0.20625   0.00000  Uiso   1.00
O332   O     0.79508   0.45491   0.12709   0.00000  Uiso   1.00
O333   O     0.70491   0.45491   0.12709   0.00000  Uiso   1.00
O334   O     0.79508   0.04509   0.20625   0.00000  Uiso   1.00
O335   O     0.79508   0.04509   0.12709   0.00000  Uiso   1.00
O336   O     0.70491   0.45491   0.20625   0.00000  Uiso   1.00
O337   O     0.99867   0.16833   0.04431   0.00000  Uiso   1.00
O338   O     0.50400   0.33125   0.28924   0.00000  Uiso   1.00
O339   O     0.50798   0.33116   0.04615   0.00000  Uiso   1.00
O340   O     0.95491   0.29509   0.12709   0.00000  Uiso   1.00
O341   O     0.50287   0.16836   0.28754   0.00000  Uiso   1.00
O342   O     0.74981   0.41863   0.04396   0.00000  Uiso   1.00
O343   O     0.74833   0.08152   0.28919   0.00000  Uiso   1.00
O344   O     0.75653   0.08119   0.04560   0.00000  Uiso   1.00
O345   O     0.75626   0.41870   0.28728   0.00000  Uiso   1.00
O346   O     0.95491   0.29509   0.20625   0.00000  Uiso   1.00
O347   O     0.54508   0.20491   0.12709   0.00000  Uiso   1.00
O348   O     0.95491   0.20491   0.12709   0.00000  Uiso   1.00
O349   O     0.54508   0.29509   0.20625   0.00000  Uiso   1.00
O350   O     0.54508   0.29509   0.12709   0.00000  Uiso   1.00
O351   O     0.95491   0.20491   0.20625   0.00000  Uiso   1.00
O352   O     0.79508   0.45491   0.20625   0.00000  Uiso   1.00
C353   C     0.05942   0.69061   0.16662   0.00000  Uiso   1.00
C354   C     0.00201   0.78962   0.30947   0.00000  Uiso   1.00
C355   C     0.00283   0.78965   0.02490   0.00000  Uiso   1.00
C356   C     0.00012   0.71021   0.30855   0.00000  Uiso   1.00
C357   C     0.25032   0.96034   0.02383   0.00000  Uiso   1.00
C358   C     0.24983   0.53971   0.30937   0.00000  Uiso   1.00
C359   C     0.25156   0.53967   0.02472   0.00000  Uiso   1.00
C360   C     0.25173   0.96030   0.30844   0.00000  Uiso   1.00
C361   C     0.38706   0.64454   0.12351   0.00000  Uiso   1.00
C362   C     0.09842   0.87116   0.20608   0.00000  Uiso   1.00
C363   C     0.11039   0.85674   0.12410   0.00000  Uiso   1.00
C364   C     0.44075   0.80971   0.16696   0.00000  Uiso   1.00
C365   C     0.38086   0.65132   0.20780   0.00000  Uiso   1.00
C366   C     0.10561   0.63745   0.20904   0.00000  Uiso   1.00
C367   C     0.38791   0.85485   0.12537   0.00000  Uiso   1.00
C368   C     0.39189   0.86231   0.20962   0.00000  Uiso   1.00
C369   C     0.11509   0.64746   0.12599   0.00000  Uiso   1.00
C370   C     0.13897   0.89191   0.12370   0.00000  Uiso   1.00
C371   C     0.34632   0.62322   0.20562   0.00000  Uiso   1.00
C372   C     0.35882   0.60898   0.12373   0.00000  Uiso   1.00
C373   C     0.13363   0.89800   0.20821   0.00000  Uiso   1.00
C374   C     0.36260   0.89663   0.20850   0.00000  Uiso   1.00
C375   C     0.43908   0.69222   0.16662   0.00000  Uiso   1.00
C376   C     0.15013   0.62068   0.12776   0.00000  Uiso   1.00
C377   C     0.13514   0.60327   0.20860   0.00000  Uiso   1.00
C378   C     0.35282   0.88159   0.12605   0.00000  Uiso   1.00
C379   C     0.08969   0.84622   0.16566   0.00000  Uiso   1.00
C380   C     0.40230   0.66236   0.16618   0.00000  Uiso   1.00
C381   C     0.40693   0.84300   0.16749   0.00000  Uiso   1.00
C382   C     0.09347   0.65780   0.16705   0.00000  Uiso   1.00
C383   C     0.33869   0.59747   0.16543   0.00000  Uiso   1.00
C384   C     0.15411   0.91009   0.16633   0.00000  Uiso   1.00
C385   C     0.15867   0.59499   0.16782   0.00000  Uiso   1.00
C386   C     0.05821   0.81062   0.16654   0.00000  Uiso   1.00
C387   C     0.34187   0.90596   0.16669   0.00000  Uiso   1.00
C388   C     0.38053   0.70348   0.06572   0.00000  Uiso   1.00
C389   C     0.04264   0.91264   0.23982   0.00000  Uiso   1.00
C390   C     0.12823   0.79405   0.07367   0.00000  Uiso   1.00
C391   C     0.41369   0.63765   0.28131   0.00000  Uiso   1.00
C392   C     0.11284   0.68705   0.27518   0.00000  Uiso   1.00
C393   C     0.42070   0.87329   0.05272   0.00000  Uiso   1.00
C394   C     0.38584   0.80987   0.27348   0.00000  Uiso   1.00
C395   C     0.08523   0.62995   0.05195   0.00000  Uiso   1.00
C396   C     0.13371   0.94742   0.06213   0.00000  Uiso   1.00
C397   C     0.30877   0.93987   0.16650   0.00000  Uiso   1.00
C398   C     0.28741   0.66230   0.23529   0.00000  Uiso   1.00
C399   C     0.37659   0.54842   0.07063   0.00000  Uiso   1.00
C400   C     0.16902   0.87884   0.27899   0.00000  Uiso   1.00
C401   C     0.37922   0.96110   0.25706   0.00000  Uiso   1.00
C402   C     0.21025   0.65655   0.09515   0.00000  Uiso   1.00
C403   C     0.11942   0.53601   0.25279   0.00000  Uiso   1.00
C404   C     0.29661   0.84450   0.08650   0.00000  Uiso   1.00
C405   C     0.19135   0.56038   0.16696   0.00000  Uiso   1.00
C406   C     0.18977   0.94135   0.16662   0.00000  Uiso   1.00
C407   C     0.30801   0.56089   0.16649   0.00000  Uiso   1.00
C408   C     0.49927   0.71022   0.02401   0.00000  Uiso   1.00
Cu409  Cu    0.00000   0.75000   0.21355   0.00000  Uiso   1.00
Cu410  Cu    0.00000   0.75000   0.11978   0.00000  Uiso   1.00
Cu411  Cu    0.25000   0.50000   0.21355   0.00000  Uiso   1.00
Cu412  Cu    0.25000   0.50000   0.11978   0.00000  Uiso   1.00
H413   H     0.00061   0.67176   0.07788   0.00000  Uiso   1.00
H414   H     0.39139   0.71275   0.03054   0.00000  Uiso   1.00
H415   H     0.38860   0.73124   0.09025   0.00000  Uiso   1.00
H416   H     0.34664   0.69966   0.06479   0.00000  Uiso   1.00
H417   H     0.08152   0.87025   0.27563   0.00000  Uiso   1.00
H418   H     0.02088   0.91330   0.26948   0.00000  Uiso   1.00
H419   H     0.02469   0.91099   0.20716   0.00000  Uiso   1.00
H420   H     0.06086   0.94449   0.24087   0.00000  Uiso   1.00
H421   H     0.09862   0.85258   0.05308   0.00000  Uiso   1.00
H422   H     0.11759   0.77542   0.04231   0.00000  Uiso   1.00
H423   H     0.12697   0.77061   0.10355   0.00000  Uiso   1.00
H424   H     0.00038   0.82755   0.25589   0.00000  Uiso   1.00
H425   H     0.16039   0.80532   0.06802   0.00000  Uiso   1.00
H426   H     0.39953   0.70255   0.25518   0.00000  Uiso   1.00
H427   H     0.42362   0.65501   0.31360   0.00000  Uiso   1.00
H428   H     0.44080   0.62396   0.26259   0.00000  Uiso   1.00
H429   H     0.39381   0.60871   0.29101   0.00000  Uiso   1.00
H430   H     0.08045   0.62628   0.27437   0.00000  Uiso   1.00
H431   H     0.09489   0.70196   0.30427   0.00000  Uiso   1.00
H432   H     0.12022   0.71474   0.25068   0.00000  Uiso   1.00
H433   H     0.14176   0.67270   0.28895   0.00000  Uiso   1.00
H434   H     0.38230   0.81827   0.06403   0.00000  Uiso   1.00
H435   H     0.49989   0.82904   0.07868   0.00000  Uiso   1.00
H436   H     0.43435   0.85748   0.02130   0.00000  Uiso   1.00
H437   H     0.44520   0.89175   0.07183   0.00000  Uiso   1.00
H438   H     0.39704   0.89772   0.04139   0.00000  Uiso   1.00
H439   H     0.43667   0.85314   0.26024   0.00000  Uiso   1.00
H440   H     0.40048   0.80082   0.30678   0.00000  Uiso   1.00
H441   H     0.38790   0.78051   0.24939   0.00000  Uiso   1.00
H442   H     0.35299   0.81743   0.28013   0.00000  Uiso   1.00
H443   H     0.12384   0.68427   0.06604   0.00000  Uiso   1.00
H444   H     0.07156   0.64610   0.02132   0.00000  Uiso   1.00
H445   H     0.06080   0.61062   0.07012   0.00000  Uiso   1.00
H446   H     0.49998   0.67145   0.25412   0.00000  Uiso   1.00
H447   H     0.10946   0.60627   0.03977   0.00000  Uiso   1.00
H448   H     0.18256   0.90050   0.07105   0.00000  Uiso   1.00
H449   H     0.14595   0.95488   0.02705   0.00000  Uiso   1.00
H450   H     0.14009   0.97677   0.08533   0.00000  Uiso   1.00
H451   H     0.10000   0.94257   0.05953   0.00000  Uiso   1.00
H452   H     0.32762   0.62496   0.27480   0.00000  Uiso   1.00
H453   H     0.26505   0.66313   0.26439   0.00000  Uiso   1.00
H454   H     0.27026   0.65737   0.20240   0.00000  Uiso   1.00
H455   H     0.30370   0.69539   0.23468   0.00000  Uiso   1.00
H456   H     0.34518   0.60677   0.05318   0.00000  Uiso   1.00
H457   H     0.24967   0.92258   0.07752   0.00000  Uiso   1.00
H458   H     0.36548   0.53053   0.03903   0.00000  Uiso   1.00
H459   H     0.37669   0.52398   0.09968   0.00000  Uiso   1.00
H460   H     0.40831   0.56077   0.06423   0.00000  Uiso   1.00
H461   H     0.15391   0.94569   0.25916   0.00000  Uiso   1.00
H462   H     0.17877   0.89329   0.31283   0.00000  Uiso   1.00
H463   H     0.19635   0.86749   0.25904   0.00000  Uiso   1.00
H464   H     0.14944   0.84883   0.28580   0.00000  Uiso   1.00
H465   H     0.35094   0.90224   0.27964   0.00000  Uiso   1.00
H466   H     0.36837   0.98006   0.28817   0.00000  Uiso   1.00
H467   H     0.37720   0.98379   0.22665   0.00000  Uiso   1.00
H468   H     0.24882   0.57781   0.25561   0.00000  Uiso   1.00
H469   H     0.41168   0.95105   0.26241   0.00000  Uiso   1.00
H470   H     0.18291   0.59507   0.07002   0.00000  Uiso   1.00
H471   H     0.22616   0.66144   0.06149   0.00000  Uiso   1.00
H472   H     0.23259   0.64489   0.12141   0.00000  Uiso   1.00
H473   H     0.19755   0.68979   0.10635   0.00000  Uiso   1.00
H474   H     0.16907   0.58076   0.26593   0.00000  Uiso   1.00
H475   H     0.12506   0.52028   0.28696   0.00000  Uiso   1.00
H476   H     0.13015   0.51286   0.22478   0.00000  Uiso   1.00
H477   H     0.08588   0.54130   0.24900   0.00000  Uiso   1.00
H478   H     0.32205   0.90901   0.06847   0.00000  Uiso   1.00
H479   H     0.25196   0.57803   0.07878   0.00000  Uiso   1.00
H480   H     0.28334   0.84043   0.05134   0.00000  Uiso   1.00
H481   H     0.27199   0.85327   0.11172   0.00000  Uiso   1.00
H482   H     0.31027   0.81154   0.09628   0.00000  Uiso   1.00
H483   H     0.24997   0.92128   0.25439   0.00000  Uiso   1.00
H484   H     0.42888   0.65543   0.06939   0.00000  Uiso   1.00
N485   N    -0.00000   0.75000   0.28402   0.00000  Uiso   1.00
N486   N     0.40280   0.83863   0.08171   0.00000  Uiso   1.00
N487   N     0.40601   0.84903   0.25395   0.00000  Uiso   1.00
N488   N     0.10222   0.66440   0.08236   0.00000  Uiso   1.00
N489   N     0.15260   0.90674   0.07954   0.00000  Uiso   1.00
N490   N     0.31629   0.62570   0.24156   0.00000  Uiso   1.00
N491   N     0.34972   0.58601   0.08122   0.00000  Uiso   1.00
N492   N     0.14657   0.91235   0.25316   0.00000  Uiso   1.00
N493   N     0.35384   0.92141   0.25013   0.00000  Uiso   1.00
N494   N     0.17761   0.62368   0.08964   0.00000  Uiso   1.00
N495   N     0.14076   0.57886   0.25040   0.00000  Uiso   1.00
N496   N     0.00000   0.75000   0.04931   0.00000  Uiso   1.00
N497   N     0.32765   0.87963   0.08608   0.00000  Uiso   1.00
N498   N     0.25000   0.50000   0.28402   0.00000  Uiso   1.00
N499   N     0.25000   0.50000   0.04931   0.00000  Uiso   1.00
N500   N     0.39919   0.66132   0.07950   0.00000  Uiso   1.00
N501   N     0.06935   0.87367   0.24295   0.00000  Uiso   1.00
N502   N     0.10198   0.83269   0.08199   0.00000  Uiso   1.00
N503   N     0.39172   0.66894   0.25222   0.00000  Uiso   1.00
N504   N     0.08894   0.65199   0.25241   0.00000  Uiso   1.00
O505   O     0.04508   0.70491   0.20625   0.00000  Uiso   1.00
O506   O     0.20491   0.54509   0.12709   0.00000  Uiso   1.00
O507   O     0.20491   0.54509   0.20625   0.00000  Uiso   1.00
O508   O     0.29508   0.95491   0.12709   0.00000  Uiso   1.00
O509   O     0.20491   0.95491   0.12709   0.00000  Uiso   1.00
O510   O     0.29508   0.54509   0.20625   0.00000  Uiso   1.00
O511   O     0.29508   0.54509   0.12709   0.00000  Uiso   1.00
O512   O     0.20491   0.95491   0.20625   0.00000  Uiso   1.00
O513   O     0.49867   0.66833   0.04431   0.00000  Uiso   1.00
O514   O     0.00400   0.83125   0.28924   0.00000  Uiso   1.00
O515   O     0.00798   0.83116   0.04615   0.00000  Uiso   1.00
O516   O     0.45491   0.79509   0.12709   0.00000  Uiso   1.00
O517   O     0.00287   0.66836   0.28754   0.00000  Uiso   1.00
O518   O     0.24981   0.91863   0.04396   0.00000  Uiso   1.00
O519   O     0.24833   0.58152   0.28919   0.00000  Uiso   1.00
O520   O     0.25653   0.58119   0.04560   0.00000  Uiso   1.00
O521   O     0.25626   0.91870   0.28728   0.00000  Uiso   1.00
O522   O     0.45491   0.79509   0.20625   0.00000  Uiso   1.00
O523   O     0.04508   0.70491   0.12709   0.00000  Uiso   1.00
O524   O     0.45491   0.70491   0.12709   0.00000  Uiso   1.00
O525   O     0.04508   0.79509   0.20625   0.00000  Uiso   1.00
O526   O     0.04508   0.79509   0.12709   0.00000  Uiso   1.00
O527   O     0.45491   0.70491   0.20625   0.00000  Uiso   1.00
O528   O     0.29508   0.95491   0.20625   0.00000  Uiso   1.00
C529   C     0.55942   0.69061   0.16662   0.00000  Uiso   1.00
C530   C     0.50201   0.78962   0.30947   0.00000  Uiso   1.00
C531   C     0.50283   0.78965   0.02490   0.00000  Uiso   1.00
C532   C     0.50012   0.71021   0.30855   0.00000  Uiso   1.00
C533   C     0.75032   0.96034   0.02383   0.00000  Uiso   1.00
C534   C     0.74983   0.53971   0.30937   0.00000  Uiso   1.00
C535   C     0.75156   0.53967   0.02472   0.00000  Uiso   1.00
C536   C     0.75173   0.96030   0.30844   0.00000  Uiso   1.00
C537   C     0.88706   0.64454   0.12351   0.00000  Uiso   1.00
C538   C     0.59842   0.87116   0.20608   0.00000  Uiso   1.00
C539   C     0.61039   0.85674   0.12410   0.00000  Uiso   1.00
C540   C     0.94075   0.80971   0.16696   0.00000  Uiso   1.00
C541   C     0.88086   0.65132   0.20780   0.00000  Uiso   1.00
C542   C     0.60561   0.63745   0.20904   0.00000  Uiso   1.00
C543   C     0.88791   0.85485   0.12537   0.00000  Uiso   1.00
C544   C     0.89189   0.86231   0.20962   0.00000  Uiso   1.00
C545   C     0.61509   0.64746   0.12599   0.00000  Uiso   1.00
C546   C     0.63897   0.89191   0.12370   0.00000  Uiso   1.00
C547   C     0.84632   0.62322   0.20562   0.00000  Uiso   1.00
C548   C     0.85882   0.60898   0.12373   0.00000  Uiso   1.00
C549   C     0.63363   0.89800   0.20821   0.00000  Uiso   1.00
C550   C     0.86260   0.89663   0.20850   0.00000  Uiso   1.00
C551   C     0.93908   0.69222   0.16662   0.00000  Uiso   1.00
C552   C     0.65013   0.62068   0.12776   0.00000  Uiso   1.00
C553   C     0.63514   0.60327   0.20860   0.00000  Uiso   1.00
C554   C     0.85282   0.88159   0.12605   0.00000  Uiso   1.00
C555   C     0.58969   0.84622   0.16566   0.00000  Uiso   1.00
C556   C     0.90230   0.66236   0.16618   0.00000  Uiso   1.00
C557   C     0.90693   0.84300   0.16749   0.00000  Uiso   1.00
C558   C     0.59347   0.65780   0.16705   0.00000  Uiso   1.00
C559   C     0.83869   0.59747   0.16543   0.00000  Uiso   1.00
C560   C     0.65411   0.91009   0.16633   0.00000  Uiso   1.00
C561   C     0.65867   0.59499   0.16782   0.00000  Uiso   1.00
C562   C     0.55821   0.81062   0.16654   0.00000  Uiso   1.00
C563   C     0.84187   0.90596   0.16669   0.00000  Uiso   1.00
C564   C     0.88053   0.70348   0.06572   0.00000  Uiso   1.00
C565   C     0.54264   0.91264   0.23982   0.00000  Uiso   1.00
C566   C     0.62823   0.79405   0.07367   0.00000  Uiso   1.00
C567   C     0.91369   0.63765   0.28131   0.00000  Uiso   1.00
C568   C     0.61284   0.68705   0.27518   0.00000  Uiso   1.00
C569   C     0.92070   0.87329   0.05272   0.00000  Uiso   1.00
C570   C     0.88584   0.80987   0.27348   0.00000  Uiso   1.00
C571   C     0.58523   0.62995   0.05195   0.00000  Uiso   1.00
C572   C     0.63371   0.94742   0.06213   0.00000  Uiso   1.00
C573   C     0.80877   0.93987   0.16650   0.00000  Uiso   1.00
C574   C     0.78741   0.66230   0.23529   0.00000  Uiso   1.00
C575   C     0.87659   0.54842   0.07063   0.00000  Uiso   1.00
C576   C     0.66902   0.87884   0.27899   0.00000  Uiso   1.00
C577   C     0.87922   0.96110   0.25706   0.00000  Uiso   1.00
C578   C     0.71025   0.65655   0.09515   0.00000  Uiso   1.00
C579   C     0.61942   0.53601   0.25279   0.00000  Uiso   1.00
C580   C     0.79661   0.84450   0.08650   0.00000  Uiso   1.00
C581   C     0.69135   0.56038   0.16696   0.00000  Uiso   1.00
C582   C     0.68977   0.94135   0.16662   0.00000  Uiso   1.00
C583   C     0.80801   0.56089   0.16649   0.00000  Uiso   1.00
C584   C     0.99927   0.71022   0.02401   0.00000  Uiso   1.00
Cu585  Cu    0.50000   0.75000   0.21355   0.00000  Uiso   1.00
Cu586  Cu    0.50000   0.75000   0.11978   0.00000  Uiso   1.00
Cu587  Cu    0.75000   0.50000   0.21355   0.00000  Uiso   1.00
Cu588  Cu    0.75000   0.50000   0.11978   0.00000  Uiso   1.00
H589   H     0.50061   0.67176   0.07788   0.00000  Uiso   1.00
H590   H     0.89139   0.71275   0.03054   0.00000  Uiso   1.00
H591   H     0.88860   0.73124   0.09025   0.00000  Uiso   1.00
H592   H     0.84664   0.69966   0.06479   0.00000  Uiso   1.00
H593   H     0.58152   0.87025   0.27563   0.00000  Uiso   1.00
H594   H     0.52088   0.91330   0.26948   0.00000  Uiso   1.00
H595   H     0.52469   0.91099   0.20716   0.00000  Uiso   1.00
H596   H     0.56086   0.94449   0.24087   0.00000  Uiso   1.00
H597   H     0.59862   0.85258   0.05308   0.00000  Uiso   1.00
H598   H     0.61759   0.77542   0.04231   0.00000  Uiso   1.00
H599   H     0.62697   0.77061   0.10355   0.00000  Uiso   1.00
H600   H     0.50038   0.82755   0.25589   0.00000  Uiso   1.00
H601   H     0.66039   0.80532   0.06802   0.00000  Uiso   1.00
H602   H     0.89953   0.70255   0.25518   0.00000  Uiso   1.00
H603   H     0.92362   0.65501   0.31360   0.00000  Uiso   1.00
H604   H     0.94080   0.62396   0.26259   0.00000  Uiso   1.00
H605   H     0.89381   0.60871   0.29101   0.00000  Uiso   1.00
H606   H     0.58045   0.62628   0.27437   0.00000  Uiso   1.00
H607   H     0.59489   0.70196   0.30427   0.00000  Uiso   1.00
H608   H     0.62022   0.71474   0.25068   0.00000  Uiso   1.00
H609   H     0.64176   0.67270   0.28895   0.00000  Uiso   1.00
H610   H     0.88230   0.81827   0.06403   0.00000  Uiso   1.00
H611   H     0.99989   0.82904   0.07868   0.00000  Uiso   1.00
H612   H     0.93435   0.85748   0.02130   0.00000  Uiso   1.00
H613   H     0.94520   0.89175   0.07183   0.00000  Uiso   1.00
H614   H     0.89704   0.89772   0.04139   0.00000  Uiso   1.00
H615   H     0.93667   0.85314   0.26024   0.00000  Uiso   1.00
H616   H     0.90048   0.80082   0.30678   0.00000  Uiso   1.00
H617   H     0.88790   0.78051   0.24939   0.00000  Uiso   1.00
H618   H     0.85299   0.81743   0.28013   0.00000  Uiso   1.00
H619   H     0.62384   0.68427   0.06604   0.00000  Uiso   1.00
H620   H     0.57156   0.64610   0.02132   0.00000  Uiso   1.00
H621   H     0.56080   0.61062   0.07012   0.00000  Uiso   1.00
H622   H     0.99998   0.67145   0.25412   0.00000  Uiso   1.00
H623   H     0.60946   0.60627   0.03977   0.00000  Uiso   1.00
H624   H     0.68256   0.90050   0.07105   0.00000  Uiso   1.00
H625   H     0.64595   0.95488   0.02705   0.00000  Uiso   1.00
H626   H     0.64009   0.97677   0.08533   0.00000  Uiso   1.00
H627   H     0.60000   0.94257   0.05953   0.00000  Uiso   1.00
H628   H     0.82762   0.62496   0.27480   0.00000  Uiso   1.00
H629   H     0.76505   0.66313   0.26439   0.00000  Uiso   1.00
H630   H     0.77026   0.65737   0.20240   0.00000  Uiso   1.00
H631   H     0.80370   0.69539   0.23468   0.00000  Uiso   1.00
H632   H     0.84518   0.60677   0.05318   0.00000  Uiso   1.00
H633   H     0.74967   0.92258   0.07752   0.00000  Uiso   1.00
H634   H     0.86548   0.53053   0.03903   0.00000  Uiso   1.00
H635   H     0.87669   0.52398   0.09968   0.00000  Uiso   1.00
H636   H     0.90831   0.56077   0.06423   0.00000  Uiso   1.00
H637   H     0.65391   0.94569   0.25916   0.00000  Uiso   1.00
H638   H     0.67877   0.89329   0.31283   0.00000  Uiso   1.00
H639   H     0.69635   0.86749   0.25904   0.00000  Uiso   1.00
H640   H     0.64944   0.84883   0.28580   0.00000  Uiso   1.00
H641   H     0.85094   0.90224   0.27964   0.00000  Uiso   1.00
H642   H     0.86837   0.98006   0.28817   0.00000  Uiso   1.00
H643   H     0.87720   0.98379   0.22665   0.00000  Uiso   1.00
H644   H     0.74882   0.57781   0.25561   0.00000  Uiso   1.00
H645   H     0.91168   0.95105   0.26241   0.00000  Uiso   1.00
H646   H     0.68291   0.59507   0.07002   0.00000  Uiso   1.00
H647   H     0.72616   0.66144   0.06149   0.00000  Uiso   1.00
H648   H     0.73259   0.64489   0.12141   0.00000  Uiso   1.00
H649   H     0.69755   0.68979   0.10635   0.00000  Uiso   1.00
H650   H     0.66907   0.58076   0.26593   0.00000  Uiso   1.00
H651   H     0.62506   0.52028   0.28696   0.00000  Uiso   1.00
H652   H     0.63015   0.51286   0.22478   0.00000  Uiso   1.00
H653   H     0.58588   0.54130   0.24900   0.00000  Uiso   1.00
H654   H     0.82205   0.90901   0.06847   0.00000  Uiso   1.00
H655   H     0.75196   0.57803   0.07878   0.00000  Uiso   1.00
H656   H     0.78334   0.84043   0.05134   0.00000  Uiso   1.00
H657   H     0.77199   0.85327   0.11172   0.00000  Uiso   1.00
H658   H     0.81027   0.81154   0.09628   0.00000  Uiso   1.00
H659   H     0.74997   0.92128   0.25439   0.00000  Uiso   1.00
H660   H     0.92888   0.65543   0.06939   0.00000  Uiso   1.00
N661   N     0.50000   0.75000   0.28402   0.00000  Uiso   1.00
N662   N     0.90280   0.83863   0.08171   0.00000  Uiso   1.00
N663   N     0.90601   0.84903   0.25395   0.00000  Uiso   1.00
N664   N     0.60222   0.66440   0.08236   0.00000  Uiso   1.00
N665   N     0.65260   0.90674   0.07954   0.00000  Uiso   1.00
N666   N     0.81629   0.62570   0.24156   0.00000  Uiso   1.00
N667   N     0.84972   0.58601   0.08122   0.00000  Uiso   1.00
N668   N     0.64657   0.91235   0.25316   0.00000  Uiso   1.00
N669   N     0.85384   0.92141   0.25013   0.00000  Uiso   1.00
N670   N     0.67761   0.62368   0.08964   0.00000  Uiso   1.00
N671   N     0.64076   0.57886   0.25040   0.00000  Uiso   1.00
N672   N     0.50000   0.75000   0.04931   0.00000  Uiso   1.00
N673   N     0.82765   0.87963   0.08608   0.00000  Uiso   1.00
N674   N     0.75000   0.50000   0.28402   0.00000  Uiso   1.00
N675   N     0.75000   0.50000   0.04931   0.00000  Uiso   1.00
N676   N     0.89919   0.66132   0.07950   0.00000  Uiso   1.00
N677   N     0.56935   0.87367   0.24295   0.00000  Uiso   1.00
N678   N     0.60198   0.83269   0.08199   0.00000  Uiso   1.00
N679   N     0.89172   0.66894   0.25222   0.00000  Uiso   1.00
N680   N     0.58894   0.65199   0.25241   0.00000  Uiso   1.00
O681   O     0.54508   0.70491   0.20625   0.00000  Uiso   1.00
O682   O     0.70491   0.54509   0.12709   0.00000  Uiso   1.00
O683   O     0.70491   0.54509   0.20625   0.00000  Uiso   1.00
O684   O     0.79508   0.95491   0.12709   0.00000  Uiso   1.00
O685   O     0.70491   0.95491   0.12709   0.00000  Uiso   1.00
O686   O     0.79508   0.54509   0.20625   0.00000  Uiso   1.00
O687   O     0.79508   0.54509   0.12709   0.00000  Uiso   1.00
O688   O     0.70491   0.95491   0.20625   0.00000  Uiso   1.00
O689   O     0.99867   0.66833   0.04431   0.00000  Uiso   1.00
O690   O     0.50400   0.83125   0.28924   0.00000  Uiso   1.00
O691   O     0.50798   0.83116   0.04615   0.00000  Uiso   1.00
O692   O     0.95491   0.79509   0.12709   0.00000  Uiso   1.00
O693   O     0.50287   0.66836   0.28754   0.00000  Uiso   1.00
O694   O     0.74981   0.91863   0.04396   0.00000  Uiso   1.00
O695   O     0.74833   0.58152   0.28919   0.00000  Uiso   1.00
O696   O     0.75653   0.58119   0.04560   0.00000  Uiso   1.00
O697   O     0.75626   0.91870   0.28728   0.00000  Uiso   1.00
O698   O     0.95491   0.79509   0.20625   0.00000  Uiso   1.00
O699   O     0.54508   0.70491   0.12709   0.00000  Uiso   1.00
O700   O     0.95491   0.70491   0.12709   0.00000  Uiso   1.00
O701   O     0.54508   0.79509   0.20625   0.00000  Uiso   1.00
O702   O     0.54508   0.79509   0.12709   0.00000  Uiso   1.00
O703   O     0.95491   0.70491   0.20625   0.00000  Uiso   1.00
O704   O     0.79508   0.95491   0.20625   0.00000  Uiso   1.00
C705   C     0.05942   0.19061   0.49995   0.00000  Uiso   1.00
C706   C     0.00201   0.28962   0.64281   0.00000  Uiso   1.00
C707   C     0.00283   0.28965   0.35824   0.00000  Uiso   1.00
C708   C     0.00012   0.21021   0.64188   0.00000  Uiso   1.00
C709   C     0.25032   0.46034   0.35716   0.00000  Uiso   1.00
C710   C     0.24983   0.03971   0.64270   0.00000  Uiso   1.00
C711   C     0.25156   0.03967   0.35805   0.00000  Uiso   1.00
C712   C     0.25173   0.46030   0.64177   0.00000  Uiso   1.00
C713   C     0.38706   0.14454   0.45684   0.00000  Uiso   1.00
C714   C     0.09842   0.37116   0.53941   0.00000  Uiso   1.00
C715   C     0.11039   0.35674   0.45743   0.00000  Uiso   1.00
C716   C     0.44075   0.30971   0.50030   0.00000  Uiso   1.00
C717   C     0.38086   0.15132   0.54113   0.00000  Uiso   1.00
C718   C     0.10561   0.13745   0.54237   0.00000  Uiso   1.00
C719   C     0.38791   0.35485   0.45870   0.00000  Uiso   1.00
C720   C     0.39189   0.36231   0.54296   0.00000  Uiso   1.00
C721   C     0.11509   0.14746   0.45933   0.00000  Uiso   1.00
C722   C     0.13897   0.39191   0.45703   0.00000  Uiso   1.00
C723   C     0.34632   0.12322   0.53895   0.00000  Uiso   1.00
C724   C     0.35882   0.10898   0.45706   0.00000  Uiso   1.00
C725   C     0.13363   0.39800   0.54154   0.00000  Uiso   1.00
C726   C     0.36260   0.39663   0.54184   0.00000  Uiso   1.00
C727   C     0.43908   0.19222   0.49995   0.00000  Uiso   1.00
C728   C     0.15013   0.12068   0.46109   0.00000  Uiso   1.00
C729   C     0.13514   0.10327   0.54193   0.00000  Uiso   1.00
C730   C     0.35282   0.38159   0.45938   0.00000  Uiso   1.00
C731   C     0.08969   0.34622   0.49900   0.00000  Uiso   1.00
C732   C     0.40230   0.16236   0.49952   0.00000  Uiso   1.00
C733   C     0.40693   0.34300   0.50082   0.00000  Uiso   1.00
C734   C     0.09347   0.15780   0.50038   0.00000  Uiso   1.00
C735   C     0.33869   0.09747   0.49877   0.00000  Uiso   1.00
C736   C     0.15411   0.41009   0.49966   0.00000  Uiso   1.00
C737   C     0.15867   0.09499   0.50115   0.00000  Uiso   1.00
C738   C     0.05821   0.31062   0.49987   0.00000  Uiso   1.00
C739   C     0.34187   0.40596   0.50003   0.00000  Uiso   1.00
C740   C     0.38053   0.20348   0.39906   0.00000  Uiso   1.00
C741   C     0.04264   0.41264   0.57315   0.00000  Uiso   1.00
C742   C     0.12823   0.29405   0.40701   0.00000  Uiso   1.00
C743   C     0.41369   0.13765   0.61464   0.00000  Uiso   1.00
C744   C     0.11284   0.18705   0.60852   0.00000  Uiso   1.00
C745   C     0.42070   0.37329   0.38605   0.00000  Uiso   1.00
C746   C     0.38584   0.30987   0.60682   0.00000  Uiso   1.00
C747   C     0.08523   0.12995   0.38529   0.00000  Uiso   1.00
C748   C     0.13371   0.44742   0.39547   0.00000  Uiso   1.00
C749   C     0.30877   0.43987   0.49983   0.00000  Uiso   1.00
C750   C     0.28741   0.16230   0.56863   0.00000  Uiso   1.00
C751   C     0.37659   0.04842   0.40396   0.00000  Uiso   1.00
C752   C     0.16902   0.37884   0.61232   0.00000  Uiso   1.00
C753   C     0.37922   0.46110   0.59039   0.00000  Uiso   1.00
C754   C     0.21025   0.15655   0.42848   0.00000  Uiso   1.00
C755   C     0.11942   0.03601   0.58612   0.00000  Uiso   1.00
C756   C     0.29661   0.34450   0.41983   0.00000  Uiso   1.00
C757   C     0.19135   0.06038   0.50029   0.00000  Uiso   1.00
C758   C     0.18977   0.44135   0.49995   0.00000  Uiso   1.00
C759   C     0.30801   0.06089   0.49982   0.00000  Uiso   1.00
C760   C     0.49927   0.21022   0.35734   0.00000  Uiso   1.00
Cu761  Cu    0.00000   0.25000   0.54689   0.00000  Uiso   1.00
Cu762  Cu    0.00000   0.25000   0.45311   0.00000  Uiso   1.00
Cu763  Cu    0.25000  -0.00000   0.54689   0.00000  Uiso   1.00
Cu764  Cu    0.25000  -0.00000   0.45311   0.00000  Uiso   1.00
H765   H     0.00061   0.17176   0.41121   0.00000  Uiso   1.00
H766   H     0.39139   0.21275   0.36388   0.00000  Uiso   1.00
H767   H     0.38860   0.23124   0.42358   0.00000  Uiso   1.00
H768   H     0.34664   0.19966   0.39812   0.00000  Uiso   1.00
H769   H     0.08152   0.37025   0.60897   0.00000  Uiso   1.00
H770   H     0.02088   0.41330   0.60282   0.00000  Uiso   1.00
H771   H     0.02469   0.41099   0.54050   0.00000  Uiso   1.00
H772   H     0.06086   0.44449   0.57420   0.00000  Uiso   1.00
H773   H     0.09862   0.35258   0.38641   0.00000  Uiso   1.00
H774   H     0.11759   0.27542   0.37564   0.00000  Uiso   1.00
H775   H     0.12697   0.27061   0.43688   0.00000  Uiso   1.00
H776   H     0.00038   0.32755   0.58923   0.00000  Uiso   1.00
H777   H     0.16039   0.30532   0.40135   0.00000  Uiso   1.00
H778   H     0.39953   0.20255   0.58851   0.00000  Uiso   1.00
H779   H     0.42362   0.15501   0.64693   0.00000  Uiso   1.00
H780   H     0.44080   0.12396   0.59592   0.00000  Uiso   1.00
H781   H     0.39381   0.10871   0.62434   0.00000  Uiso   1.00
H782   H     0.08045   0.12628   0.60770   0.00000  Uiso   1.00
H783   H     0.09489   0.20196   0.63760   0.00000  Uiso   1.00
H784   H     0.12022   0.21474   0.58401   0.00000  Uiso   1.00
H785   H     0.14176   0.17270   0.62228   0.00000  Uiso   1.00
H786   H     0.38230   0.31827   0.39737   0.00000  Uiso   1.00
H787   H     0.49989   0.32904   0.41202   0.00000  Uiso   1.00
H788   H     0.43435   0.35748   0.35463   0.00000  Uiso   1.00
H789   H     0.44520   0.39175   0.40517   0.00000  Uiso   1.00
H790   H     0.39704   0.39772   0.37472   0.00000  Uiso   1.00
H791   H     0.43667   0.35314   0.59358   0.00000  Uiso   1.00
H792   H     0.40048   0.30082   0.64011   0.00000  Uiso   1.00
H793   H     0.38790   0.28051   0.58272   0.00000  Uiso   1.00
H794   H     0.35299   0.31743   0.61347   0.00000  Uiso   1.00
H795   H     0.12384   0.18427   0.39938   0.00000  Uiso   1.00
H796   H     0.07156   0.14610   0.35465   0.00000  Uiso   1.00
H797   H     0.06080   0.11062   0.40345   0.00000  Uiso   1.00
H798   H     0.49998   0.17145   0.58745   0.00000  Uiso   1.00
H799   H     0.10946   0.10627   0.37310   0.00000  Uiso   1.00
H800   H     0.18256   0.40050   0.40438   0.00000  Uiso   1.00
H801   H     0.14595   0.45488   0.36039   0.00000  Uiso   1.00
H802   H     0.14009   0.47677   0.41866   0.00000  Uiso   1.00
H803   H     0.10000   0.44257   0.39287   0.00000  Uiso   1.00
H804   H     0.32762   0.12496   0.60813   0.00000  Uiso   1.00
H805   H     0.26505   0.16313   0.59772   0.00000  Uiso   1.00
H806   H     0.27026   0.15737   0.53573   0.00000  Uiso   1.00
H807   H     0.30370   0.19539   0.56801   0.00000  Uiso   1.00
H808   H     0.34518   0.10677   0.38652   0.00000  Uiso   1.00
H809   H     0.24967   0.42258   0.41086   0.00000  Uiso   1.00
H810   H     0.36548   0.03053   0.37236   0.00000  Uiso   1.00
H811   H     0.37669   0.02398   0.43302   0.00000  Uiso   1.00
H812   H     0.40831   0.06077   0.39757   0.00000  Uiso   1.00
H813   H     0.15391   0.44569   0.59249   0.00000  Uiso   1.00
H814   H     0.17877   0.39329   0.64616   0.00000  Uiso   1.00
H815   H     0.19635   0.36749   0.59237   0.00000  Uiso   1.00
H816   H     0.14944   0.34883   0.61914   0.00000  Uiso   1.00
H817   H     0.35094   0.40224   0.61297   0.00000  Uiso   1.00
H818   H     0.36837   0.48006   0.62151   0.00000  Uiso   1.00
H819   H     0.37720   0.48379   0.55999   0.00000  Uiso   1.00
H820   H     0.24882   0.07781   0.58894   0.00000  Uiso   1.00
H821   H     0.41168   0.45105   0.59574   0.00000  Uiso   1.00
H822   H     0.18291   0.09507   0.40336   0.00000  Uiso   1.00
H823   H     0.22616   0.16144   0.39482   0.00000  Uiso   1.00
H824   H     0.23259   0.14489   0.45474   0.00000  Uiso   1.00
H825   H     0.19755   0.18979   0.43969   0.00000  Uiso   1.00
H826   H     0.16907   0.08076   0.59926   0.00000  Uiso   1.00
H827   H     0.12506   0.02028   0.62030   0.00000  Uiso   1.00
H828   H     0.13015   0.01286   0.55811   0.00000  Uiso   1.00
H829   H     0.08588   0.04130   0.58233   0.00000  Uiso   1.00
H830   H     0.32205   0.40901   0.40181   0.00000  Uiso   1.00
H831   H     0.25196   0.07803   0.41211   0.00000  Uiso   1.00
H832   H     0.28334   0.34043   0.38467   0.00000  Uiso   1.00
H833   H     0.27199   0.35327   0.44505   0.00000  Uiso   1.00
H834   H     0.31027   0.31154   0.42961   0.00000  Uiso   1.00
H835   H     0.24997   0.42128   0.58772   0.00000  Uiso   1.00
H836   H     0.42888   0.15543   0.40273   0.00000  Uiso   1.00
N837   N    -0.00000   0.25000   0.61736   0.00000  Uiso   1.00
N838   N     0.40280   0.33863   0.41504   0.00000  Uiso   1.00
N839   N     0.40601   0.34903   0.58729   0.00000  Uiso   1.00
N840   N     0.10222   0.16440   0.41569   0.00000  Uiso   1.00
N841   N     0.15260   0.40674   0.41288   0.00000  Uiso   1.00
N842   N     0.31629   0.12570   0.57489   0.00000  Uiso   1.00
N843   N     0.34972   0.08601   0.41455   0.00000  Uiso   1.00
N844   N     0.14657   0.41235   0.58649   0.00000  Uiso   1.00
N845   N     0.35384   0.42141   0.58347   0.00000  Uiso   1.00
N846   N     0.17761   0.12368   0.42297   0.00000  Uiso   1.00
N847   N     0.14076   0.07886   0.58373   0.00000  Uiso   1.00
N848   N     0.00000   0.25000   0.38264   0.00000  Uiso   1.00
N849   N     0.32765   0.37963   0.41941   0.00000  Uiso   1.00
N850   N     0.25000  -0.00000   0.61736   0.00000  Uiso   1.00
N851   N     0.25000  -0.00000   0.38264   0.00000  Uiso   1.00
N852   N     0.39919   0.16132   0.41283   0.00000  Uiso   1.00
N853   N     0.06935   0.37367   0.57628   0.00000  Uiso   1.00
N854   N     0.10198   0.33269   0.41532   0.00000  Uiso   1.00
N855   N     0.39172   0.16894   0.58555   0.00000  Uiso   1.00
N856   N     0.08894   0.15199   0.58574   0.00000  Uiso   1.00
O857   O     0.04508   0.20491   0.53958   0.00000  Uiso   1.00
O858   O     0.20491   0.04509   0.46042   0.00000  Uiso   1.00
O859   O     0.20491   0.04509   0.53958   0.00000  Uiso   1.00
O860   O     0.29508   0.45491   0.46042   0.00000  Uiso   1.00
O861   O     0.20491   0.45491   0.46042   0.00000  Uiso   1.00
O862   O     0.29508   0.04509   0.53958   0.00000  Uiso   1.00
O863   O     0.29508   0.04509   0.46042   0.00000  Uiso   1.00
O864   O     0.20491   0.45491   0.53958   0.00000  Uiso   1.00
O865   O     0.49867   0.16833   0.37765   0.00000  Uiso   1.00
O866   O     0.00400   0.33125   0.62257   0.00000  Uiso   1.00
O867   O     0.00798   0.33116   0.37949   0.00000  Uiso   1.00
O868   O     0.45491   0.29509   0.46042   0.00000  Uiso   1.00
O869   O     0.00287   0.16836   0.62087   0.00000  Uiso   1.00
O870   O     0.24981   0.41863   0.37729   0.00000  Uiso   1.00
O871   O     0.24833   0.08152   0.62253   0.00000  Uiso   1.00
O872   O     0.25653   0.08119   0.37894   0.00000  Uiso   1.00
O873   O     0.25626   0.41870   0.62062   0.00000  Uiso   1.00
O874   O     0.45491   0.29509   0.53958   0.00000  Uiso   1.00
O875   O     0.04508   0.20491   0.46042   0.00000  Uiso   1.00
O876   O     0.45491   0.20491   0.46042   0.00000  Uiso   1.00
O877   O     0.04508   0.29509   0.53958   0.00000  Uiso   1.00
O878   O     0.04508   0.29509   0.46042   0.00000  Uiso   1.00
O879   O     0.45491   0.20491   0.53958   0.00000  Uiso   1.00
O880   O     0.29508   0.45491   0.53958   0.00000  Uiso   1.00
C881   C     0.55942   0.19061   0.49995   0.00000  Uiso   1.00
C882   C     0.50201   0.28962   0.64281   0.00000  Uiso   1.00
C883   C     0.50283   0.28965   0.35824   0.00000  Uiso   1.00
C884   C     0.50012   0.21021   0.64188   0.00000  Uiso   1.00
C885   C     0.75032   0.46034   0.35716   0.00000  Uiso   1.00
C886   C     0.74983   0.03971   0.64270   0.00000  Uiso   1.00
C887   C     0.75156   0.03967   0.35805   0.00000  Uiso   1.00
C888   C     0.75173   0.46030   0.64177   0.00000  Uiso   1.00
C889   C     0.88706   0.14454   0.45684   0.00000  Uiso   1.00
C890   C     0.59842   0.37116   0.53941   0.00000  Uiso   1.00
C891   C     0.61039   0.35674   0.45743   0.00000  Uiso   1.00
C892   C     0.94075   0.30971   0.50030   0.00000  Uiso   1.00
C893   C     0.88086   0.15132   0.54113   0.00000  Uiso   1.00
C894   C     0.60561   0.13745   0.54237   0.00000  Uiso   1.00
C895   C     0.88791   0.35485   0.45870   0.00000  Uiso   1.00
C896   C     0.89189   0.36231   0.54296   0.00000  Uiso   1.00
C897   C     0.61509   0.14746   0.45933   0.00000  Uiso   1.00
C898   C     0.63897   0.39191   0.45703   0.00000  Uiso   1.00
C899   C     0.84632   0.12322   0.53895   0.00000  Uiso   1.00
C900   C     0.85882   0.10898   0.45706   0.00000  Uiso   1.00
C901   C     0.63363   0.39800   0.54154   0.00000  Uiso   1.00
C902   C     0.86260   0.39663   0.54184   0.00000  Uiso   1.00
C903   C     0.93908   0.19222   0.49995   0.00000  Uiso   1.00
C904   C     0.65013   0.12068   0.46109   0.00000  Uiso   1.00
C905   C     0.63514   0.10327   0.54193   0.00000  Uiso   1.00
C906   C     0.85282   0.38159   0.45938   0.00000  Uiso   1.00
C907   C     0.58969   0.34622   0.49900   0.00000  Uiso   1.00
C908   C     0.90230   0.16236   0.49952   0.00000  Uiso   1.00
C909   C     0.90693   0.34300   0.50082   0.00000  Uiso   1.00
C910   C     0.59347   0.15780   0.50038   0.00000  Uiso   1.00
C911   C     0.83869   0.09747   0.49877   0.00000  Uiso   1.00
C912   C     0.65411   0.41009   0.49966   0.00000  Uiso   1.00
C913   C     0.65867   0.09499   0.50115   0.00000  Uiso   1.00
C914   C     0.55821   0.31062   0.49987   0.00000  Uiso   1.00
C915   C     0.84187   0.40596   0.50003   0.00000  Uiso   1.00
C916   C     0.88053   0.20348   0.39906   0.00000  Uiso   1.00
C917   C     0.54264   0.41264   0.57315   0.00000  Uiso   1.00
C918   C     0.62823   0.29405   0.40701   0.00000  Uiso   1.00
C919   C     0.91369   0.13765   0.61464   0.00000  Uiso   1.00
C920   C     0.61284   0.18705   0.60852   0.00000  Uiso   1.00
C921   C     0.92070   0.37329   0.38605   0.00000  Uiso   1.00
C922   C     0.88584   0.30987   0.60682   0.00000  Uiso   1.00
C923   C     0.58523   0.12995   0.38529   0.00000  Uiso   1.00
C924   C     0.63371   0.44742   0.39547   0.00000  Uiso   1.00
C925   C     0.80877   0.43987   0.49983   0.00000  Uiso   1.00
C926   C     0.78741   0.16230   0.56863   0.00000  Uiso   1.00
C927   C     0.87659   0.04842   0.40396   0.00000  Uiso   1.00
C928   C     0.66902   0.37884   0.61232   0.00000  Uiso   1.00
C929   C     0.87922   0.46110   0.59039   0.00000  Uiso   1.00
C930   C     0.71025   0.15655   0.42848   0.00000  Uiso   1.00
C931   C     0.61942   0.03601   0.58612   0.00000  Uiso   1.00
C932   C     0.79661   0.34450   0.41983   0.00000  Uiso   1.00
C933   C     0.69135   0.06038   0.50029   0.00000  Uiso   1.00
C934   C     0.68977   0.44135   0.49995   0.00000  Uiso   1.00
C935   C     0.80801   0.06089   0.49982   0.00000  Uiso   1.00
C936   C     0.99927   0.21022   0.35734   0.00000  Uiso   1.00
Cu937  Cu    0.50000   0.25000   0.54689   0.00000  Uiso   1.00
Cu938  Cu    0.50000   0.25000   0.45311   0.00000  Uiso   1.00
Cu939  Cu    0.75000  -0.00000   0.54689   0.00000  Uiso   1.00
Cu940  Cu    0.75000  -0.00000   0.45311   0.00000  Uiso   1.00
H941   H     0.50061   0.17176   0.41121   0.00000  Uiso   1.00
H942   H     0.89139   0.21275   0.36388   0.00000  Uiso   1.00
H943   H     0.88860   0.23124   0.42358   0.00000  Uiso   1.00
H944   H     0.84664   0.19966   0.39812   0.00000  Uiso   1.00
H945   H     0.58152   0.37025   0.60897   0.00000  Uiso   1.00
H946   H     0.52088   0.41330   0.60282   0.00000  Uiso   1.00
H947   H     0.52469   0.41099   0.54050   0.00000  Uiso   1.00
H948   H     0.56086   0.44449   0.57420   0.00000  Uiso   1.00
H949   H     0.59862   0.35258   0.38641   0.00000  Uiso   1.00
H950   H     0.61759   0.27542   0.37564   0.00000  Uiso   1.00
H951   H     0.62697   0.27061   0.43688   0.00000  Uiso   1.00
H952   H     0.50038   0.32755   0.58923   0.00000  Uiso   1.00
H953   H     0.66039   0.30532   0.40135   0.00000  Uiso   1.00
H954   H     0.89953   0.20255   0.58851   0.00000  Uiso   1.00
H955   H     0.92362   0.15501   0.64693   0.00000  Uiso   1.00
H956   H     0.94080   0.12396   0.59592   0.00000  Uiso   1.00
H957   H     0.89381   0.10871   0.62434   0.00000  Uiso   1.00
H958   H     0.58045   0.12628   0.60770   0.00000  Uiso   1.00
H959   H     0.59489   0.20196   0.63760   0.00000  Uiso   1.00
H960   H     0.62022   0.21474   0.58401   0.00000  Uiso   1.00
H961   H     0.64176   0.17270   0.62228   0.00000  Uiso   1.00
H962   H     0.88230   0.31827   0.39737   0.00000  Uiso   1.00
H963   H     0.99989   0.32904   0.41202   0.00000  Uiso   1.00
H964   H     0.93435   0.35748   0.35463   0.00000  Uiso   1.00
H965   H     0.94520   0.39175   0.40517   0.00000  Uiso   1.00
H966   H     0.89704   0.39772   0.37472   0.00000  Uiso   1.00
H967   H     0.93667   0.35314   0.59358   0.00000  Uiso   1.00
H968   H     0.90048   0.30082   0.64011   0.00000  Uiso   1.00
H969   H     0.88790   0.28051   0.58272   0.00000  Uiso   1.00
H970   H     0.85299   0.31743   0.61347   0.00000  Uiso   1.00
H971   H     0.62384   0.18427   0.39938   0.00000  Uiso   1.00
H972   H     0.57156   0.14610   0.35465   0.00000  Uiso   1.00
H973   H     0.56080   0.11062   0.40345   0.00000  Uiso   1.00
H974   H     0.99998   0.17145   0.58745   0.00000  Uiso   1.00
H975   H     0.60946   0.10627   0.37310   0.00000  Uiso   1.00
H976   H     0.68256   0.40050   0.40438   0.00000  Uiso   1.00
H977   H     0.64595   0.45488   0.36039   0.00000  Uiso   1.00
H978   H     0.64009   0.47677   0.41866   0.00000  Uiso   1.00
H979   H     0.60000   0.44257   0.39287   0.00000  Uiso   1.00
H980   H     0.82762   0.12496   0.60813   0.00000  Uiso   1.00
H981   H     0.76505   0.16313   0.59772   0.00000  Uiso   1.00
H982   H     0.77026   0.15737   0.53573   0.00000  Uiso   1.00
H983   H     0.80370   0.19539   0.56801   0.00000  Uiso   1.00
H984   H     0.84518   0.10677   0.38652   0.00000  Uiso   1.00
H985   H     0.74967   0.42258   0.41086   0.00000  Uiso   1.00
H986   H     0.86548   0.03053   0.37236   0.00000  Uiso   1.00
H987   H     0.87669   0.02398   0.43302   0.00000  Uiso   1.00
H988   H     0.90831   0.06077   0.39757   0.00000  Uiso   1.00
H989   H     0.65391   0.44569   0.59249   0.00000  Uiso   1.00
H990   H     0.67877   0.39329   0.64616   0.00000  Uiso   1.00
H991   H     0.69635   0.36749   0.59237   0.00000  Uiso   1.00
H992   H     0.64944   0.34883   0.61914   0.00000  Uiso   1.00
H993   H     0.85094   0.40224   0.61297   0.00000  Uiso   1.00
H994   H     0.86837   0.48006   0.62151   0.00000  Uiso   1.00
H995   H     0.87720   0.48379   0.55999   0.00000  Uiso   1.00
H996   H     0.74882   0.07781   0.58894   0.00000  Uiso   1.00
H997   H     0.91168   0.45105   0.59574   0.00000  Uiso   1.00
H998   H     0.68291   0.09507   0.40336   0.00000  Uiso   1.00
H999   H     0.72616   0.16144   0.39482   0.00000  Uiso   1.00
H1000  H     0.73259   0.14489   0.45474   0.00000  Uiso   1.00
H1001  H     0.69755   0.18979   0.43969   0.00000  Uiso   1.00
H1002  H     0.66907   0.08076   0.59926   0.00000  Uiso   1.00
H1003  H     0.62506   0.02028   0.62030   0.00000  Uiso   1.00
H1004  H     0.63015   0.01286   0.55811   0.00000  Uiso   1.00
H1005  H     0.58588   0.04130   0.58233   0.00000  Uiso   1.00
H1006  H     0.82205   0.40901   0.40181   0.00000  Uiso   1.00
H1007  H     0.75196   0.07803   0.41211   0.00000  Uiso   1.00
H1008  H     0.78334   0.34043   0.38467   0.00000  Uiso   1.00
H1009  H     0.77199   0.35327   0.44505   0.00000  Uiso   1.00
H1010  H     0.81027   0.31154   0.42961   0.00000  Uiso   1.00
H1011  H     0.74997   0.42128   0.58772   0.00000  Uiso   1.00
H1012  H     0.92888   0.15543   0.40273   0.00000  Uiso   1.00
N1013  N     0.50000   0.25000   0.61736   0.00000  Uiso   1.00
N1014  N     0.90280   0.33863   0.41504   0.00000  Uiso   1.00
N1015  N     0.90601   0.34903   0.58729   0.00000  Uiso   1.00
N1016  N     0.60222   0.16440   0.41569   0.00000  Uiso   1.00
N1017  N     0.65260   0.40674   0.41288   0.00000  Uiso   1.00
N1018  N     0.81629   0.12570   0.57489   0.00000  Uiso   1.00
N1019  N     0.84972   0.08601   0.41455   0.00000  Uiso   1.00
N1020  N     0.64657   0.41235   0.58649   0.00000  Uiso   1.00
N1021  N     0.85384   0.42141   0.58347   0.00000  Uiso   1.00
N1022  N     0.67761   0.12368   0.42297   0.00000  Uiso   1.00
N1023  N     0.64076   0.07886   0.58373   0.00000  Uiso   1.00
N1024  N     0.50000   0.25000   0.38264   0.00000  Uiso   1.00
N1025  N     0.82765   0.37963   0.41941   0.00000  Uiso   1.00
N1026  N     0.75000  -0.00000   0.61736   0.00000  Uiso   1.00
N1027  N     0.75000  -0.00000   0.38264   0.00000  Uiso   1.00
N1028  N     0.89919   0.16132   0.41283   0.00000  Uiso   1.00
N1029  N     0.56935   0.37367   0.57628   0.00000  Uiso   1.00
N1030  N     0.60198   0.33269   0.41532   0.00000  Uiso   1.00
N1031  N     0.89172   0.16894   0.58555   0.00000  Uiso   1.00
N1032  N     0.58894   0.15199   0.58574   0.00000  Uiso   1.00
O1033  O     0.54508   0.20491   0.53958   0.00000  Uiso   1.00
O1034  O     0.70491   0.04509   0.46042   0.00000  Uiso   1.00
O1035  O     0.70491   0.04509   0.53958   0.00000  Uiso   1.00
O1036  O     0.79508   0.45491   0.46042   0.00000  Uiso   1.00
O1037  O     0.70491   0.45491   0.46042   0.00000  Uiso   1.00
O1038  O     0.79508   0.04509   0.53958   0.00000  Uiso   1.00
O1039  O     0.79508   0.04509   0.46042   0.00000  Uiso   1.00
O1040  O     0.70491   0.45491   0.53958   0.00000  Uiso   1.00
O1041  O     0.99867   0.16833   0.37765   0.00000  Uiso   1.00
O1042  O     0.50400   0.33125   0.62257   0.00000  Uiso   1.00
O1043  O     0.50798   0.33116   0.37949   0.00000  Uiso   1.00
O1044  O     0.95491   0.29509   0.46042   0.00000  Uiso   1.00
O1045  O     0.50287   0.16836   0.62087   0.00000  Uiso   1.00
O1046  O     0.74981   0.41863   0.37729   0.00000  Uiso   1.00
O1047  O     0.74833   0.08152   0.62253   0.00000  Uiso   1.00
O1048  O     0.75653   0.08119   0.37894   0.00000  Uiso   1.00
O1049  O     0.75626   0.41870   0.62062   0.00000  Uiso   1.00
O1050  O     0.95491   0.29509   0.53958   0.00000  Uiso   1.00
O1051  O     0.54508   0.20491   0.46042   0.00000  Uiso   1.00
O1052  O     0.95491   0.20491   0.46042   0.00000  Uiso   1.00
O1053  O     0.54508   0.29509   0.53958   0.00000  Uiso   1.00
O1054  O     0.54508   0.29509   0.46042   0.00000  Uiso   1.00
O1055  O     0.95491   0.20491   0.53958   0.00000  Uiso   1.00
O1056  O     0.79508   0.45491   0.53958   0.00000  Uiso   1.00
C1057  C     0.05942   0.69061   0.49995   0.00000  Uiso   1.00
C1058  C     0.00201   0.78962   0.64281   0.00000  Uiso   1.00
C1059  C     0.00283   0.78965   0.35824   0.00000  Uiso   1.00
C1060  C     0.00012   0.71021   0.64188   0.00000  Uiso   1.00
C1061  C     0.25032   0.96034   0.35716   0.00000  Uiso   1.00
C1062  C     0.24983   0.53971   0.64270   0.00000  Uiso   1.00
C1063  C     0.25156   0.53967   0.35805   0.00000  Uiso   1.00
C1064  C     0.25173   0.96030   0.64177   0.00000  Uiso   1.00
C1065  C     0.38706   0.64454   0.45684   0.00000  Uiso   1.00
C1066  C     0.09842   0.87116   0.53941   0.00000  Uiso   1.00
C1067  C     0.11039   0.85674   0.45743   0.00000  Uiso   1.00
C1068  C     0.44075   0.80971   0.50030   0.00000  Uiso   1.00
C1069  C     0.38086   0.65132   0.54113   0.00000  Uiso   1.00
C1070  C     0.10561   0.63745   0.54237   0.00000  Uiso   1.00
C1071  C     0.38791   0.85485   0.45870   0.00000  Uiso   1.00
C1072  C     0.39189   0.86231   0.54296   0.00000  Uiso   1.00
C1073  C     0.11509   0.64746   0.45933   0.00000  Uiso   1.00
C1074  C     0.13897   0.89191   0.45703   0.00000  Uiso   1.00
C1075  C     0.34632   0.62322   0.53895   0.00000  Uiso   1.00
C1076  C     0.35882   0.60898   0.45706   0.00000  Uiso   1.00
C1077  C     0.13363   0.89800   0.54154   0.00000  Uiso   1.00
C1078  C     0.36260   0.89663   0.54184   0.00000  Uiso   1.00
C1079  C     0.43908   0.69222   0.49995   0.00000  Uiso   1.00
C1080  C     0.15013   0.62068   0.46109   0.00000  Uiso   1.00
C1081  C     0.13514   0.60327   0.54193   0.00000  Uiso   1.00
C1082  C     0.35282   0.88159   0.45938   0.00000  Uiso   1.00
C1083  C     0.08969   0.84622   0.49900   0.00000  Uiso   1.00
C1084  C     0.40230   0.66236   0.49952   0.00000  Uiso   1.00
C1085  C     0.40693   0.84300   0.50082   0.00000  Uiso   1.00
C1086  C     0.09347   0.65780   0.50038   0.00000  Uiso   1.00
C1087  C     0.33869   0.59747   0.49877   0.00000  Uiso   1.00
C1088  C     0.15411   0.91009   0.49966   0.00000  Uiso   1.00
C1089  C     0.15867   0.59499   0.50115   0.00000  Uiso   1.00
C1090  C     0.05821   0.81062   0.49987   0.00000  Uiso   1.00
C1091  C     0.34187   0.90596   0.50003   0.00000  Uiso   1.00
C1092  C     0.38053   0.70348   0.39906   0.00000  Uiso   1.00
C1093  C     0.04264   0.91264   0.57315   0.00000  Uiso   1.00
C1094  C     0.12823   0.79405   0.40701   0.00000  Uiso   1.00
C1095  C     0.41369   0.63765   0.61464   0.00000  Uiso   1.00
C1096  C     0.11284   0.68705   0.60852   0.00000  Uiso   1.00
C1097  C     0.42070   0.87329   0.38605   0.00000  Uiso   1.00
C1098  C     0.38584   0.80987   0.60682   0.00000  Uiso   1.00
C1099  C     0.08523   0.62995   0.38529   0.00000  Uiso   1.00
C1100  C     0.13371   0.94742   0.39547   0.00000  Uiso   1.00
C1101  C     0.30877   0.93987   0.49983   0.00000  Uiso   1.00
C1102  C     0.28741   0.66230   0.56863   0.00000  Uiso   1.00
C1103  C     0.37659   0.54842   0.40396   0.00000  Uiso   1.00
C1104  C     0.16902   0.87884   0.61232   0.00000  Uiso   1.00
C1105  C     0.37922   0.96110   0.59039   0.00000  Uiso   1.00
C1106  C     0.21025   0.65655   0.42848   0.00000  Uiso   1.00
C1107  C     0.11942   0.53601   0.58612   0.00000  Uiso   1.00
C1108  C     0.29661   0.84450   0.41983   0.00000  Uiso   1.00
C1109  C     0.19135   0.56038   0.50029   0.00000  Uiso   1.00
C1110  C     0.18977   0.94135   0.49995   0.00000  Uiso   1.00
C1111  C     0.30801   0.56089   0.49982   0.00000  Uiso   1.00
C1112  C     0.49927   0.71022   0.35734   0.00000  Uiso   1.00
Cu1113 Cu    0.00000   0.75000   0.54689   0.00000  Uiso   1.00
Cu1114 Cu    0.00000   0.75000   0.45311   0.00000  Uiso   1.00
Cu1115 Cu    0.25000   0.50000   0.54689   0.00000  Uiso   1.00
Cu1116 Cu    0.25000   0.50000   0.45311   0.00000  Uiso   1.00
H1117  H     0.00061   0.67176   0.41121   0.00000  Uiso   1.00
H1118  H     0.39139   0.71275   0.36388   0.00000  Uiso   1.00
H1119  H     0.38860   0.73124   0.42358   0.00000  Uiso   1.00
H1120  H     0.34664   0.69966   0.39812   0.00000  Uiso   1.00
H1121  H     0.08152   0.87025   0.60897   0.00000  Uiso   1.00
H1122  H     0.02088   0.91330   0.60282   0.00000  Uiso   1.00
H1123  H     0.02469   0.91099   0.54050   0.00000  Uiso   1.00
H1124  H     0.06086   0.94449   0.57420   0.00000  Uiso   1.00
H1125  H     0.09862   0.85258   0.38641   0.00000  Uiso   1.00
H1126  H     0.11759   0.77542   0.37564   0.00000  Uiso   1.00
H1127  H     0.12697   0.77061   0.43688   0.00000  Uiso   1.00
H1128  H     0.00038   0.82755   0.58923   0.00000  Uiso   1.00
H1129  H     0.16039   0.80532   0.40135   0.00000  Uiso   1.00
H1130  H     0.39953   0.70255   0.58851   0.00000  Uiso   1.00
H1131  H     0.42362   0.65501   0.64693   0.00000  Uiso   1.00
H1132  H     0.44080   0.62396   0.59592   0.00000  Uiso   1.00
H1133  H     0.39381   0.60871   0.62434   0.00000  Uiso   1.00
H1134  H     0.08045   0.62628   0.60770   0.00000  Uiso   1.00
H1135  H     0.09489   0.70196   0.63760   0.00000  Uiso   1.00
H1136  H     0.12022   0.71474   0.58401   0.00000  Uiso   1.00
H1137  H     0.14176   0.67270   0.62228   0.00000  Uiso   1.00
H1138  H     0.38230   0.81827   0.39737   0.00000  Uiso   1.00
H1139  H     0.49989   0.82904   0.41202   0.00000  Uiso   1.00
H1140  H     0.43435   0.85748   0.35463   0.00000  Uiso   1.00
H1141  H     0.44520   0.89175   0.40517   0.00000  Uiso   1.00
H1142  H     0.39704   0.89772   0.37472   0.00000  Uiso   1.00
H1143  H     0.43667   0.85314   0.59358   0.00000  Uiso   1.00
H1144  H     0.40048   0.80082   0.64011   0.00000  Uiso   1.00
H1145  H     0.38790   0.78051   0.58272   0.00000  Uiso   1.00
H1146  H     0.35299   0.81743   0.61347   0.00000  Uiso   1.00
H1147  H     0.12384   0.68427   0.39938   0.00000  Uiso   1.00
H1148  H     0.07156   0.64610   0.35465   0.00000  Uiso   1.00
H1149  H     0.06080   0.61062   0.40345   0.00000  Uiso   1.00
H1150  H     0.49998   0.67145   0.58745   0.00000  Uiso   1.00
H1151  H     0.10946   0.60627   0.37310   0.00000  Uiso   1.00
H1152  H     0.18256   0.90050   0.40438   0.00000  Uiso   1.00
H1153  H     0.14595   0.95488   0.36039   0.00000  Uiso   1.00
H1154  H     0.14009   0.97677   0.41866   0.00000  Uiso   1.00
H1155  H     0.10000   0.94257   0.39287   0.00000  Uiso   1.00
H1156  H     0.32762   0.62496   0.60813   0.00000  Uiso   1.00
H1157  H     0.26505   0.66313   0.59772   0.00000  Uiso   1.00
H1158  H     0.27026   0.65737   0.53573   0.00000  Uiso   1.00
H1159  H     0.30370   0.69539   0.56801   0.00000  Uiso   1.00
H1160  H     0.34518   0.60677   0.38652   0.00000  Uiso   1.00
H1161  H     0.24967   0.92258   0.41086   0.00000  Uiso   1.00
H1162  H     0.36548   0.53053   0.37236   0.00000  Uiso   1.00
H1163  H     0.37669   0.52398   0.43302   0.00000  Uiso   1.00
H1164  H     0.40831   0.56077   0.39757   0.00000  Uiso   1.00
H1165  H     0.15391   0.94569   0.59249   0.00000  Uiso   1.00
H1166  H     0.17877   0.89329   0.64616   0.00000  Uiso   1.00
H1167  H     0.19635   0.86749   0.59237   0.00000  Uiso   1.00
H1168  H     0.14944   0.84883   0.61914   0.00000  Uiso   1.00
H1169  H     0.35094   0.90224   0.61297   0.00000  Uiso   1.00
H1170  H     0.36837   0.98006   0.62151   0.00000  Uiso   1.00
H1171  H     0.37720   0.98379   0.55999   0.00000  Uiso   1.00
H1172  H     0.24882   0.57781   0.58894   0.00000  Uiso   1.00
H1173  H     0.41168   0.95105   0.59574   0.00000  Uiso   1.00
H1174  H     0.18291   0.59507   0.40336   0.00000  Uiso   1.00
H1175  H     0.22616   0.66144   0.39482   0.00000  Uiso   1.00
H1176  H     0.23259   0.64489   0.45474   0.00000  Uiso   1.00
H1177  H     0.19755   0.68979   0.43969   0.00000  Uiso   1.00
H1178  H     0.16907   0.58076   0.59926   0.00000  Uiso   1.00
H1179  H     0.12506   0.52028   0.62030   0.00000  Uiso   1.00
H1180  H     0.13015   0.51286   0.55811   0.00000  Uiso   1.00
H1181  H     0.08588   0.54130   0.58233   0.00000  Uiso   1.00
H1182  H     0.32205   0.90901   0.40181   0.00000  Uiso   1.00
H1183  H     0.25196   0.57803   0.41211   0.00000  Uiso   1.00
H1184  H     0.28334   0.84043   0.38467   0.00000  Uiso   1.00
H1185  H     0.27199   0.85327   0.44505   0.00000  Uiso   1.00
H1186  H     0.31027   0.81154   0.42961   0.00000  Uiso   1.00
H1187  H     0.24997   0.92128   0.58772   0.00000  Uiso   1.00
H1188  H     0.42888   0.65543   0.40273   0.00000  Uiso   1.00
N1189  N    -0.00000   0.75000   0.61736   0.00000  Uiso   1.00
N1190  N     0.40280   0.83863   0.41504   0.00000  Uiso   1.00
N1191  N     0.40601   0.84903   0.58729   0.00000  Uiso   1.00
N1192  N     0.10222   0.66440   0.41569   0.00000  Uiso   1.00
N1193  N     0.15260   0.90674   0.41288   0.00000  Uiso   1.00
N1194  N     0.31629   0.62570   0.57489   0.00000  Uiso   1.00
N1195  N     0.34972   0.58601   0.41455   0.00000  Uiso   1.00
N1196  N     0.14657   0.91235   0.58649   0.00000  Uiso   1.00
N1197  N     0.35384   0.92141   0.58347   0.00000  Uiso   1.00
N1198  N     0.17761   0.62368   0.42297   0.00000  Uiso   1.00
N1199  N     0.14076   0.57886   0.58373   0.00000  Uiso   1.00
N1200  N     0.00000   0.75000   0.38264   0.00000  Uiso   1.00
N1201  N     0.32765   0.87963   0.41941   0.00000  Uiso   1.00
N1202  N     0.25000   0.50000   0.61736   0.00000  Uiso   1.00
N1203  N     0.25000   0.50000   0.38264   0.00000  Uiso   1.00
N1204  N     0.39919   0.66132   0.41283   0.00000  Uiso   1.00
N1205  N     0.06935   0.87367   0.57628   0.00000  Uiso   1.00
N1206  N     0.10198   0.83269   0.41532   0.00000  Uiso   1.00
N1207  N     0.39172   0.66894   0.58555   0.00000  Uiso   1.00
N1208  N     0.08894   0.65199   0.58574   0.00000  Uiso   1.00
O1209  O     0.04508   0.70491   0.53958   0.00000  Uiso   1.00
O1210  O     0.20491   0.54509   0.46042   0.00000  Uiso   1.00
O1211  O     0.20491   0.54509   0.53958   0.00000  Uiso   1.00
O1212  O     0.29508   0.95491   0.46042   0.00000  Uiso   1.00
O1213  O     0.20491   0.95491   0.46042   0.00000  Uiso   1.00
O1214  O     0.29508   0.54509   0.53958   0.00000  Uiso   1.00
O1215  O     0.29508   0.54509   0.46042   0.00000  Uiso   1.00
O1216  O     0.20491   0.95491   0.53958   0.00000  Uiso   1.00
O1217  O     0.49867   0.66833   0.37765   0.00000  Uiso   1.00
O1218  O     0.00400   0.83125   0.62257   0.00000  Uiso   1.00
O1219  O     0.00798   0.83116   0.37949   0.00000  Uiso   1.00
O1220  O     0.45491   0.79509   0.46042   0.00000  Uiso   1.00
O1221  O     0.00287   0.66836   0.62087   0.00000  Uiso   1.00
O1222  O     0.24981   0.91863   0.37729   0.00000  Uiso   1.00
O1223  O     0.24833   0.58152   0.62253   0.00000  Uiso   1.00
O1224  O     0.25653   0.58119   0.37894   0.00000  Uiso   1.00
O1225  O     0.25626   0.91870   0.62062   0.00000  Uiso   1.00
O1226  O     0.45491   0.79509   0.53958   0.00000  Uiso   1.00
O1227  O     0.04508   0.70491   0.46042   0.00000  Uiso   1.00
O1228  O     0.45491   0.70491   0.46042   0.00000  Uiso   1.00
O1229  O     0.04508   0.79509   0.53958   0.00000  Uiso   1.00
O1230  O     0.04508   0.79509   0.46042   0.00000  Uiso   1.00
O1231  O     0.45491   0.70491   0.53958   0.00000  Uiso   1.00
O1232  O     0.29508   0.95491   0.53958   0.00000  Uiso   1.00
C1233  C     0.55942   0.69061   0.49995   0.00000  Uiso   1.00
C1234  C     0.50201   0.78962   0.64281   0.00000  Uiso   1.00
C1235  C     0.50283   0.78965   0.35824   0.00000  Uiso   1.00
C1236  C     0.50012   0.71021   0.64188   0.00000  Uiso   1.00
C1237  C     0.75032   0.96034   0.35716   0.00000  Uiso   1.00
C1238  C     0.74983   0.53971   0.64270   0.00000  Uiso   1.00
C1239  C     0.75156   0.53967   0.35805   0.00000  Uiso   1.00
C1240  C     0.75173   0.96030   0.64177   0.00000  Uiso   1.00
C1241  C     0.88706   0.64454   0.45684   0.00000  Uiso   1.00
C1242  C     0.59842   0.87116   0.53941   0.00000  Uiso   1.00
C1243  C     0.61039   0.85674   0.45743   0.00000  Uiso   1.00
C1244  C     0.94075   0.80971   0.50030   0.00000  Uiso   1.00
C1245  C     0.88086   0.65132   0.54113   0.00000  Uiso   1.00
C1246  C     0.60561   0.63745   0.54237   0.00000  Uiso   1.00
C1247  C     0.88791   0.85485   0.45870   0.00000  Uiso   1.00
C1248  C     0.89189   0.86231   0.54296   0.00000  Uiso   1.00
C1249  C     0.61509   0.64746   0.45933   0.00000  Uiso   1.00
C1250  C     0.63897   0.89191   0.45703   0.00000  Uiso   1.00
C1251  C     0.84632   0.62322   0.53895   0.00000  Uiso   1.00
C1252  C     0.85882   0.60898   0.45706   0.00000  Uiso   1.00
C1253  C     0.63363   0.89800   0.54154   0.00000  Uiso   1.00
C1254  C     0.86260   0.89663   0.54184   0.00000  Uiso   1.00
C1255  C     0.93908   0.69222   0.49995   0.00000  Uiso   1.00
C1256  C     0.65013   0.62068   0.46109   0.00000  Uiso   1.00
C1257  C     0.63514   0.60327   0.54193   0.00000  Uiso   1.00
C1258  C     0.85282   0.88159   0.45938   0.00000  Uiso   1.00
C1259  C     0.58969   0.84622   0.49900   0.00000  Uiso   1.00
C1260  C     0.90230   0.66236   0.49952   0.00000  Uiso   1.00
C1261  C     0.90693   0.84300   0.50082   0.00000  Uiso   1.00
C1262  C     0.59347   0.65780   0.50038   0.00000  Uiso   1.00
C1263  C     0.83869   0.59747   0.49877   0.00000  Uiso   1.00
C1264  C     0.65411   0.91009   0.49966   0.00000  Uiso   1.00
C1265  C     0.65867   0.59499   0.50115   0.00000  Uiso   1.00
C1266  C     0.55821   0.81062   0.49987   0.00000  Uiso   1.00
C1267  C     0.84187   0.90596   0.50003   0.00000  Uiso   1.00
C1268  C     0.88053   0.70348   0.39906   0.00000  Uiso   1.00
C1269  C     0.54264   0.91264   0.57315   0.00000  Uiso   1.00
C1270  C     0.62823   0.79405   0.40701   0.00000  Uiso   1.00
C1271  C     0.91369   0.63765   0.61464   0.00000  Uiso   1.00
C1272  C     0.61284   0.68705   0.60852   0.00000  Uiso   1.00
C1273  C     0.92070   0.87329   0.38605   0.00000  Uiso   1.00
C1274  C     0.88584   0.80987   0.60682   0.00000  Uiso   1.00
C1275  C     0.58523   0.62995   0.38529   0.00000  Uiso   1.00
C1276  C     0.63371   0.94742   0.39547   0.00000  Uiso   1.00
C1277  C     0.80877   0.93987   0.49983   0.00000  Uiso   1.00
C1278  C     0.78741   0.66230   0.56863   0.00000  Uiso   1.00
C1279  C     0.87659   0.54842   0.40396   0.00000  Uiso   1.00
C1280  C     0.66902   0.87884   0.61232   0.00000  Uiso   1.00
C1281  C     0.87922   0.96110   0.59039   0.00000  Uiso   1.00
C1282  C     0.71025   0.65655   0.42848   0.00000  Uiso   1.00
C1283  C     0.61942   0.53601   0.58612   0.00000  Uiso   1.00
C1284  C     0.79661   0.84450   0.41983   0.00000  Uiso   1.00
C1285  C     0.69135   0.56038   0.50029   0.00000  Uiso   1.00
C1286  C     0.68977   0.94135   0.49995   0.00000  Uiso   1.00
C1287  C     0.80801   0.56089   0.49982   0.00000  Uiso   1.00
C1288  C     0.99927   0.71022   0.35734   0.00000  Uiso   1.00
Cu1289 Cu    0.50000   0.75000   0.54689   0.00000  Uiso   1.00
Cu1290 Cu    0.50000   0.75000   0.45311   0.00000  Uiso   1.00
Cu1291 Cu    0.75000   0.50000   0.54689   0.00000  Uiso   1.00
Cu1292 Cu    0.75000   0.50000   0.45311   0.00000  Uiso   1.00
H1293  H     0.50061   0.67176   0.41121   0.00000  Uiso   1.00
H1294  H     0.89139   0.71275   0.36388   0.00000  Uiso   1.00
H1295  H     0.88860   0.73124   0.42358   0.00000  Uiso   1.00
H1296  H     0.84664   0.69966   0.39812   0.00000  Uiso   1.00
H1297  H     0.58152   0.87025   0.60897   0.00000  Uiso   1.00
H1298  H     0.52088   0.91330   0.60282   0.00000  Uiso   1.00
H1299  H     0.52469   0.91099   0.54050   0.00000  Uiso   1.00
H1300  H     0.56086   0.94449   0.57420   0.00000  Uiso   1.00
H1301  H     0.59862   0.85258   0.38641   0.00000  Uiso   1.00
H1302  H     0.61759   0.77542   0.37564   0.00000  Uiso   1.00
H1303  H     0.62697   0.77061   0.43688   0.00000  Uiso   1.00
H1304  H     0.50038   0.82755   0.58923   0.00000  Uiso   1.00
H1305  H     0.66039   0.80532   0.40135   0.00000  Uiso   1.00
H1306  H     0.89953   0.70255   0.58851   0.00000  Uiso   1.00
H1307  H     0.92362   0.65501   0.64693   0.00000  Uiso   1.00
H1308  H     0.94080   0.62396   0.59592   0.00000  Uiso   1.00
H1309  H     0.89381   0.60871   0.62434   0.00000  Uiso   1.00
H1310  H     0.58045   0.62628   0.60770   0.00000  Uiso   1.00
H1311  H     0.59489   0.70196   0.63760   0.00000  Uiso   1.00
H1312  H     0.62022   0.71474   0.58401   0.00000  Uiso   1.00
H1313  H     0.64176   0.67270   0.62228   0.00000  Uiso   1.00
H1314  H     0.88230   0.81827   0.39737   0.00000  Uiso   1.00
H1315  H     0.99989   0.82904   0.41202   0.00000  Uiso   1.00
H1316  H     0.93435   0.85748   0.35463   0.00000  Uiso   1.00
H1317  H     0.94520   0.89175   0.40517   0.00000  Uiso   1.00
H1318  H     0.89704   0.89772   0.37472   0.00000  Uiso   1.00
H1319  H     0.93667   0.85314   0.59358   0.00000  Uiso   1.00
H1320  H     0.90048   0.80082   0.64011   0.00000  Uiso   1.00
H1321  H     0.88790   0.78051   0.58272   0.00000  Uiso   1.00
H1322  H     0.85299   0.81743   0.61347   0.00000  Uiso   1.00
H1323  H     0.62384   0.68427   0.39938   0.00000  Uiso   1.00
H1324  H     0.57156   0.64610   0.35465   0.00000  Uiso   1.00
H1325  H     0.56080   0.61062   0.40345   0.00000  Uiso   1.00
H1326  H     0.99998   0.67145   0.58745   0.00000  Uiso   1.00
H1327  H     0.60946   0.60627   0.37310   0.00000  Uiso   1.00
H1328  H     0.68256   0.90050   0.40438   0.00000  Uiso   1.00
H1329  H     0.64595   0.95488   0.36039   0.00000  Uiso   1.00
H1330  H     0.64009   0.97677   0.41866   0.00000  Uiso   1.00
H1331  H     0.60000   0.94257   0.39287   0.00000  Uiso   1.00
H1332  H     0.82762   0.62496   0.60813   0.00000  Uiso   1.00
H1333  H     0.76505   0.66313   0.59772   0.00000  Uiso   1.00
H1334  H     0.77026   0.65737   0.53573   0.00000  Uiso   1.00
H1335  H     0.80370   0.69539   0.56801   0.00000  Uiso   1.00
H1336  H     0.84518   0.60677   0.38652   0.00000  Uiso   1.00
H1337  H     0.74967   0.92258   0.41086   0.00000  Uiso   1.00
H1338  H     0.86548   0.53053   0.37236   0.00000  Uiso   1.00
H1339  H     0.87669   0.52398   0.43302   0.00000  Uiso   1.00
H1340  H     0.90831   0.56077   0.39757   0.00000  Uiso   1.00
H1341  H     0.65391   0.94569   0.59249   0.00000  Uiso   1.00
H1342  H     0.67877   0.89329   0.64616   0.00000  Uiso   1.00
H1343  H     0.69635   0.86749   0.59237   0.00000  Uiso   1.00
H1344  H     0.64944   0.84883   0.61914   0.00000  Uiso   1.00
H1345  H     0.85094   0.90224   0.61297   0.00000  Uiso   1.00
H1346  H     0.86837   0.98006   0.62151   0.00000  Uiso   1.00
H1347  H     0.87720   0.98379   0.55999   0.00000  Uiso   1.00
H1348  H     0.74882   0.57781   0.58894   0.00000  Uiso   1.00
H1349  H     0.91168   0.95105   0.59574   0.00000  Uiso   1.00
H1350  H     0.68291   0.59507   0.40336   0.00000  Uiso   1.00
H1351  H     0.72616   0.66144   0.39482   0.00000  Uiso   1.00
H1352  H     0.73259   0.64489   0.45474   0.00000  Uiso   1.00
H1353  H     0.69755   0.68979   0.43969   0.00000  Uiso   1.00
H1354  H     0.66907   0.58076   0.59926   0.00000  Uiso   1.00
H1355  H     0.62506   0.52028   0.62030   0.00000  Uiso   1.00
H1356  H     0.63015   0.51286   0.55811   0.00000  Uiso   1.00
H1357  H     0.58588   0.54130   0.58233   0.00000  Uiso   1.00
H1358  H     0.82205   0.90901   0.40181   0.00000  Uiso   1.00
H1359  H     0.75196   0.57803   0.41211   0.00000  Uiso   1.00
H1360  H     0.78334   0.84043   0.38467   0.00000  Uiso   1.00
H1361  H     0.77199   0.85327   0.44505   0.00000  Uiso   1.00
H1362  H     0.81027   0.81154   0.42961   0.00000  Uiso   1.00
H1363  H     0.74997   0.92128   0.58772   0.00000  Uiso   1.00
H1364  H     0.92888   0.65543   0.40273   0.00000  Uiso   1.00
N1365  N     0.50000   0.75000   0.61736   0.00000  Uiso   1.00
N1366  N     0.90280   0.83863   0.41504   0.00000  Uiso   1.00
N1367  N     0.90601   0.84903   0.58729   0.00000  Uiso   1.00
N1368  N     0.60222   0.66440   0.41569   0.00000  Uiso   1.00
N1369  N     0.65260   0.90674   0.41288   0.00000  Uiso   1.00
N1370  N     0.81629   0.62570   0.57489   0.00000  Uiso   1.00
N1371  N     0.84972   0.58601   0.41455   0.00000  Uiso   1.00
N1372  N     0.64657   0.91235   0.58649   0.00000  Uiso   1.00
N1373  N     0.85384   0.92141   0.58347   0.00000  Uiso   1.00
N1374  N     0.67761   0.62368   0.42297   0.00000  Uiso   1.00
N1375  N     0.64076   0.57886   0.58373   0.00000  Uiso   1.00
N1376  N     0.50000   0.75000   0.38264   0.00000  Uiso   1.00
N1377  N     0.82765   0.87963   0.41941   0.00000  Uiso   1.00
N1378  N     0.75000   0.50000   0.61736   0.00000  Uiso   1.00
N1379  N     0.75000   0.50000   0.38264   0.00000  Uiso   1.00
N1380  N     0.89919   0.66132   0.41283   0.00000  Uiso   1.00
N1381  N     0.56935   0.87367   0.57628   0.00000  Uiso   1.00
N1382  N     0.60198   0.83269   0.41532   0.00000  Uiso   1.00
N1383  N     0.89172   0.66894   0.58555   0.00000  Uiso   1.00
N1384  N     0.58894   0.65199   0.58574   0.00000  Uiso   1.00
O1385  O     0.54508   0.70491   0.53958   0.00000  Uiso   1.00
O1386  O     0.70491   0.54509   0.46042   0.00000  Uiso   1.00
O1387  O     0.70491   0.54509   0.53958   0.00000  Uiso   1.00
O1388  O     0.79508   0.95491   0.46042   0.00000  Uiso   1.00
O1389  O     0.70491   0.95491   0.46042   0.00000  Uiso   1.00
O1390  O     0.79508   0.54509   0.53958   0.00000  Uiso   1.00
O1391  O     0.79508   0.54509   0.46042   0.00000  Uiso   1.00
O1392  O     0.70491   0.95491   0.53958   0.00000  Uiso   1.00
O1393  O     0.99867   0.66833   0.37765   0.00000  Uiso   1.00
O1394  O     0.50400   0.83125   0.62257   0.00000  Uiso   1.00
O1395  O     0.50798   0.83116   0.37949   0.00000  Uiso   1.00
O1396  O     0.95491   0.79509   0.46042   0.00000  Uiso   1.00
O1397  O     0.50287   0.66836   0.62087   0.00000  Uiso   1.00
O1398  O     0.74981   0.91863   0.37729   0.00000  Uiso   1.00
O1399  O     0.74833   0.58152   0.62253   0.00000  Uiso   1.00
O1400  O     0.75653   0.58119   0.37894   0.00000  Uiso   1.00
O1401  O     0.75626   0.91870   0.62062   0.00000  Uiso   1.00
O1402  O     0.95491   0.79509   0.53958   0.00000  Uiso   1.00
O1403  O     0.54508   0.70491   0.46042   0.00000  Uiso   1.00
O1404  O     0.95491   0.70491   0.46042   0.00000  Uiso   1.00
O1405  O     0.54508   0.79509   0.53958   0.00000  Uiso   1.00
O1406  O     0.54508   0.79509   0.46042   0.00000  Uiso   1.00
O1407  O     0.95491   0.70491   0.53958   0.00000  Uiso   1.00
O1408  O     0.79508   0.95491   0.53958   0.00000  Uiso   1.00
C1409  C     0.05942   0.19061   0.83328   0.00000  Uiso   1.00
C1410  C     0.00201   0.28962   0.97614   0.00000  Uiso   1.00
C1411  C     0.00283   0.28965   0.69157   0.00000  Uiso   1.00
C1412  C     0.00012   0.21021   0.97522   0.00000  Uiso   1.00
C1413  C     0.25032   0.46034   0.69050   0.00000  Uiso   1.00
C1414  C     0.24983   0.03971   0.97604   0.00000  Uiso   1.00
C1415  C     0.25156   0.03967   0.69138   0.00000  Uiso   1.00
C1416  C     0.25173   0.46030   0.97511   0.00000  Uiso   1.00
C1417  C     0.38706   0.14454   0.79017   0.00000  Uiso   1.00
C1418  C     0.09842   0.37116   0.87275   0.00000  Uiso   1.00
C1419  C     0.11039   0.35674   0.79076   0.00000  Uiso   1.00
C1420  C     0.44075   0.30971   0.83363   0.00000  Uiso   1.00
C1421  C     0.38086   0.15132   0.87446   0.00000  Uiso   1.00
C1422  C     0.10561   0.13745   0.87570   0.00000  Uiso   1.00
C1423  C     0.38791   0.35485   0.79203   0.00000  Uiso   1.00
C1424  C     0.39189   0.36231   0.87629   0.00000  Uiso   1.00
C1425  C     0.11509   0.14746   0.79266   0.00000  Uiso   1.00
C1426  C     0.13897   0.39191   0.79036   0.00000  Uiso   1.00
C1427  C     0.34632   0.12322   0.87228   0.00000  Uiso   1.00
C1428  C     0.35882   0.10898   0.79040   0.00000  Uiso   1.00
C1429  C     0.13363   0.39800   0.87488   0.00000  Uiso   1.00
C1430  C     0.36260   0.39663   0.87517   0.00000  Uiso   1.00
C1431  C     0.43908   0.19222   0.83328   0.00000  Uiso   1.00
C1432  C     0.15013   0.12068   0.79442   0.00000  Uiso   1.00
C1433  C     0.13514   0.10327   0.87527   0.00000  Uiso   1.00
C1434  C     0.35282   0.38159   0.79272   0.00000  Uiso   1.00
C1435  C     0.08969   0.34622   0.83233   0.00000  Uiso   1.00
C1436  C     0.40230   0.16236   0.83285   0.00000  Uiso   1.00
C1437  C     0.40693   0.34300   0.83415   0.00000  Uiso   1.00
C1438  C     0.09347   0.15780   0.83372   0.00000  Uiso   1.00
C1439  C     0.33869   0.09747   0.83210   0.00000  Uiso   1.00
C1440  C     0.15411   0.41009   0.83299   0.00000  Uiso   1.00
C1441  C     0.15867   0.09499   0.83449   0.00000  Uiso   1.00
C1442  C     0.05821   0.31062   0.83321   0.00000  Uiso   1.00
C1443  C     0.34187   0.40596   0.83336   0.00000  Uiso   1.00
C1444  C     0.38053   0.20348   0.73239   0.00000  Uiso   1.00
C1445  C     0.04264   0.41264   0.90649   0.00000  Uiso   1.00
C1446  C     0.12823   0.29405   0.74034   0.00000  Uiso   1.00
C1447  C     0.41369   0.13765   0.94797   0.00000  Uiso   1.00
C1448  C     0.11284   0.18705   0.94185   0.00000  Uiso   1.00
C1449  C     0.42070   0.37329   0.71938   0.00000  Uiso   1.00
C1450  C     0.38584   0.30987   0.94015   0.00000  Uiso   1.00
C1451  C     0.08523   0.12995   0.71862   0.00000  Uiso   1.00
C1452  C     0.13371   0.44742   0.72880   0.00000  Uiso   1.00
C1453  C     0.30877   0.43987   0.83316   0.00000  Uiso   1.00
C1454  C     0.28741   0.16230   0.90196   0.00000  Uiso   1.00
C1455  C     0.37659   0.04842   0.73730   0.00000  Uiso   1.00
C1456  C     0.16902   0.37884   0.94565   0.00000  Uiso   1.00
C1457  C     0.37922   0.46110   0.92373   0.00000  Uiso   1.00
C1458  C     0.21025   0.15655   0.76181   0.00000  Uiso   1.00
C1459  C     0.11942   0.03601   0.91945   0.00000  Uiso   1.00
C1460  C     0.29661   0.34450   0.75317   0.00000  Uiso   1.00
C1461  C     0.19135   0.06038   0.83363   0.00000  Uiso   1.00
C1462  C     0.18977   0.44135   0.83329   0.00000  Uiso   1.00
C1463  C     0.30801   0.06089   0.83316   0.00000  Uiso   1.00
C1464  C     0.49927   0.21022   0.69068   0.00000  Uiso   1.00
Cu1465 Cu    0.00000   0.25000   0.88022   0.00000  Uiso   1.00
Cu1466 Cu    0.00000   0.25000   0.78645   0.00000  Uiso   1.00
Cu1467 Cu    0.25000  -0.00000   0.88022   0.00000  Uiso   1.00
Cu1468 Cu    0.25000  -0.00000   0.78645   0.00000  Uiso   1.00
H1469  H     0.00061   0.17176   0.74454   0.00000  Uiso   1.00
H1470  H     0.39139   0.21275   0.69721   0.00000  Uiso   1.00
H1471  H     0.38860   0.23124   0.75691   0.00000  Uiso   1.00
H1472  H     0.34664   0.19966   0.73146   0.00000  Uiso   1.00
H1473  H     0.08152   0.37025   0.94230   0.00000  Uiso   1.00
H1474  H     0.02088   0.41330   0.93615   0.00000  Uiso   1.00
H1475  H     0.02469   0.41099   0.87383   0.00000  Uiso   1.00
H1476  H     0.06086   0.44449   0.90754   0.00000  Uiso   1.00
H1477  H     0.09862   0.35258   0.71975   0.00000  Uiso   1.00
H1478  H     0.11759   0.27542   0.70897   0.00000  Uiso   1.00
H1479  H     0.12697   0.27061   0.77022   0.00000  Uiso   1.00
H1480  H     0.00038   0.32755   0.92256   0.00000  Uiso   1.00
H1481  H     0.16039   0.30532   0.73468   0.00000  Uiso   1.00
H1482  H     0.39953   0.20255   0.92185   0.00000  Uiso   1.00
H1483  H     0.42362   0.15501   0.98027   0.00000  Uiso   1.00
H1484  H     0.44080   0.12396   0.92926   0.00000  Uiso   1.00
H1485  H     0.39381   0.10871   0.95768   0.00000  Uiso   1.00
H1486  H     0.08045   0.12628   0.94104   0.00000  Uiso   1.00
H1487  H     0.09489   0.20196   0.97093   0.00000  Uiso   1.00
H1488  H     0.12022   0.21474   0.91734   0.00000  Uiso   1.00
H1489  H     0.14176   0.17270   0.95561   0.00000  Uiso   1.00
H1490  H     0.38230   0.31827   0.73070   0.00000  Uiso   1.00
H1491  H     0.49989   0.32904   0.74535   0.00000  Uiso   1.00
H1492  H     0.43435   0.35748   0.68797   0.00000  Uiso   1.00
H1493  H     0.44520   0.39175   0.73850   0.00000  Uiso   1.00
H1494  H     0.39704   0.39772   0.70806   0.00000  Uiso   1.00
H1495  H     0.43667   0.35314   0.92691   0.00000  Uiso   1.00
H1496  H     0.40048   0.30082   0.97345   0.00000  Uiso   1.00
H1497  H     0.38790   0.28051   0.91606   0.00000  Uiso   1.00
H1498  H     0.35299   0.31743   0.94680   0.00000  Uiso   1.00
H1499  H     0.12384   0.18427   0.73271   0.00000  Uiso   1.00
H1500  H     0.07156   0.14610   0.68798   0.00000  Uiso   1.00
H1501  H     0.06080   0.11062   0.73679   0.00000  Uiso   1.00
H1502  H     0.49998   0.17145   0.92078   0.00000  Uiso   1.00
H1503  H     0.10946   0.10627   0.70644   0.00000  Uiso   1.00
H1504  H     0.18256   0.40050   0.73771   0.00000  Uiso   1.00
H1505  H     0.14595   0.45488   0.69372   0.00000  Uiso   1.00
H1506  H     0.14009   0.47677   0.75199   0.00000  Uiso   1.00
H1507  H     0.10000   0.44257   0.72620   0.00000  Uiso   1.00
H1508  H     0.32762   0.12496   0.94147   0.00000  Uiso   1.00
H1509  H     0.26505   0.16313   0.93106   0.00000  Uiso   1.00
H1510  H     0.27026   0.15737   0.86907   0.00000  Uiso   1.00
H1511  H     0.30370   0.19539   0.90134   0.00000  Uiso   1.00
H1512  H     0.34518   0.10677   0.71985   0.00000  Uiso   1.00
H1513  H     0.24967   0.42258   0.74419   0.00000  Uiso   1.00
H1514  H     0.36548   0.03053   0.70569   0.00000  Uiso   1.00
H1515  H     0.37669   0.02398   0.76635   0.00000  Uiso   1.00
H1516  H     0.40831   0.06077   0.73090   0.00000  Uiso   1.00
H1517  H     0.15391   0.44569   0.92583   0.00000  Uiso   1.00
H1518  H     0.17877   0.39329   0.97949   0.00000  Uiso   1.00
H1519  H     0.19635   0.36749   0.92571   0.00000  Uiso   1.00
H1520  H     0.14944   0.34883   0.95247   0.00000  Uiso   1.00
H1521  H     0.35094   0.40224   0.94630   0.00000  Uiso   1.00
H1522  H     0.36837   0.48006   0.95484   0.00000  Uiso   1.00
H1523  H     0.37720   0.48379   0.89332   0.00000  Uiso   1.00
H1524  H     0.24882   0.07781   0.92228   0.00000  Uiso   1.00
H1525  H     0.41168   0.45105   0.92907   0.00000  Uiso   1.00
H1526  H     0.18291   0.09507   0.73669   0.00000  Uiso   1.00
H1527  H     0.22616   0.16144   0.72815   0.00000  Uiso   1.00
H1528  H     0.23259   0.14489   0.78808   0.00000  Uiso   1.00
H1529  H     0.19755   0.18979   0.77302   0.00000  Uiso   1.00
H1530  H     0.16907   0.08076   0.93259   0.00000  Uiso   1.00
H1531  H     0.12506   0.02028   0.95363   0.00000  Uiso   1.00
H1532  H     0.13015   0.01286   0.89145   0.00000  Uiso   1.00
H1533  H     0.08588   0.04130   0.91566   0.00000  Uiso   1.00
H1534  H     0.32205   0.40901   0.73514   0.00000  Uiso   1.00
H1535  H     0.25196   0.07803   0.74545   0.00000  Uiso   1.00
H1536  H     0.28334   0.34043   0.71800   0.00000  Uiso   1.00
H1537  H     0.27199   0.35327   0.77839   0.00000  Uiso   1.00
H1538  H     0.31027   0.31154   0.76294   0.00000  Uiso   1.00
H1539  H     0.24997   0.42128   0.92106   0.00000  Uiso   1.00
H1540  H     0.42888   0.15543   0.73606   0.00000  Uiso   1.00
N1541  N    -0.00000   0.25000   0.95069   0.00000  Uiso   1.00
N1542  N     0.40280   0.33863   0.74837   0.00000  Uiso   1.00
N1543  N     0.40601   0.34903   0.92062   0.00000  Uiso   1.00
N1544  N     0.10222   0.16440   0.74903   0.00000  Uiso   1.00
N1545  N     0.15260   0.40674   0.74621   0.00000  Uiso   1.00
N1546  N     0.31629   0.12570   0.90822   0.00000  Uiso   1.00
N1547  N     0.34972   0.08601   0.74788   0.00000  Uiso   1.00
N1548  N     0.14657   0.41235   0.91982   0.00000  Uiso   1.00
N1549  N     0.35384   0.42141   0.91680   0.00000  Uiso   1.00
N1550  N     0.17761   0.12368   0.75631   0.00000  Uiso   1.00
N1551  N     0.14076   0.07886   0.91707   0.00000  Uiso   1.00
N1552  N     0.00000   0.25000   0.71598   0.00000  Uiso   1.00
N1553  N     0.32765   0.37963   0.75275   0.00000  Uiso   1.00
N1554  N     0.25000  -0.00000   0.95069   0.00000  Uiso   1.00
N1555  N     0.25000  -0.00000   0.71598   0.00000  Uiso   1.00
N1556  N     0.39919   0.16132   0.74616   0.00000  Uiso   1.00
N1557  N     0.06935   0.37367   0.90962   0.00000  Uiso   1.00
N1558  N     0.10198   0.33269   0.74866   0.00000  Uiso   1.00
N1559  N     0.39172   0.16894   0.91888   0.00000  Uiso   1.00
N1560  N     0.08894   0.15199   0.91907   0.00000  Uiso   1.00
O1561  O     0.04508   0.20491   0.87291   0.00000  Uiso   1.00
O1562  O     0.20491   0.04509   0.79375   0.00000  Uiso   1.00
O1563  O     0.20491   0.04509   0.87291   0.00000  Uiso   1.00
O1564  O     0.29508   0.45491   0.79375   0.00000  Uiso   1.00
O1565  O     0.20491   0.45491   0.79375   0.00000  Uiso   1.00
O1566  O     0.29508   0.04509   0.87291   0.00000  Uiso   1.00
O1567  O     0.29508   0.04509   0.79375   0.00000  Uiso   1.00
O1568  O     0.20491   0.45491   0.87291   0.00000  Uiso   1.00
O1569  O     0.49867   0.16833   0.71098   0.00000  Uiso   1.00
O1570  O     0.00400   0.33125   0.95590   0.00000  Uiso   1.00
O1571  O     0.00798   0.33116   0.71282   0.00000  Uiso   1.00
O1572  O     0.45491   0.29509   0.79375   0.00000  Uiso   1.00
O1573  O     0.00287   0.16836   0.95421   0.00000  Uiso   1.00
O1574  O     0.24981   0.41863   0.71063   0.00000  Uiso   1.00
O1575  O     0.24833   0.08152   0.95586   0.00000  Uiso   1.00
O1576  O     0.25653   0.08119   0.71227   0.00000  Uiso   1.00
O1577  O     0.25626   0.41870   0.95395   0.00000  Uiso   1.00
O1578  O     0.45491   0.29509   0.87291   0.00000  Uiso   1.00
O1579  O     0.04508   0.20491   0.79375   0.00000  Uiso   1.00
O1580  O     0.45491   0.20491   0.79375   0.00000  Uiso   1.00
O1581  O     0.04508   0.29509   0.87291   0.00000  Uiso   1.00
O1582  O     0.04508   0.29509   0.79375   0.00000  Uiso   1.00
O1583  O     0.45491   0.20491   0.87291   0.00000  Uiso   1.00
O1584  O     0.29508   0.45491   0.87291   0.00000  Uiso   1.00
C1585  C     0.55942   0.19061   0.83328   0.00000  Uiso   1.00
C1586  C     0.50201   0.28962   0.97614   0.00000  Uiso   1.00
C1587  C     0.50283   0.28965   0.69157   0.00000  Uiso   1.00
C1588  C     0.50012   0.21021   0.97522   0.00000  Uiso   1.00
C1589  C     0.75032   0.46034   0.69050   0.00000  Uiso   1.00
C1590  C     0.74983   0.03971   0.97604   0.00000  Uiso   1.00
C1591  C     0.75156   0.03967   0.69138   0.00000  Uiso   1.00
C1592  C     0.75173   0.46030   0.97511   0.00000  Uiso   1.00
C1593  C     0.88706   0.14454   0.79017   0.00000  Uiso   1.00
C1594  C     0.59842   0.37116   0.87275   0.00000  Uiso   1.00
C1595  C     0.61039   0.35674   0.79076   0.00000  Uiso   1.00
C1596  C     0.94075   0.30971   0.83363   0.00000  Uiso   1.00
C1597  C     0.88086   0.15132   0.87446   0.00000  Uiso   1.00
C1598  C     0.60561   0.13745   0.87570   0.00000  Uiso   1.00
C1599  C     0.88791   0.35485   0.79203   0.00000  Uiso   1.00
C1600  C     0.89189   0.36231   0.87629   0.00000  Uiso   1.00
C1601  C     0.61509   0.14746   0.79266   0.00000  Uiso   1.00
C1602  C     0.63897   0.39191   0.79036   0.00000  Uiso   1.00
C1603  C     0.84632   0.12322   0.87228   0.00000  Uiso   1.00
C1604  C     0.85882   0.10898   0.79040   0.00000  Uiso   1.00
C1605  C     0.63363   0.39800   0.87488   0.00000  Uiso   1.00
C1606  C     0.86260   0.39663   0.87517   0.00000  Uiso   1.00
C1607  C     0.93908   0.19222   0.83328   0.00000  Uiso   1.00
C1608  C     0.65013   0.12068   0.79442   0.00000  Uiso   1.00
C1609  C     0.63514   0.10327   0.87527   0.00000  Uiso   1.00
C1610  C     0.85282   0.38159   0.79272   0.00000  Uiso   1.00
C1611  C     0.58969   0.34622   0.83233   0.00000  Uiso   1.00
C1612  C     0.90230   0.16236   0.83285   0.00000  Uiso   1.00
C1613  C     0.90693   0.34300   0.83415   0.00000  Uiso   1.00
C1614  C     0.59347   0.15780   0.83372   0.00000  Uiso   1.00
C1615  C     0.83869   0.09747   0.83210   0.00000  Uiso   1.00
C1616  C     0.65411   0.41009   0.83299   0.00000  Uiso   1.00
C1617  C     0.65867   0.09499   0.83449   0.00000  Uiso   1.00
C1618  C     0.55821   0.31062   0.83321   0.00000  Uiso   1.00
C1619  C     0.84187   0.40596   0.83336   0.00000  Uiso   1.00
C1620  C     0.88053   0.20348   0.73239   0.00000  Uiso   1.00
C1621  C     0.54264   0.41264   0.90649   0.00000  Uiso   1.00
C1622  C     0.62823   0.29405   0.74034   0.00000  Uiso   1.00
C1623  C     0.91369   0.13765   0.94797   0.00000  Uiso   1.00
C1624  C     0.61284   0.18705   0.94185   0.00000  Uiso   1.00
C1625  C     0.92070   0.37329   0.71938   0.00000  Uiso   1.00
C1626  C     0.88584   0.30987   0.94015   0.00000  Uiso   1.00
C1627  C     0.58523   0.12995   0.71862   0.00000  Uiso   1.00
C1628  C     0.63371   0.44742   0.72880   0.00000  Uiso   1.00
C1629  C     0.80877   0.43987   0.83316   0.00000  Uiso   1.00
C1630  C     0.78741   0.16230   0.90196   0.00000  Uiso   1.00
C1631  C     0.87659   0.04842   0.73730   0.00000  Uiso   1.00
C1632  C     0.66902   0.37884   0.94565   0.00000  Uiso   1.00
C1633  C     0.87922   0.46110   0.92373   0.00000  Uiso   1.00
C1634  C     0.71025   0.15655   0.76181   0.00000  Uiso   1.00
C1635  C     0.61942   0.03601   0.91945   0.00000  Uiso   1.00
C1636  C     0.79661   0.34450   0.75317   0.00000  Uiso   1.00
C1637  C     0.69135   0.06038   0.83363   0.00000  Uiso   1.00
C1638  C     0.68977   0.44135   0.83329   0.00000  Uiso   1.00
C1639  C     0.80801   0.06089   0.83316   0.00000  Uiso   1.00
C1640  C     0.99927   0.21022   0.69068   0.00000  Uiso   1.00
Cu1641 Cu    0.50000   0.25000   0.88022   0.00000  Uiso   1.00
Cu1642 Cu    0.50000   0.25000   0.78645   0.00000  Uiso   1.00
Cu1643 Cu    0.75000  -0.00000   0.88022   0.00000  Uiso   1.00
Cu1644 Cu    0.75000  -0.00000   0.78645   0.00000  Uiso   1.00
H1645  H     0.50061   0.17176   0.74454   0.00000  Uiso   1.00
H1646  H     0.89139   0.21275   0.69721   0.00000  Uiso   1.00
H1647  H     0.88860   0.23124   0.75691   0.00000  Uiso   1.00
H1648  H     0.84664   0.19966   0.73146   0.00000  Uiso   1.00
H1649  H     0.58152   0.37025   0.94230   0.00000  Uiso   1.00
H1650  H     0.52088   0.41330   0.93615   0.00000  Uiso   1.00
H1651  H     0.52469   0.41099   0.87383   0.00000  Uiso   1.00
H1652  H     0.56086   0.44449   0.90754   0.00000  Uiso   1.00
H1653  H     0.59862   0.35258   0.71975   0.00000  Uiso   1.00
H1654  H     0.61759   0.27542   0.70897   0.00000  Uiso   1.00
H1655  H     0.62697   0.27061   0.77022   0.00000  Uiso   1.00
H1656  H     0.50038   0.32755   0.92256   0.00000  Uiso   1.00
H1657  H     0.66039   0.30532   0.73468   0.00000  Uiso   1.00
H1658  H     0.89953   0.20255   0.92185   0.00000  Uiso   1.00
H1659  H     0.92362   0.15501   0.98027   0.00000  Uiso   1.00
H1660  H     0.94080   0.12396   0.92926   0.00000  Uiso   1.00
H1661  H     0.89381   0.10871   0.95768   0.00000  Uiso   1.00
H1662  H     0.58045   0.12628   0.94104   0.00000  Uiso   1.00
H1663  H     0.59489   0.20196   0.97093   0.00000  Uiso   1.00
H1664  H     0.62022   0.21474   0.91734   0.00000  Uiso   1.00
H1665  H     0.64176   0.17270   0.95561   0.00000  Uiso   1.00
H1666  H     0.88230   0.31827   0.73070   0.00000  Uiso   1.00
H1667  H     0.99989   0.32904   0.74535   0.00000  Uiso   1.00
H1668  H     0.93435   0.35748   0.68797   0.00000  Uiso   1.00
H1669  H     0.94520   0.39175   0.73850   0.00000  Uiso   1.00
H1670  H     0.89704   0.39772   0.70806   0.00000  Uiso   1.00
H1671  H     0.93667   0.35314   0.92691   0.00000  Uiso   1.00
H1672  H     0.90048   0.30082   0.97345   0.00000  Uiso   1.00
H1673  H     0.88790   0.28051   0.91606   0.00000  Uiso   1.00
H1674  H     0.85299   0.31743   0.94680   0.00000  Uiso   1.00
H1675  H     0.62384   0.18427   0.73271   0.00000  Uiso   1.00
H1676  H     0.57156   0.14610   0.68798   0.00000  Uiso   1.00
H1677  H     0.56080   0.11062   0.73679   0.00000  Uiso   1.00
H1678  H     0.99998   0.17145   0.92078   0.00000  Uiso   1.00
H1679  H     0.60946   0.10627   0.70644   0.00000  Uiso   1.00
H1680  H     0.68256   0.40050   0.73771   0.00000  Uiso   1.00
H1681  H     0.64595   0.45488   0.69372   0.00000  Uiso   1.00
H1682  H     0.64009   0.47677   0.75199   0.00000  Uiso   1.00
H1683  H     0.60000   0.44257   0.72620   0.00000  Uiso   1.00
H1684  H     0.82762   0.12496   0.94147   0.00000  Uiso   1.00
H1685  H     0.76505   0.16313   0.93106   0.00000  Uiso   1.00
H1686  H     0.77026   0.15737   0.86907   0.00000  Uiso   1.00
H1687  H     0.80370   0.19539   0.90134   0.00000  Uiso   1.00
H1688  H     0.84518   0.10677   0.71985   0.00000  Uiso   1.00
H1689  H     0.74967   0.42258   0.74419   0.00000  Uiso   1.00
H1690  H     0.86548   0.03053   0.70569   0.00000  Uiso   1.00
H1691  H     0.87669   0.02398   0.76635   0.00000  Uiso   1.00
H1692  H     0.90831   0.06077   0.73090   0.00000  Uiso   1.00
H1693  H     0.65391   0.44569   0.92583   0.00000  Uiso   1.00
H1694  H     0.67877   0.39329   0.97949   0.00000  Uiso   1.00
H1695  H     0.69635   0.36749   0.92571   0.00000  Uiso   1.00
H1696  H     0.64944   0.34883   0.95247   0.00000  Uiso   1.00
H1697  H     0.85094   0.40224   0.94630   0.00000  Uiso   1.00
H1698  H     0.86837   0.48006   0.95484   0.00000  Uiso   1.00
H1699  H     0.87720   0.48379   0.89332   0.00000  Uiso   1.00
H1700  H     0.74882   0.07781   0.92228   0.00000  Uiso   1.00
H1701  H     0.91168   0.45105   0.92907   0.00000  Uiso   1.00
H1702  H     0.68291   0.09507   0.73669   0.00000  Uiso   1.00
H1703  H     0.72616   0.16144   0.72815   0.00000  Uiso   1.00
H1704  H     0.73259   0.14489   0.78808   0.00000  Uiso   1.00
H1705  H     0.69755   0.18979   0.77302   0.00000  Uiso   1.00
H1706  H     0.66907   0.08076   0.93259   0.00000  Uiso   1.00
H1707  H     0.62506   0.02028   0.95363   0.00000  Uiso   1.00
H1708  H     0.63015   0.01286   0.89145   0.00000  Uiso   1.00
H1709  H     0.58588   0.04130   0.91566   0.00000  Uiso   1.00
H1710  H     0.82205   0.40901   0.73514   0.00000  Uiso   1.00
H1711  H     0.75196   0.07803   0.74545   0.00000  Uiso   1.00
H1712  H     0.78334   0.34043   0.71800   0.00000  Uiso   1.00
H1713  H     0.77199   0.35327   0.77839   0.00000  Uiso   1.00
H1714  H     0.81027   0.31154   0.76294   0.00000  Uiso   1.00
H1715  H     0.74997   0.42128   0.92106   0.00000  Uiso   1.00
H1716  H     0.92888   0.15543   0.73606   0.00000  Uiso   1.00
N1717  N     0.50000   0.25000   0.95069   0.00000  Uiso   1.00
N1718  N     0.90280   0.33863   0.74837   0.00000  Uiso   1.00
N1719  N     0.90601   0.34903   0.92062   0.00000  Uiso   1.00
N1720  N     0.60222   0.16440   0.74903   0.00000  Uiso   1.00
N1721  N     0.65260   0.40674   0.74621   0.00000  Uiso   1.00
N1722  N     0.81629   0.12570   0.90822   0.00000  Uiso   1.00
N1723  N     0.84972   0.08601   0.74788   0.00000  Uiso   1.00
N1724  N     0.64657   0.41235   0.91982   0.00000  Uiso   1.00
N1725  N     0.85384   0.42141   0.91680   0.00000  Uiso   1.00
N1726  N     0.67761   0.12368   0.75631   0.00000  Uiso   1.00
N1727  N     0.64076   0.07886   0.91707   0.00000  Uiso   1.00
N1728  N     0.50000   0.25000   0.71598   0.00000  Uiso   1.00
N1729  N     0.82765   0.37963   0.75275   0.00000  Uiso   1.00
N1730  N     0.75000  -0.00000   0.95069   0.00000  Uiso   1.00
N1731  N     0.75000  -0.00000   0.71598   0.00000  Uiso   1.00
N1732  N     0.89919   0.16132   0.74616   0.00000  Uiso   1.00
N1733  N     0.56935   0.37367   0.90962   0.00000  Uiso   1.00
N1734  N     0.60198   0.33269   0.74866   0.00000  Uiso   1.00
N1735  N     0.89172   0.16894   0.91888   0.00000  Uiso   1.00
N1736  N     0.58894   0.15199   0.91907   0.00000  Uiso   1.00
O1737  O     0.54508   0.20491   0.87291   0.00000  Uiso   1.00
O1738  O     0.70491   0.04509   0.79375   0.00000  Uiso   1.00
O1739  O     0.70491   0.04509   0.87291   0.00000  Uiso   1.00
O1740  O     0.79508   0.45491   0.79375   0.00000  Uiso   1.00
O1741  O     0.70491   0.45491   0.79375   0.00000  Uiso   1.00
O1742  O     0.79508   0.04509   0.87291   0.00000  Uiso   1.00
O1743  O     0.79508   0.04509   0.79375   0.00000  Uiso   1.00
O1744  O     0.70491   0.45491   0.87291   0.00000  Uiso   1.00
O1745  O     0.99867   0.16833   0.71098   0.00000  Uiso   1.00
O1746  O     0.50400   0.33125   0.95590   0.00000  Uiso   1.00
O1747  O     0.50798   0.33116   0.71282   0.00000  Uiso   1.00
O1748  O     0.95491   0.29509   0.79375   0.00000  Uiso   1.00
O1749  O     0.50287   0.16836   0.95421   0.00000  Uiso   1.00
O1750  O     0.74981   0.41863   0.71063   0.00000  Uiso   1.00
O1751  O     0.74833   0.08152   0.95586   0.00000  Uiso   1.00
O1752  O     0.75653   0.08119   0.71227   0.00000  Uiso   1.00
O1753  O     0.75626   0.41870   0.95395   0.00000  Uiso   1.00
O1754  O     0.95491   0.29509   0.87291   0.00000  Uiso   1.00
O1755  O     0.54508   0.20491   0.79375   0.00000  Uiso   1.00
O1756  O     0.95491   0.20491   0.79375   0.00000  Uiso   1.00
O1757  O     0.54508   0.29509   0.87291   0.00000  Uiso   1.00
O1758  O     0.54508   0.29509   0.79375   0.00000  Uiso   1.00
O1759  O     0.95491   0.20491   0.87291   0.00000  Uiso   1.00
O1760  O     0.79508   0.45491   0.87291   0.00000  Uiso   1.00
C1761  C     0.05942   0.69061   0.83328   0.00000  Uiso   1.00
C1762  C     0.00201   0.78962   0.97614   0.00000  Uiso   1.00
C1763  C     0.00283   0.78965   0.69157   0.00000  Uiso   1.00
C1764  C     0.00012   0.71021   0.97522   0.00000  Uiso   1.00
C1765  C     0.25032   0.96034   0.69050   0.00000  Uiso   1.00
C1766  C     0.24983   0.53971   0.97604   0.00000  Uiso   1.00
C1767  C     0.25156   0.53967   0.69138   0.00000  Uiso   1.00
C1768  C     0.25173   0.96030   0.97511   0.00000  Uiso   1.00
C1769  C     0.38706   0.64454   0.79017   0.00000  Uiso   1.00
C1770  C     0.09842   0.87116   0.87275   0.00000  Uiso   1.00
C1771  C     0.11039   0.85674   0.79076   0.00000  Uiso   1.00
C1772  C     0.44075   0.80971   0.83363   0.00000  Uiso   1.00
C1773  C     0.38086   0.65132   0.87446   0.00000  Uiso   1.00
C1774  C     0.10561   0.63745   0.87570   0.00000  Uiso   1.00
C1775  C     0.38791   0.85485   0.79203   0.00000  Uiso   1.00
C1776  C     0.39189   0.86231   0.87629   0.00000  Uiso   1.00
C1777  C     0.11509   0.64746   0.79266   0.00000  Uiso   1.00
C1778  C     0.13897   0.89191   0.79036   0.00000  Uiso   1.00
C1779  C     0.34632   0.62322   0.87228   0.00000  Uiso   1.00
C1780  C     0.35882   0.60898   0.79040   0.00000  Uiso   1.00
C1781  C     0.13363   0.89800   0.87488   0.00000  Uiso   1.00
C1782  C     0.36260   0.89663   0.87517   0.00000  Uiso   1.00
C1783  C     0.43908   0.69222   0.83328   0.00000  Uiso   1.00
C1784  C     0.15013   0.62068   0.79442   0.00000  Uiso   1.00
C1785  C     0.13514   0.60327   0.87527   0.00000  Uiso   1.00
C1786  C     0.35282   0.88159   0.79272   0.00000  Uiso   1.00
C1787  C     0.08969   0.84622   0.83233   0.00000  Uiso   1.00
C1788  C     0.40230   0.66236   0.83285   0.00000  Uiso   1.00
C1789  C     0.40693   0.84300   0.83415   0.00000  Uiso   1.00
C1790  C     0.09347   0.65780   0.83372   0.00000  Uiso   1.00
C1791  C     0.33869   0.59747   0.83210   0.00000  Uiso   1.00
C1792  C     0.15411   0.91009   0.83299   0.00000  Uiso   1.00
C1793  C     0.15867   0.59499   0.83449   0.00000  Uiso   1.00
C1794  C     0.05821   0.81062   0.83321   0.00000  Uiso   1.00
C1795  C     0.34187   0.90596   0.83336   0.00000  Uiso   1.00
C1796  C     0.38053   0.70348   0.73239   0.00000  Uiso   1.00
C1797  C     0.04264   0.91264   0.90649   0.00000  Uiso   1.00
C1798  C     0.12823   0.79405   0.74034   0.00000  Uiso   1.00
C1799  C     0.41369   0.63765   0.94797   0.00000  Uiso   1.00
C1800  C     0.11284   0.68705   0.94185   0.00000  Uiso   1.00
C1801  C     0.42070   0.87329   0.71938   0.00000  Uiso   1.00
C1802  C     0.38584   0.80987   0.94015   0.00000  Uiso   1.00
C1803  C     0.08523   0.62995   0.71862   0.00000  Uiso   1.00
C1804  C     0.13371   0.94742   0.72880   0.00000  Uiso   1.00
C1805  C     0.30877   0.93987   0.83316   0.00000  Uiso   1.00
C1806  C     0.28741   0.66230   0.90196   0.00000  Uiso   1.00
C1807  C     0.37659   0.54842   0.73730   0.00000  Uiso   1.00
C1808  C     0.16902   0.87884   0.94565   0.00000  Uiso   1.00
C1809  C     0.37922   0.96110   0.92373   0.00000  Uiso   1.00
C1810  C     0.21025   0.65655   0.76181   0.00000  Uiso   1.00
C1811  C     0.11942   0.53601   0.91945   0.00000  Uiso   1.00
C1812  C     0.29661   0.84450   0.75317   0.00000  Uiso   1.00
C1813  C     0.19135   0.56038   0.83363   0.00000  Uiso   1.00
C1814  C     0.18977   0.94135   0.83329   0.00000  Uiso   1.00
C1815  C     0.30801   0.56089   0.83316   0.00000  Uiso   1.00
C1816  C     0.49927   0.71022   0.69068   0.00000  Uiso   1.00
Cu1817 Cu    0.00000   0.75000   0.88022   0.00000  Uiso   1.00
Cu1818 Cu    0.00000   0.75000   0.78645   0.00000  Uiso   1.00
Cu1819 Cu    0.25000   0.50000   0.88022   0.00000  Uiso   1.00
Cu1820 Cu    0.25000   0.50000   0.78645   0.00000  Uiso   1.00
H1821  H     0.00061   0.67176   0.74454   0.00000  Uiso   1.00
H1822  H     0.39139   0.71275   0.69721   0.00000  Uiso   1.00
H1823  H     0.38860   0.73124   0.75691   0.00000  Uiso   1.00
H1824  H     0.34664   0.69966   0.73146   0.00000  Uiso   1.00
H1825  H     0.08152   0.87025   0.94230   0.00000  Uiso   1.00
H1826  H     0.02088   0.91330   0.93615   0.00000  Uiso   1.00
H1827  H     0.02469   0.91099   0.87383   0.00000  Uiso   1.00
H1828  H     0.06086   0.94449   0.90754   0.00000  Uiso   1.00
H1829  H     0.09862   0.85258   0.71975   0.00000  Uiso   1.00
H1830  H     0.11759   0.77542   0.70897   0.00000  Uiso   1.00
H1831  H     0.12697   0.77061   0.77022   0.00000  Uiso   1.00
H1832  H     0.00038   0.82755   0.92256   0.00000  Uiso   1.00
H1833  H     0.16039   0.80532   0.73468   0.00000  Uiso   1.00
H1834  H     0.39953   0.70255   0.92185   0.00000  Uiso   1.00
H1835  H     0.42362   0.65501   0.98027   0.00000  Uiso   1.00
H1836  H     0.44080   0.62396   0.92926   0.00000  Uiso   1.00
H1837  H     0.39381   0.60871   0.95768   0.00000  Uiso   1.00
H1838  H     0.08045   0.62628   0.94104   0.00000  Uiso   1.00
H1839  H     0.09489   0.70196   0.97093   0.00000  Uiso   1.00
H1840  H     0.12022   0.71474   0.91734   0.00000  Uiso   1.00
H1841  H     0.14176   0.67270   0.95561   0.00000  Uiso   1.00
H1842  H     0.38230   0.81827   0.73070   0.00000  Uiso   1.00
H1843  H     0.49989   0.82904   0.74535   0.00000  Uiso   1.00
H1844  H     0.43435   0.85748   0.68797   0.00000  Uiso   1.00
H1845  H     0.44520   0.89175   0.73850   0.00000  Uiso   1.00
H1846  H     0.39704   0.89772   0.70806   0.00000  Uiso   1.00
H1847  H     0.43667   0.85314   0.92691   0.00000  Uiso   1.00
H1848  H     0.40048   0.80082   0.97345   0.00000  Uiso   1.00
H1849  H     0.38790   0.78051   0.91606   0.00000  Uiso   1.00
H1850  H     0.35299   0.81743   0.94680   0.00000  Uiso   1.00
H1851  H     0.12384   0.68427   0.73271   0.00000  Uiso   1.00
H1852  H     0.07156   0.64610   0.68798   0.00000  Uiso   1.00
H1853  H     0.06080   0.61062   0.73679   0.00000  Uiso   1.00
H1854  H     0.49998   0.67145   0.92078   0.00000  Uiso   1.00
H1855  H     0.10946   0.60627   0.70644   0.00000  Uiso   1.00
H1856  H     0.18256   0.90050   0.73771   0.00000  Uiso   1.00
H1857  H     0.14595   0.95488   0.69372   0.00000  Uiso   1.00
H1858  H     0.14009   0.97677   0.75199   0.00000  Uiso   1.00
H1859  H     0.10000   0.94257   0.72620   0.00000  Uiso   1.00
H1860  H     0.32762   0.62496   0.94147   0.00000  Uiso   1.00
H1861  H     0.26505   0.66313   0.93106   0.00000  Uiso   1.00
H1862  H     0.27026   0.65737   0.86907   0.00000  Uiso   1.00
H1863  H     0.30370   0.69539   0.90134   0.00000  Uiso   1.00
H1864  H     0.34518   0.60677   0.71985   0.00000  Uiso   1.00
H1865  H     0.24967   0.92258   0.74419   0.00000  Uiso   1.00
H1866  H     0.36548   0.53053   0.70569   0.00000  Uiso   1.00
H1867  H     0.37669   0.52398   0.76635   0.00000  Uiso   1.00
H1868  H     0.40831   0.56077   0.73090   0.00000  Uiso   1.00
H1869  H     0.15391   0.94569   0.92583   0.00000  Uiso   1.00
H1870  H     0.17877   0.89329   0.97949   0.00000  Uiso   1.00
H1871  H     0.19635   0.86749   0.92571   0.00000  Uiso   1.00
H1872  H     0.14944   0.84883   0.95247   0.00000  Uiso   1.00
H1873  H     0.35094   0.90224   0.94630   0.00000  Uiso   1.00
H1874  H     0.36837   0.98006   0.95484   0.00000  Uiso   1.00
H1875  H     0.37720   0.98379   0.89332   0.00000  Uiso   1.00
H1876  H     0.24882   0.57781   0.92228   0.00000  Uiso   1.00
H1877  H     0.41168   0.95105   0.92907   0.00000  Uiso   1.00
H1878  H     0.18291   0.59507   0.73669   0.00000  Uiso   1.00
H1879  H     0.22616   0.66144   0.72815   0.00000  Uiso   1.00
H1880  H     0.23259   0.64489   0.78808   0.00000  Uiso   1.00
H1881  H     0.19755   0.68979   0.77302   0.00000  Uiso   1.00
H1882  H     0.16907   0.58076   0.93259   0.00000  Uiso   1.00
H1883  H     0.12506   0.52028   0.95363   0.00000  Uiso   1.00
H1884  H     0.13015   0.51286   0.89145   0.00000  Uiso   1.00
H1885  H     0.08588   0.54130   0.91566   0.00000  Uiso   1.00
H1886  H     0.32205   0.90901   0.73514   0.00000  Uiso   1.00
H1887  H     0.25196   0.57803   0.74545   0.00000  Uiso   1.00
H1888  H     0.28334   0.84043   0.71800   0.00000  Uiso   1.00
H1889  H     0.27199   0.85327   0.77839   0.00000  Uiso   1.00
H1890  H     0.31027   0.81154   0.76294   0.00000  Uiso   1.00
H1891  H     0.24997   0.92128   0.92106   0.00000  Uiso   1.00
H1892  H     0.42888   0.65543   0.73606   0.00000  Uiso   1.00
N1893  N    -0.00000   0.75000   0.95069   0.00000  Uiso   1.00
N1894  N     0.40280   0.83863   0.74837   0.00000  Uiso   1.00
N1895  N     0.40601   0.84903   0.92062   0.00000  Uiso   1.00
N1896  N     0.10222   0.66440   0.74903   0.00000  Uiso   1.00
N1897  N     0.15260   0.90674   0.74621   0.00000  Uiso   1.00
N1898  N     0.31629   0.62570   0.90822   0.00000  Uiso   1.00
N1899  N     0.34972   0.58601   0.74788   0.00000  Uiso   1.00
N1900  N     0.14657   0.91235   0.91982   0.00000  Uiso   1.00
N1901  N     0.35384   0.92141   0.91680   0.00000  Uiso   1.00
N1902  N     0.17761   0.62368   0.75631   0.00000  Uiso   1.00
N1903  N     0.14076   0.57886   0.91707   0.00000  Uiso   1.00
N1904  N     0.00000   0.75000   0.71598   0.00000  Uiso   1.00
N1905  N     0.32765   0.87963   0.75275   0.00000  Uiso   1.00
N1906  N     0.25000   0.50000   0.95069   0.00000  Uiso   1.00
N1907  N     0.25000   0.50000   0.71598   0.00000  Uiso   1.00
N1908  N     0.39919   0.66132   0.74616   0.00000  Uiso   1.00
N1909  N     0.06935   0.87367   0.90962   0.00000  Uiso   1.00
N1910  N     0.10198   0.83269   0.74866   0.00000  Uiso   1.00
N1911  N     0.39172   0.66894   0.91888   0.00000  Uiso   1.00
N1912  N     0.08894   0.65199   0.91907   0.00000  Uiso   1.00
O1913  O     0.04508   0.70491   0.87291   0.00000  Uiso   1.00
O1914  O     0.20491   0.54509   0.79375   0.00000  Uiso   1.00
O1915  O     0.20491   0.54509   0.87291   0.00000  Uiso   1.00
O1916  O     0.29508   0.95491   0.79375   0.00000  Uiso   1.00
O1917  O     0.20491   0.95491   0.79375   0.00000  Uiso   1.00
O1918  O     0.29508   0.54509   0.87291   0.00000  Uiso   1.00
O1919  O     0.29508   0.54509   0.79375   0.00000  Uiso   1.00
O1920  O     0.20491   0.95491   0.87291   0.00000  Uiso   1.00
O1921  O     0.49867   0.66833   0.71098   0.00000  Uiso   1.00
O1922  O     0.00400   0.83125   0.95590   0.00000  Uiso   1.00
O1923  O     0.00798   0.83116   0.71282   0.00000  Uiso   1.00
O1924  O     0.45491   0.79509   0.79375   0.00000  Uiso   1.00
O1925  O     0.00287   0.66836   0.95421   0.00000  Uiso   1.00
O1926  O     0.24981   0.91863   0.71063   0.00000  Uiso   1.00
O1927  O     0.24833   0.58152   0.95586   0.00000  Uiso   1.00
O1928  O     0.25653   0.58119   0.71227   0.00000  Uiso   1.00
O1929  O     0.25626   0.91870   0.95395   0.00000  Uiso   1.00
O1930  O     0.45491   0.79509   0.87291   0.00000  Uiso   1.00
O1931  O     0.04508   0.70491   0.79375   0.00000  Uiso   1.00
O1932  O     0.45491   0.70491   0.79375   0.00000  Uiso   1.00
O1933  O     0.04508   0.79509   0.87291   0.00000  Uiso   1.00
O1934  O     0.04508   0.79509   0.79375   0.00000  Uiso   1.00
O1935  O     0.45491   0.70491   0.87291   0.00000  Uiso   1.00
O1936  O     0.29508   0.95491   0.87291   0.00000  Uiso   1.00
C1937  C     0.55942   0.69061   0.83328   0.00000  Uiso   1.00
C1938  C     0.50201   0.78962   0.97614   0.00000  Uiso   1.00
C1939  C     0.50283   0.78965   0.69157   0.00000  Uiso   1.00
C1940  C     0.50012   0.71021   0.97522   0.00000  Uiso   1.00
C1941  C     0.75032   0.96034   0.69050   0.00000  Uiso   1.00
C1942  C     0.74983   0.53971   0.97604   0.00000  Uiso   1.00
C1943  C     0.75156   0.53967   0.69138   0.00000  Uiso   1.00
C1944  C     0.75173   0.96030   0.97511   0.00000  Uiso   1.00
C1945  C     0.88706   0.64454   0.79017   0.00000  Uiso   1.00
C1946  C     0.59842   0.87116   0.87275   0.00000  Uiso   1.00
C1947  C     0.61039   0.85674   0.79076   0.00000  Uiso   1.00
C1948  C     0.94075   0.80971   0.83363   0.00000  Uiso   1.00
C1949  C     0.88086   0.65132   0.87446   0.00000  Uiso   1.00
C1950  C     0.60561   0.63745   0.87570   0.00000  Uiso   1.00
C1951  C     0.88791   0.85485   0.79203   0.00000  Uiso   1.00
C1952  C     0.89189   0.86231   0.87629   0.00000  Uiso   1.00
C1953  C     0.61509   0.64746   0.79266   0.00000  Uiso   1.00
C1954  C     0.63897   0.89191   0.79036   0.00000  Uiso   1.00
C1955  C     0.84632   0.62322   0.87228   0.00000  Uiso   1.00
C1956  C     0.85882   0.60898   0.79040   0.00000  Uiso   1.00
C1957  C     0.63363   0.89800   0.87488   0.00000  Uiso   1.00
C1958  C     0.86260   0.89663   0.87517   0.00000  Uiso   1.00
C1959  C     0.93908   0.69222   0.83328   0.00000  Uiso   1.00
C1960  C     0.65013   0.62068   0.79442   0.00000  Uiso   1.00
C1961  C     0.63514   0.60327   0.87527   0.00000  Uiso   1.00
C1962  C     0.85282   0.88159   0.79272   0.00000  Uiso   1.00
C1963  C     0.58969   0.84622   0.83233   0.00000  Uiso   1.00
C1964  C     0.90230   0.66236   0.83285   0.00000  Uiso   1.00
C1965  C     0.90693   0.84300   0.83415   0.00000  Uiso   1.00
C1966  C     0.59347   0.65780   0.83372   0.00000  Uiso   1.00
C1967  C     0.83869   0.59747   0.83210   0.00000  Uiso   1.00
C1968  C     0.65411   0.91009   0.83299   0.00000  Uiso   1.00
C1969  C     0.65867   0.59499   0.83449   0.00000  Uiso   1.00
C1970  C     0.55821   0.81062   0.83321   0.00000  Uiso   1.00
C1971  C     0.84187   0.90596   0.83336   0.00000  Uiso   1.00
C1972  C     0.88053   0.70348   0.73239   0.00000  Uiso   1.00
C1973  C     0.54264   0.91264   0.90649   0.00000  Uiso   1.00
C1974  C     0.62823   0.79405   0.74034   0.00000  Uiso   1.00
C1975  C     0.91369   0.63765   0.94797   0.00000  Uiso   1.00
C1976  C     0.61284   0.68705   0.94185   0.00000  Uiso   1.00
C1977  C     0.92070   0.87329   0.71938   0.00000  Uiso   1.00
C1978  C     0.88584   0.80987   0.94015   0.00000  Uiso   1.00
C1979  C     0.58523   0.62995   0.71862   0.00000  Uiso   1.00
C1980  C     0.63371   0.94742   0.72880   0.00000  Uiso   1.00
C1981  C     0.80877   0.93987   0.83316   0.00000  Uiso   1.00
C1982  C     0.78741   0.66230   0.90196   0.00000  Uiso   1.00
C1983  C     0.87659   0.54842   0.73730   0.00000  Uiso   1.00
C1984  C     0.66902   0.87884   0.94565   0.00000  Uiso   1.00
C1985  C     0.87922   0.96110   0.92373   0.00000  Uiso   1.00
C1986  C     0.71025   0.65655   0.76181   0.00000  Uiso   1.00
C1987  C     0.61942   0.53601   0.91945   0.00000  Uiso   1.00
C1988  C     0.79661   0.84450   0.75317   0.00000  Uiso   1.00
C1989  C     0.69135   0.56038   0.83363   0.00000  Uiso   1.00
C1990  C     0.68977   0.94135   0.83329   0.00000  Uiso   1.00
C1991  C     0.80801   0.56089   0.83316   0.00000  Uiso   1.00
C1992  C     0.99927   0.71022   0.69068   0.00000  Uiso   1.00
Cu1993 Cu    0.50000   0.75000   0.88022   0.00000  Uiso   1.00
Cu1994 Cu    0.50000   0.75000   0.78645   0.00000  Uiso   1.00
Cu1995 Cu    0.75000   0.50000   0.88022   0.00000  Uiso   1.00
Cu1996 Cu    0.75000   0.50000   0.78645   0.00000  Uiso   1.00
H1997  H     0.50061   0.67176   0.74454   0.00000  Uiso   1.00
H1998  H     0.89139   0.71275   0.69721   0.00000  Uiso   1.00
H1999  H     0.88860   0.73124   0.75691   0.00000  Uiso   1.00
H2000  H     0.84664   0.69966   0.73146   0.00000  Uiso   1.00
H2001  H     0.58152   0.87025   0.94230   0.00000  Uiso   1.00
H2002  H     0.52088   0.91330   0.93615   0.00000  Uiso   1.00
H2003  H     0.52469   0.91099   0.87383   0.00000  Uiso   1.00
H2004  H     0.56086   0.94449   0.90754   0.00000  Uiso   1.00
H2005  H     0.59862   0.85258   0.71975   0.00000  Uiso   1.00
H2006  H     0.61759   0.77542   0.70897   0.00000  Uiso   1.00
H2007  H     0.62697   0.77061   0.77022   0.00000  Uiso   1.00
H2008  H     0.50038   0.82755   0.92256   0.00000  Uiso   1.00
H2009  H     0.66039   0.80532   0.73468   0.00000  Uiso   1.00
H2010  H     0.89953   0.70255   0.92185   0.00000  Uiso   1.00
H2011  H     0.92362   0.65501   0.98027   0.00000  Uiso   1.00
H2012  H     0.94080   0.62396   0.92926   0.00000  Uiso   1.00
H2013  H     0.89381   0.60871   0.95768   0.00000  Uiso   1.00
H2014  H     0.58045   0.62628   0.94104   0.00000  Uiso   1.00
H2015  H     0.59489   0.70196   0.97093   0.00000  Uiso   1.00
H2016  H     0.62022   0.71474   0.91734   0.00000  Uiso   1.00
H2017  H     0.64176   0.67270   0.95561   0.00000  Uiso   1.00
H2018  H     0.88230   0.81827   0.73070   0.00000  Uiso   1.00
H2019  H     0.99989   0.82904   0.74535   0.00000  Uiso   1.00
H2020  H     0.93435   0.85748   0.68797   0.00000  Uiso   1.00
H2021  H     0.94520   0.89175   0.73850   0.00000  Uiso   1.00
H2022  H     0.89704   0.89772   0.70806   0.00000  Uiso   1.00
H2023  H     0.93667   0.85314   0.92691   0.00000  Uiso   1.00
H2024  H     0.90048   0.80082   0.97345   0.00000  Uiso   1.00
H2025  H     0.88790   0.78051   0.91606   0.00000  Uiso   1.00
H2026  H     0.85299   0.81743   0.94680   0.00000  Uiso   1.00
H2027  H     0.62384   0.68427   0.73271   0.00000  Uiso   1.00
H2028  H     0.57156   0.64610   0.68798   0.00000  Uiso   1.00
H2029  H     0.56080   0.61062   0.73679   0.00000  Uiso   1.00
H2030  H     0.99998   0.67145   0.92078   0.00000  Uiso   1.00
H2031  H     0.60946   0.60627   0.70644   0.00000  Uiso   1.00
H2032  H     0.68256   0.90050   0.73771   0.00000  Uiso   1.00
H2033  H     0.64595   0.95488   0.69372   0.00000  Uiso   1.00
H2034  H     0.64009   0.97677   0.75199   0.00000  Uiso   1.00
H2035  H     0.60000   0.94257   0.72620   0.00000  Uiso   1.00
H2036  H     0.82762   0.62496   0.94147   0.00000  Uiso   1.00
H2037  H     0.76505   0.66313   0.93106   0.00000  Uiso   1.00
H2038  H     0.77026   0.65737   0.86907   0.00000  Uiso   1.00
H2039  H     0.80370   0.69539   0.90134   0.00000  Uiso   1.00
H2040  H     0.84518   0.60677   0.71985   0.00000  Uiso   1.00
H2041  H     0.74967   0.92258   0.74419   0.00000  Uiso   1.00
H2042  H     0.86548   0.53053   0.70569   0.00000  Uiso   1.00
H2043  H     0.87669   0.52398   0.76635   0.00000  Uiso   1.00
H2044  H     0.90831   0.56077   0.73090   0.00000  Uiso   1.00
H2045  H     0.65391   0.94569   0.92583   0.00000  Uiso   1.00
H2046  H     0.67877   0.89329   0.97949   0.00000  Uiso   1.00
H2047  H     0.69635   0.86749   0.92571   0.00000  Uiso   1.00
H2048  H     0.64944   0.84883   0.95247   0.00000  Uiso   1.00
H2049  H     0.85094   0.90224   0.94630   0.00000  Uiso   1.00
H2050  H     0.86837   0.98006   0.95484   0.00000  Uiso   1.00
H2051  H     0.87720   0.98379   0.89332   0.00000  Uiso   1.00
H2052  H     0.74882   0.57781   0.92228   0.00000  Uiso   1.00
H2053  H     0.91168   0.95105   0.92907   0.00000  Uiso   1.00
H2054  H     0.68291   0.59507   0.73669   0.00000  Uiso   1.00
H2055  H     0.72616   0.66144   0.72815   0.00000  Uiso   1.00
H2056  H     0.73259   0.64489   0.78808   0.00000  Uiso   1.00
H2057  H     0.69755   0.68979   0.77302   0.00000  Uiso   1.00
H2058  H     0.66907   0.58076   0.93259   0.00000  Uiso   1.00
H2059  H     0.62506   0.52028   0.95363   0.00000  Uiso   1.00
H2060  H     0.63015   0.51286   0.89145   0.00000  Uiso   1.00
H2061  H     0.58588   0.54130   0.91566   0.00000  Uiso   1.00
H2062  H     0.82205   0.90901   0.73514   0.00000  Uiso   1.00
H2063  H     0.75196   0.57803   0.74545   0.00000  Uiso   1.00
H2064  H     0.78334   0.84043   0.71800   0.00000  Uiso   1.00
H2065  H     0.77199   0.85327   0.77839   0.00000  Uiso   1.00
H2066  H     0.81027   0.81154   0.76294   0.00000  Uiso   1.00
H2067  H     0.74997   0.92128   0.92106   0.00000  Uiso   1.00
H2068  H     0.92888   0.65543   0.73606   0.00000  Uiso   1.00
N2069  N     0.50000   0.75000   0.95069   0.00000  Uiso   1.00
N2070  N     0.90280   0.83863   0.74837   0.00000  Uiso   1.00
N2071  N     0.90601   0.84903   0.92062   0.00000  Uiso   1.00
N2072  N     0.60222   0.66440   0.74903   0.00000  Uiso   1.00
N2073  N     0.65260   0.90674   0.74621   0.00000  Uiso   1.00
N2074  N     0.81629   0.62570   0.90822   0.00000  Uiso   1.00
N2075  N     0.84972   0.58601   0.74788   0.00000  Uiso   1.00
N2076  N     0.64657   0.91235   0.91982   0.00000  Uiso   1.00
N2077  N     0.85384   0.92141   0.91680   0.00000  Uiso   1.00
N2078  N     0.67761   0.62368   0.75631   0.00000  Uiso   1.00
N2079  N     0.64076   0.57886   0.91707   0.00000  Uiso   1.00
N2080  N     0.50000   0.75000   0.71598   0.00000  Uiso   1.00
N2081  N     0.82765   0.87963   0.75275   0.00000  Uiso   1.00
N2082  N     0.75000   0.50000   0.95069   0.00000  Uiso   1.00
N2083  N     0.75000   0.50000   0.71598   0.00000  Uiso   1.00
N2084  N     0.89919   0.66132   0.74616   0.00000  Uiso   1.00
N2085  N     0.56935   0.87367   0.90962   0.00000  Uiso   1.00
N2086  N     0.60198   0.83269   0.74866   0.00000  Uiso   1.00
N2087  N     0.89172   0.66894   0.91888   0.00000  Uiso   1.00
N2088  N     0.58894   0.65199   0.91907   0.00000  Uiso   1.00
O2089  O     0.54508   0.70491   0.87291   0.00000  Uiso   1.00
O2090  O     0.70491   0.54509   0.79375   0.00000  Uiso   1.00
O2091  O     0.70491   0.54509   0.87291   0.00000  Uiso   1.00
O2092  O     0.79508   0.95491   0.79375   0.00000  Uiso   1.00
O2093  O     0.70491   0.95491   0.79375   0.00000  Uiso   1.00
O2094  O     0.79508   0.54509   0.87291   0.00000  Uiso   1.00
O2095  O     0.79508   0.54509   0.79375   0.00000  Uiso   1.00
O2096  O     0.70491   0.95491   0.87291   0.00000  Uiso   1.00
O2097  O     0.99867   0.66833   0.71098   0.00000  Uiso   1.00
O2098  O     0.50400   0.83125   0.95590   0.00000  Uiso   1.00
O2099  O     0.50798   0.83116   0.71282   0.00000  Uiso   1.00
O2100  O     0.95491   0.79509   0.79375   0.00000  Uiso   1.00
O2101  O     0.50287   0.66836   0.95421   0.00000  Uiso   1.00
O2102  O     0.74981   0.91863   0.71063   0.00000  Uiso   1.00
O2103  O     0.74833   0.58152   0.95586   0.00000  Uiso   1.00
O2104  O     0.75653   0.58119   0.71227   0.00000  Uiso   1.00
O2105  O     0.75626   0.91870   0.95395   0.00000  Uiso   1.00
O2106  O     0.95491   0.79509   0.87291   0.00000  Uiso   1.00
O2107  O     0.54508   0.70491   0.79375   0.00000  Uiso   1.00
O2108  O     0.95491   0.70491   0.79375   0.00000  Uiso   1.00
O2109  O     0.54508   0.79509   0.87291   0.00000  Uiso   1.00
O2110  O     0.54508   0.79509   0.79375   0.00000  Uiso   1.00
O2111  O     0.95491   0.70491   0.87291   0.00000  Uiso   1.00
O2112  O     0.79508   0.95491   0.87291   0.00000  Uiso   1.00
loop_
_geom_bond_atom_site_label_1
_geom_bond_atom_site_label_2
_geom_bond_distance
_geom_bond_site_symmetry_2
_ccdc_geom_bond_type
C1     O171    1.308   .     A
C1     O153    1.300   .     A
C1     C30     1.476   .     S
C2     O162    1.368   .     S
C2     C707    1.407   .     S
C2     N133    1.378   .     S
C3     O163    1.376   .     S
C3     N144    1.376   .     A
C3     C1410   1.407   1_554 S
C4     O165    1.375   .     S
C4     C936    1.408   1_455 S
C4     N133    1.378   .     S
C5     N499    1.377   .     A
C5     O166    1.368   .     S
C5     C1416   1.406   1_554 S
C6     O167    1.372   .     S
C6     C711    1.405   .     S
C6     N146    1.377   .     S
C7     O168    1.371   .     S
C7     C1414   1.405   1_554 S
C7     N147    1.377   .     S
C8     O169    1.375   .     S
C8     N498    1.376   .     A
C8     C709    1.406   .     S
C9     C20     1.396   .     A
C9     N148    1.422   .     S
C9     C28     1.425   .     A
C10    C27     1.403   .     A
C10    N149    1.423   .     S
C10    C21     1.395   .     A
C11    C18     1.394   .     A
C11    N150    1.428   .     S
C11    C27     1.410   .     A
C12    C29     1.480   .     S
C12    O170    1.303   .     A
C12    O164    1.308   .     A
C13    N151    1.424   .     S
C13    C28     1.427   .     A
C13    C19     1.399   .     A
C14    C30     1.416   .     A
C14    C25     1.397   .     A
C14    N152    1.425   .     S
C15    N134    1.427   .     S
C15    C29     1.414   .     A
C15    C26     1.392   .     A
C16    C29     1.424   .     A
C16    C22     1.396   .     A
C16    N135    1.420   .     S
C17    C30     1.407   .     A
C17    C24     1.393   .     A
C17    N136    1.424   .     S
C18    N137    1.420   .     S
C18    C32     1.426   .     A
C19    C31     1.403   .     A
C19    N138    1.425   .     S
C20    N139    1.428   .     S
C20    C31     1.412   .     A
C21    C32     1.426   .     A
C21    N140    1.425   .     S
C22    C35     1.415   .     A
C22    N141    1.429   .     S
C23    O175    1.307   .     A
C23    O172    1.308   .     A
C23    C28     1.487   .     S
C24    N142    1.419   .     S
C24    C33     1.418   .     A
C25    N143    1.424   .     S
C25    C33     1.421   .     A
C26    N145    1.419   .     S
C26    C35     1.415   .     A
C27    C34     1.468   .     S
C31    C55     1.471   .     S
C32    C54     1.483   .     S
C33    C53     1.479   .     S
C34    O174    1.297   .     A
C34    O173    1.308   .     A
C35    C45     1.475   .     S
C36    N148    1.448   .     S
C36    H63     1.110   .     S
C36    H62     1.110   .     S
C36    H64     1.111   .     S
C37    H68     1.112   .     S
C37    H66     1.110   .     S
C37    N149    1.449   .     S
C37    H67     1.111   .     S
C38    H70     1.111   .     S
C38    H73     1.111   .     S
C38    H71     1.112   .     S
C38    N150    1.446   .     S
C39    H77     1.109   .     S
C39    N151    1.448   .     S
C39    H75     1.108   .     S
C39    H76     1.109   .     S
C40    N152    1.449   .     S
C40    H80     1.112   .     S
C40    H79     1.109   .     S
C40    H81     1.111   .     S
C41    H86     1.110   .     S
C41    N134    1.449   .     S
C41    H84     1.108   .     S
C41    H85     1.111   .     S
C42    N135    1.447   .     S
C42    H90     1.110   .     S
C42    H89     1.109   .     S
C42    H88     1.110   .     S
C43    H95     1.111   .     S
C43    H92     1.105   .     S
C43    H93     1.112   .     S
C43    N136    1.448   .     S
C44    N137    1.447   .     S
C44    H99     1.111   .     S
C44    H98     1.110   .     S
C44    H97     1.110   .     S
C45    O176    1.303   .     A
C45    O156    1.305   .     A
C46    H102    1.111   .     S
C46    N138    1.449   .     S
C46    H101    1.110   .     S
C46    H103    1.112   .     S
C47    H106    1.111   .     S
C47    H107    1.112   .     S
C47    N139    1.446   .     S
C47    H108    1.111   .     S
C48    H110    1.109   .     S
C48    N140    1.447   .     S
C48    H112    1.110   .     S
C48    H111    1.109   .     S
C49    H117    1.111   .     S
C49    N141    1.446   .     S
C49    H114    1.111   .     S
C49    H115    1.112   .     S
C50    H121    1.112   .     S
C50    H119    1.110   .     S
C50    H120    1.111   .     S
C50    N142    1.447   .     S
C51    H123    1.110   .     S
C51    H124    1.110   .     S
C51    H125    1.111   .     S
C51    N143    1.445   .     S
C52    N145    1.448   .     S
C52    H128    1.110   .     S
C52    H129    1.111   .     S
C52    H130    1.112   .     S
C53    O154    1.307   .     A
C53    O155    1.303   .     A
C54    O157    1.307   .     A
C54    O160    1.306   .     A
C55    O158    1.310   .     A
C55    O159    1.296   .     A
C56    O161    1.375   .     S
C56    C1588   1.408   1_554 S
C56    N320    1.378   .     S
Cu57   O153    1.996   .     S
Cu57   O173    1.993   .     S
Cu57   Cu58    2.705   .     S
Cu57   N133    2.033   .     S
Cu57   O346    2.000   1_455 S
Cu57   O351    1.992   1_455 S
Cu58   O174    1.992   .     S
Cu58   O171    2.000   .     S
Cu58   N144    2.033   .     S
Cu58   O340    1.996   1_455 S
Cu58   O348    1.993   1_455 S
Cu59   O512    1.992   1_545 S
Cu59   O528    1.996   1_545 S
Cu59   N146    2.033   .     S
Cu59   Cu60    2.705   .     S
Cu59   O155    2.000   .     S
Cu59   O158    1.993   .     S
Cu60   N147    2.033   .     S
Cu60   O509    1.993   1_545 S
Cu60   O508    2.000   1_545 S
Cu60   O154    1.996   .     S
Cu60   O159    1.992   .     S
H61    O337    0.975   1_455 S
H65    N149    1.030   .     S
H69    N150    1.031   .     S
H72    O162    0.974   .     S
H74    N151    1.028   .     S
H78    N152    1.030   .     S
H82    N134    1.031   .     S
H83    O339    0.976   .     S
H87    N135    1.023   .     S
H91    N136    1.031   .     S
H94    O341    0.974   .     S
H96    N137    1.023   .     S
H100   N138    1.029   .     S
H104   N139    1.031   .     S
H105   O166    0.974   .     S
H109   N140    1.027   .     S
H113   N141    1.031   .     S
H116   O167    0.974   .     S
H118   N142    1.027   .     S
H122   N143    1.029   .     S
H126   N145    1.027   .     S
H127   O168    0.973   .     S
H131   O169    0.975   .     S
H132   N148    1.025   .     S
N144   C232    1.378   1_455 S
N146   C360    1.376   1_545 A
N147   C357    1.377   1_545 A
O156   Cu412   2.000   .     S
O157   Cu412   1.993   .     S
O160   Cu411   1.992   .     S
O161   H237    0.975   .     S
O163   H259    0.976   1_455 S
O164   Cu234   1.996   .     S
O165   H270    0.974   1_455 S
O170   Cu233   2.000   .     S
O172   Cu234   1.993   .     S
O175   Cu233   1.992   .     S
O176   Cu411   1.996   .     S
C177   O347    1.308   .     A
C177   O329    1.300   .     A
C177   C206    1.476   .     S
C178   O338    1.368   .     S
C178   C883    1.407   .     S
C178   N309    1.378   .     S
C179   O339    1.376   .     S
C179   N320    1.376   .     A
C179   C1586   1.407   1_554 S
C180   O341    1.375   .     S
C180   C760    1.408   .     S
C180   N309    1.378   .     S
C181   N675    1.377   .     A
C181   O342    1.368   .     S
C181   C1592   1.406   1_554 S
C182   O343    1.372   .     S
C182   C887    1.405   .     S
C182   N322    1.377   .     S
C183   O344    1.371   .     S
C183   C1590   1.405   1_554 S
C183   N323    1.377   .     S
C184   O345    1.375   .     S
C184   N674    1.376   .     A
C184   C885    1.406   .     S
C185   C196    1.396   .     A
C185   N324    1.422   .     S
C185   C204    1.425   .     A
C186   C203    1.403   .     A
C186   N325    1.423   .     S
C186   C197    1.395   .     A
C187   C194    1.394   .     A
C187   N326    1.428   .     S
C187   C203    1.410   .     A
C188   C205    1.480   .     S
C188   O346    1.303   .     A
C188   O340    1.308   .     A
C189   N327    1.424   .     S
C189   C204    1.427   .     A
C189   C195    1.399   .     A
C190   C206    1.416   .     A
C190   C201    1.397   .     A
C190   N328    1.425   .     S
C191   N310    1.427   .     S
C191   C205    1.414   .     A
C191   C202    1.392   .     A
C192   C205    1.424   .     A
C192   C198    1.396   .     A
C192   N311    1.420   .     S
C193   C206    1.407   .     A
C193   C200    1.393   .     A
C193   N312    1.424   .     S
C194   N313    1.420   .     S
C194   C208    1.426   .     A
C195   C207    1.403   .     A
C195   N314    1.425   .     S
C196   N315    1.428   .     S
C196   C207    1.412   .     A
C197   C208    1.426   .     A
C197   N316    1.425   .     S
C198   C211    1.415   .     A
C198   N317    1.429   .     S
C199   O351    1.307   .     A
C199   O348    1.308   .     A
C199   C204    1.487   .     S
C200   N318    1.419   .     S
C200   C209    1.418   .     A
C201   N319    1.424   .     S
C201   C209    1.421   .     A
C202   N321    1.419   .     S
C202   C211    1.415   .     A
C203   C210    1.468   .     S
C207   C231    1.471   .     S
C208   C230    1.483   .     S
C209   C229    1.479   .     S
C210   O350    1.297   .     A
C210   O349    1.308   .     A
C211   C221    1.475   .     S
C212   N324    1.448   .     S
C212   H239    1.110   .     S
C212   H238    1.110   .     S
C212   H240    1.111   .     S
C213   H244    1.112   .     S
C213   H242    1.110   .     S
C213   N325    1.449   .     S
C213   H243    1.111   .     S
C214   H246    1.111   .     S
C214   H249    1.111   .     S
C214   H247    1.112   .     S
C214   N326    1.446   .     S
C215   H253    1.109   .     S
C215   N327    1.448   .     S
C215   H251    1.108   .     S
C215   H252    1.109   .     S
C216   N328    1.449   .     S
C216   H256    1.112   .     S
C216   H255    1.109   .     S
C216   H257    1.111   .     S
C217   H262    1.110   .     S
C217   N310    1.449   .     S
C217   H260    1.108   .     S
C217   H261    1.111   .     S
C218   N311    1.447   .     S
C218   H266    1.110   .     S
C218   H265    1.109   .     S
C218   H264    1.110   .     S
C219   H271    1.111   .     S
C219   H268    1.105   .     S
C219   H269    1.112   .     S
C219   N312    1.448   .     S
C220   N313    1.447   .     S
C220   H275    1.111   .     S
C220   H274    1.110   .     S
C220   H273    1.110   .     S
C221   O352    1.303   .     A
C221   O332    1.305   .     A
C222   H278    1.111   .     S
C222   N314    1.449   .     S
C222   H277    1.110   .     S
C222   H279    1.112   .     S
C223   H282    1.111   .     S
C223   H283    1.112   .     S
C223   N315    1.446   .     S
C223   H284    1.111   .     S
C224   H286    1.109   .     S
C224   N316    1.447   .     S
C224   H288    1.110   .     S
C224   H287    1.109   .     S
C225   H293    1.111   .     S
C225   N317    1.446   .     S
C225   H290    1.111   .     S
C225   H291    1.112   .     S
C226   H297    1.112   .     S
C226   H295    1.110   .     S
C226   H296    1.111   .     S
C226   N318    1.447   .     S
C227   H299    1.110   .     S
C227   H300    1.110   .     S
C227   H301    1.111   .     S
C227   N319    1.445   .     S
C228   N321    1.448   .     S
C228   H304    1.110   .     S
C228   H305    1.111   .     S
C228   H306    1.112   .     S
C229   O330    1.307   .     A
C229   O331    1.303   .     A
C230   O333    1.307   .     A
C230   O336    1.306   .     A
C231   O334    1.310   .     A
C231   O335    1.296   .     A
C232   O337    1.375   .     S
C232   C1412   1.408   1_654 S
C232   N144    1.378   1_655 S
Cu233  O329    1.996   .     S
Cu233  O349    1.993   .     S
Cu233  Cu234   2.705   .     S
Cu233  N309    2.033   .     S
Cu234  O350    1.992   .     S
Cu234  O347    2.000   .     S
Cu234  N320    2.033   .     S
Cu235  O688    1.992   1_545 S
Cu235  O704    1.996   1_545 S
Cu235  N322    2.033   .     S
Cu235  Cu236   2.705   .     S
Cu235  O331    2.000   .     S
Cu235  O334    1.993   .     S
Cu236  N323    2.033   .     S
Cu236  O685    1.993   1_545 S
Cu236  O684    2.000   1_545 S
Cu236  O330    1.996   .     S
Cu236  O335    1.992   .     S
H241   N325    1.030   .     S
H245   N326    1.031   .     S
H248   O338    0.974   .     S
H250   N327    1.028   .     S
H254   N328    1.030   .     S
H258   N310    1.031   .     S
H259   O163    0.976   1_655 S
H263   N311    1.023   .     S
H267   N312    1.031   .     S
H270   O165    0.974   1_655 S
H272   N313    1.023   .     S
H276   N314    1.029   .     S
H280   N315    1.031   .     S
H281   O342    0.974   .     S
H285   N316    1.027   .     S
H289   N317    1.031   .     S
H292   O343    0.974   .     S
H294   N318    1.027   .     S
H298   N319    1.029   .     S
H302   N321    1.027   .     S
H303   O344    0.973   .     S
H307   O345    0.975   .     S
H308   N324    1.025   .     S
N322   C536    1.376   1_545 A
N323   C533    1.377   1_545 A
O332   Cu588   2.000   .     S
O333   Cu588   1.993   .     S
O336   Cu587   1.992   .     S
O337   H61     0.975   1_655 S
O340   Cu58    1.996   1_655 S
O346   Cu57    2.000   1_655 S
O348   Cu58    1.993   1_655 S
O351   Cu57    1.992   1_655 S
O352   Cu587   1.996   .     S
C353   O523    1.308   .     A
C353   O505    1.300   .     A
C353   C382    1.476   .     S
C354   O514    1.368   .     S
C354   C1059   1.407   .     S
C354   N485    1.378   .     S
C355   O515    1.376   .     S
C355   N496    1.376   .     A
C355   C1762   1.407   1_554 S
C356   O517    1.375   .     S
C356   C1288   1.408   1_455 S
C356   N485    1.378   .     S
C357   N147    1.377   1_565 A
C357   O518    1.368   .     S
C357   C1768   1.406   1_554 S
C358   O519    1.372   .     S
C358   C1063   1.405   .     S
C358   N498    1.377   .     S
C359   O520    1.371   .     S
C359   C1766   1.405   1_554 S
C359   N499    1.377   .     S
C360   O521    1.375   .     S
C360   N146    1.376   1_565 A
C360   C1061   1.406   .     S
C361   C372    1.396   .     A
C361   N500    1.422   .     S
C361   C380    1.425   .     A
C362   C379    1.403   .     A
C362   N501    1.423   .     S
C362   C373    1.395   .     A
C363   C370    1.394   .     A
C363   N502    1.428   .     S
C363   C379    1.410   .     A
C364   C381    1.480   .     S
C364   O522    1.303   .     A
C364   O516    1.308   .     A
C365   N503    1.424   .     S
C365   C380    1.427   .     A
C365   C371    1.399   .     A
C366   C382    1.416   .     A
C366   C377    1.397   .     A
C366   N504    1.425   .     S
C367   N486    1.427   .     S
C367   C381    1.414   .     A
C367   C378    1.392   .     A
C368   C381    1.424   .     A
C368   C374    1.396   .     A
C368   N487    1.420   .     S
C369   C382    1.407   .     A
C369   C376    1.393   .     A
C369   N488    1.424   .     S
C370   N489    1.420   .     S
C370   C384    1.426   .     A
C371   C383    1.403   .     A
C371   N490    1.425   .     S
C372   N491    1.428   .     S
C372   C383    1.412   .     A
C373   C384    1.426   .     A
C373   N492    1.425   .     S
C374   C387    1.415   .     A
C374   N493    1.429   .     S
C375   O527    1.307   .     A
C375   O524    1.308   .     A
C375   C380    1.487   .     S
C376   N494    1.419   .     S
C376   C385    1.418   .     A
C377   N495    1.424   .     S
C377   C385    1.421   .     A
C378   N497    1.419   .     S
C378   C387    1.415   .     A
C379   C386    1.468   .     S
C383   C407    1.471   .     S
C384   C406    1.483   .     S
C385   C405    1.479   .     S
C386   O526    1.297   .     A
C386   O525    1.308   .     A
C387   C397    1.475   .     S
C388   N500    1.448   .     S
C388   H415    1.110   .     S
C388   H414    1.110   .     S
C388   H416    1.111   .     S
C389   H420    1.112   .     S
C389   H418    1.110   .     S
C389   N501    1.449   .     S
C389   H419    1.111   .     S
C390   H422    1.111   .     S
C390   H425    1.111   .     S
C390   H423    1.112   .     S
C390   N502    1.446   .     S
C391   H429    1.109   .     S
C391   N503    1.448   .     S
C391   H427    1.108   .     S
C391   H428    1.109   .     S
C392   N504    1.449   .     S
C392   H432    1.112   .     S
C392   H431    1.109   .     S
C392   H433    1.111   .     S
C393   H438    1.110   .     S
C393   N486    1.449   .     S
C393   H436    1.108   .     S
C393   H437    1.111   .     S
C394   N487    1.447   .     S
C394   H442    1.110   .     S
C394   H441    1.109   .     S
C394   H440    1.110   .     S
C395   H447    1.111   .     S
C395   H444    1.105   .     S
C395   H445    1.112   .     S
C395   N488    1.448   .     S
C396   N489    1.447   .     S
C396   H451    1.111   .     S
C396   H450    1.110   .     S
C396   H449    1.110   .     S
C397   O528    1.303   .     A
C397   O508    1.305   .     A
C398   H454    1.111   .     S
C398   N490    1.449   .     S
C398   H453    1.110   .     S
C398   H455    1.112   .     S
C399   H458    1.111   .     S
C399   H459    1.112   .     S
C399   N491    1.446   .     S
C399   H460    1.111   .     S
C400   H462    1.109   .     S
C400   N492    1.447   .     S
C400   H464    1.110   .     S
C400   H463    1.109   .     S
C401   H469    1.111   .     S
C401   N493    1.446   .     S
C401   H466    1.111   .     S
C401   H467    1.112   .     S
C402   H473    1.112   .     S
C402   H471    1.110   .     S
C402   H472    1.111   .     S
C402   N494    1.447   .     S
C403   H475    1.110   .     S
C403   H476    1.110   .     S
C403   H477    1.111   .     S
C403   N495    1.445   .     S
C404   N497    1.448   .     S
C404   H480    1.110   .     S
C404   H481    1.111   .     S
C404   H482    1.112   .     S
C405   O506    1.307   .     A
C405   O507    1.303   .     A
C406   O509    1.307   .     A
C406   O512    1.306   .     A
C407   O510    1.310   .     A
C407   O511    1.296   .     A
C408   O513    1.375   .     S
C408   C1940   1.408   1_554 S
C408   N672    1.378   .     S
Cu409  O505    1.996   .     S
Cu409  O525    1.993   .     S
Cu409  Cu410   2.705   .     S
Cu409  N485    2.033   .     S
Cu409  O698    2.000   1_455 S
Cu409  O703    1.992   1_455 S
Cu410  O526    1.992   .     S
Cu410  O523    2.000   .     S
Cu410  N496    2.033   .     S
Cu410  O692    1.996   1_455 S
Cu410  O700    1.993   1_455 S
Cu411  N498    2.033   .     S
Cu411  Cu412   2.705   .     S
Cu411  O507    2.000   .     S
Cu411  O510    1.993   .     S
Cu412  N499    2.033   .     S
Cu412  O506    1.996   .     S
Cu412  O511    1.992   .     S
H413   O689    0.975   1_455 S
H417   N501    1.030   .     S
H421   N502    1.031   .     S
H424   O514    0.974   .     S
H426   N503    1.028   .     S
H430   N504    1.030   .     S
H434   N486    1.031   .     S
H435   O691    0.976   .     S
H439   N487    1.023   .     S
H443   N488    1.031   .     S
H446   O693    0.974   .     S
H448   N489    1.023   .     S
H452   N490    1.029   .     S
H456   N491    1.031   .     S
H457   O518    0.974   .     S
H461   N492    1.027   .     S
H465   N493    1.031   .     S
H468   O519    0.974   .     S
H470   N494    1.027   .     S
H474   N495    1.029   .     S
H478   N497    1.027   .     S
H479   O520    0.973   .     S
H483   O521    0.975   .     S
H484   N500    1.025   .     S
N496   C584    1.378   1_455 S
O508   Cu60    2.000   1_565 S
O509   Cu60    1.993   1_565 S
O512   Cu59    1.992   1_565 S
O513   H589    0.975   .     S
O515   H611    0.976   1_455 S
O516   Cu586   1.996   .     S
O517   H622    0.974   1_455 S
O522   Cu585   2.000   .     S
O524   Cu586   1.993   .     S
O527   Cu585   1.992   .     S
O528   Cu59    1.996   1_565 S
C529   O699    1.308   .     A
C529   O681    1.300   .     A
C529   C558    1.476   .     S
C530   O690    1.368   .     S
C530   C1235   1.407   .     S
C530   N661    1.378   .     S
C531   O691    1.376   .     S
C531   N672    1.376   .     A
C531   C1938   1.407   1_554 S
C532   O693    1.375   .     S
C532   C1112   1.408   .     S
C532   N661    1.378   .     S
C533   N323    1.377   1_565 A
C533   O694    1.368   .     S
C533   C1944   1.406   1_554 S
C534   O695    1.372   .     S
C534   C1239   1.405   .     S
C534   N674    1.377   .     S
C535   O696    1.371   .     S
C535   C1942   1.405   1_554 S
C535   N675    1.377   .     S
C536   O697    1.375   .     S
C536   N322    1.376   1_565 A
C536   C1237   1.406   .     S
C537   C548    1.396   .     A
C537   N676    1.422   .     S
C537   C556    1.425   .     A
C538   C555    1.403   .     A
C538   N677    1.423   .     S
C538   C549    1.395   .     A
C539   C546    1.394   .     A
C539   N678    1.428   .     S
C539   C555    1.410   .     A
C540   C557    1.480   .     S
C540   O698    1.303   .     A
C540   O692    1.308   .     A
C541   N679    1.424   .     S
C541   C556    1.427   .     A
C541   C547    1.399   .     A
C542   C558    1.416   .     A
C542   C553    1.397   .     A
C542   N680    1.425   .     S
C543   N662    1.427   .     S
C543   C557    1.414   .     A
C543   C554    1.392   .     A
C544   C557    1.424   .     A
C544   C550    1.396   .     A
C544   N663    1.420   .     S
C545   C558    1.407   .     A
C545   C552    1.393   .     A
C545   N664    1.424   .     S
C546   N665    1.420   .     S
C546   C560    1.426   .     A
C547   C559    1.403   .     A
C547   N666    1.425   .     S
C548   N667    1.428   .     S
C548   C559    1.412   .     A
C549   C560    1.426   .     A
C549   N668    1.425   .     S
C550   C563    1.415   .     A
C550   N669    1.429   .     S
C551   O703    1.307   .     A
C551   O700    1.308   .     A
C551   C556    1.487   .     S
C552   N670    1.419   .     S
C552   C561    1.418   .     A
C553   N671    1.424   .     S
C553   C561    1.421   .     A
C554   N673    1.419   .     S
C554   C563    1.415   .     A
C555   C562    1.468   .     S
C559   C583    1.471   .     S
C560   C582    1.483   .     S
C561   C581    1.479   .     S
C562   O702    1.297   .     A
C562   O701    1.308   .     A
C563   C573    1.475   .     S
C564   N676    1.448   .     S
C564   H591    1.110   .     S
C564   H590    1.110   .     S
C564   H592    1.111   .     S
C565   H596    1.112   .     S
C565   H594    1.110   .     S
C565   N677    1.449   .     S
C565   H595    1.111   .     S
C566   H598    1.111   .     S
C566   H601    1.111   .     S
C566   H599    1.112   .     S
C566   N678    1.446   .     S
C567   H605    1.109   .     S
C567   N679    1.448   .     S
C567   H603    1.108   .     S
C567   H604    1.109   .     S
C568   N680    1.449   .     S
C568   H608    1.112   .     S
C568   H607    1.109   .     S
C568   H609    1.111   .     S
C569   H614    1.110   .     S
C569   N662    1.449   .     S
C569   H612    1.108   .     S
C569   H613    1.111   .     S
C570   N663    1.447   .     S
C570   H618    1.110   .     S
C570   H617    1.109   .     S
C570   H616    1.110   .     S
C571   H623    1.111   .     S
C571   H620    1.105   .     S
C571   H621    1.112   .     S
C571   N664    1.448   .     S
C572   N665    1.447   .     S
C572   H627    1.111   .     S
C572   H626    1.110   .     S
C572   H625    1.110   .     S
C573   O704    1.303   .     A
C573   O684    1.305   .     A
C574   H630    1.111   .     S
C574   N666    1.449   .     S
C574   H629    1.110   .     S
C574   H631    1.112   .     S
C575   H634    1.111   .     S
C575   H635    1.112   .     S
C575   N667    1.446   .     S
C575   H636    1.111   .     S
C576   H638    1.109   .     S
C576   N668    1.447   .     S
C576   H640    1.110   .     S
C576   H639    1.109   .     S
C577   H645    1.111   .     S
C577   N669    1.446   .     S
C577   H642    1.111   .     S
C577   H643    1.112   .     S
C578   H649    1.112   .     S
C578   H647    1.110   .     S
C578   H648    1.111   .     S
C578   N670    1.447   .     S
C579   H651    1.110   .     S
C579   H652    1.110   .     S
C579   H653    1.111   .     S
C579   N671    1.445   .     S
C580   N673    1.448   .     S
C580   H656    1.110   .     S
C580   H657    1.111   .     S
C580   H658    1.112   .     S
C581   O682    1.307   .     A
C581   O683    1.303   .     A
C582   O685    1.307   .     A
C582   O688    1.306   .     A
C583   O686    1.310   .     A
C583   O687    1.296   .     A
C584   O689    1.375   .     S
C584   C1764   1.408   1_654 S
C584   N496    1.378   1_655 S
Cu585  O681    1.996   .     S
Cu585  O701    1.993   .     S
Cu585  Cu586   2.705   .     S
Cu585  N661    2.033   .     S
Cu586  O702    1.992   .     S
Cu586  O699    2.000   .     S
Cu586  N672    2.033   .     S
Cu587  N674    2.033   .     S
Cu587  Cu588   2.705   .     S
Cu587  O683    2.000   .     S
Cu587  O686    1.993   .     S
Cu588  N675    2.033   .     S
Cu588  O682    1.996   .     S
Cu588  O687    1.992   .     S
H593   N677    1.030   .     S
H597   N678    1.031   .     S
H600   O690    0.974   .     S
H602   N679    1.028   .     S
H606   N680    1.030   .     S
H610   N662    1.031   .     S
H611   O515    0.976   1_655 S
H615   N663    1.023   .     S
H619   N664    1.031   .     S
H622   O517    0.974   1_655 S
H624   N665    1.023   .     S
H628   N666    1.029   .     S
H632   N667    1.031   .     S
H633   O694    0.974   .     S
H637   N668    1.027   .     S
H641   N669    1.031   .     S
H644   O695    0.974   .     S
H646   N670    1.027   .     S
H650   N671    1.029   .     S
H654   N673    1.027   .     S
H655   O696    0.973   .     S
H659   O697    0.975   .     S
H660   N676    1.025   .     S
O684   Cu236   2.000   1_565 S
O685   Cu236   1.993   1_565 S
O688   Cu235   1.992   1_565 S
O689   H413    0.975   1_655 S
O692   Cu410   1.996   1_655 S
O698   Cu409   2.000   1_655 S
O700   Cu410   1.993   1_655 S
O703   Cu409   1.992   1_655 S
O704   Cu235   1.996   1_565 S
C705   O875    1.308   .     A
C705   O857    1.300   .     A
C705   C734    1.476   .     S
C706   O866    1.368   .     S
C706   C1411   1.407   .     S
C706   N837    1.378   .     S
C707   O867    1.376   .     S
C707   N848    1.376   .     A
C708   O869    1.375   .     S
C708   C1640   1.408   1_455 S
C708   N837    1.378   .     S
C709   N1203   1.377   .     A
C709   O870    1.368   .     S
C710   O871    1.372   .     S
C710   C1415   1.405   .     S
C710   N850    1.377   .     S
C711   O872    1.371   .     S
C711   N851    1.377   .     S
C712   O873    1.375   .     S
C712   N1202   1.376   .     A
C712   C1413   1.406   .     S
C713   C724    1.396   .     A
C713   N852    1.422   .     S
C713   C732    1.425   .     A
C714   C731    1.403   .     A
C714   N853    1.423   .     S
C714   C725    1.395   .     A
C715   C722    1.394   .     A
C715   N854    1.428   .     S
C715   C731    1.410   .     A
C716   C733    1.480   .     S
C716   O874    1.303   .     A
C716   O868    1.308   .     A
C717   N855    1.424   .     S
C717   C732    1.427   .     A
C717   C723    1.399   .     A
C718   C734    1.416   .     A
C718   C729    1.397   .     A
C718   N856    1.425   .     S
C719   N838    1.427   .     S
C719   C733    1.414   .     A
C719   C730    1.392   .     A
C720   C733    1.424   .     A
C720   C726    1.396   .     A
C720   N839    1.420   .     S
C721   C734    1.407   .     A
C721   C728    1.393   .     A
C721   N840    1.424   .     S
C722   N841    1.420   .     S
C722   C736    1.426   .     A
C723   C735    1.403   .     A
C723   N842    1.425   .     S
C724   N843    1.428   .     S
C724   C735    1.412   .     A
C725   C736    1.426   .     A
C725   N844    1.425   .     S
C726   C739    1.415   .     A
C726   N845    1.429   .     S
C727   O879    1.307   .     A
C727   O876    1.308   .     A
C727   C732    1.487   .     S
C728   N846    1.419   .     S
C728   C737    1.418   .     A
C729   N847    1.424   .     S
C729   C737    1.421   .     A
C730   N849    1.419   .     S
C730   C739    1.415   .     A
C731   C738    1.468   .     S
C735   C759    1.471   .     S
C736   C758    1.483   .     S
C737   C757    1.479   .     S
C738   O878    1.297   .     A
C738   O877    1.308   .     A
C739   C749    1.475   .     S
C740   N852    1.448   .     S
C740   H767    1.110   .     S
C740   H766    1.110   .     S
C740   H768    1.111   .     S
C741   H772    1.112   .     S
C741   H770    1.110   .     S
C741   N853    1.449   .     S
C741   H771    1.111   .     S
C742   H774    1.111   .     S
C742   H777    1.111   .     S
C742   H775    1.112   .     S
C742   N854    1.446   .     S
C743   H781    1.109   .     S
C743   N855    1.448   .     S
C743   H779    1.108   .     S
C743   H780    1.109   .     S
C744   N856    1.449   .     S
C744   H784    1.112   .     S
C744   H783    1.109   .     S
C744   H785    1.111   .     S
C745   H790    1.110   .     S
C745   N838    1.449   .     S
C745   H788    1.108   .     S
C745   H789    1.111   .     S
C746   N839    1.447   .     S
C746   H794    1.110   .     S
C746   H793    1.109   .     S
C746   H792    1.110   .     S
C747   H799    1.111   .     S
C747   H796    1.105   .     S
C747   H797    1.112   .     S
C747   N840    1.448   .     S
C748   N841    1.447   .     S
C748   H803    1.111   .     S
C748   H802    1.110   .     S
C748   H801    1.110   .     S
C749   O880    1.303   .     A
C749   O860    1.305   .     A
C750   H806    1.111   .     S
C750   N842    1.449   .     S
C750   H805    1.110   .     S
C750   H807    1.112   .     S
C751   H810    1.111   .     S
C751   H811    1.112   .     S
C751   N843    1.446   .     S
C751   H812    1.111   .     S
C752   H814    1.109   .     S
C752   N844    1.447   .     S
C752   H816    1.110   .     S
C752   H815    1.109   .     S
C753   H821    1.111   .     S
C753   N845    1.446   .     S
C753   H818    1.111   .     S
C753   H819    1.112   .     S
C754   H825    1.112   .     S
C754   H823    1.110   .     S
C754   H824    1.111   .     S
C754   N846    1.447   .     S
C755   H827    1.110   .     S
C755   H828    1.110   .     S
C755   H829    1.111   .     S
C755   N847    1.445   .     S
C756   N849    1.448   .     S
C756   H832    1.110   .     S
C756   H833    1.111   .     S
C756   H834    1.112   .     S
C757   O858    1.307   .     A
C757   O859    1.303   .     A
C758   O861    1.307   .     A
C758   O864    1.306   .     A
C759   O862    1.310   .     A
C759   O863    1.296   .     A
C760   O865    1.375   .     S
C760   N1024   1.378   .     S
Cu761  O857    1.996   .     S
Cu761  O877    1.993   .     S
Cu761  Cu762   2.705   .     S
Cu761  N837    2.033   .     S
Cu761  O1050   2.000   1_455 S
Cu761  O1055   1.992   1_455 S
Cu762  O878    1.992   .     S
Cu762  O875    2.000   .     S
Cu762  N848    2.033   .     S
Cu762  O1044   1.996   1_455 S
Cu762  O1052   1.993   1_455 S
Cu763  O1216   1.992   1_545 S
Cu763  O1232   1.996   1_545 S
Cu763  N850    2.033   .     S
Cu763  Cu764   2.705   .     S
Cu763  O859    2.000   .     S
Cu763  O862    1.993   .     S
Cu764  N851    2.033   .     S
Cu764  O1213   1.993   1_545 S
Cu764  O1212   2.000   1_545 S
Cu764  O858    1.996   .     S
Cu764  O863    1.992   .     S
H765   O1041   0.975   1_455 S
H769   N853    1.030   .     S
H773   N854    1.031   .     S
H776   O866    0.974   .     S
H778   N855    1.028   .     S
H782   N856    1.030   .     S
H786   N838    1.031   .     S
H787   O1043   0.976   .     S
H791   N839    1.023   .     S
H795   N840    1.031   .     S
H798   O1045   0.974   .     S
H800   N841    1.023   .     S
H804   N842    1.029   .     S
H808   N843    1.031   .     S
H809   O870    0.974   .     S
H813   N844    1.027   .     S
H817   N845    1.031   .     S
H820   O871    0.974   .     S
H822   N846    1.027   .     S
H826   N847    1.029   .     S
H830   N849    1.027   .     S
H831   O872    0.973   .     S
H835   O873    0.975   .     S
H836   N852    1.025   .     S
N848   C936    1.378   1_455 S
N850   C1064   1.376   1_545 A
N851   C1061   1.377   1_545 A
O860   Cu1116  2.000   .     S
O861   Cu1116  1.993   .     S
O864   Cu1115  1.992   .     S
O865   H941    0.975   .     S
O867   H963    0.976   1_455 S
O868   Cu938   1.996   .     S
O869   H974    0.974   1_455 S
O874   Cu937   2.000   .     S
O876   Cu938   1.993   .     S
O879   Cu937   1.992   .     S
O880   Cu1115  1.996   .     S
C881   O1051   1.308   .     A
C881   O1033   1.300   .     A
C881   C910    1.476   .     S
C882   O1042   1.368   .     S
C882   C1587   1.407   .     S
C882   N1013   1.378   .     S
C883   O1043   1.376   .     S
C883   N1024   1.376   .     A
C884   O1045   1.375   .     S
C884   C1464   1.408   .     S
C884   N1013   1.378   .     S
C885   N1379   1.377   .     A
C885   O1046   1.368   .     S
C886   O1047   1.372   .     S
C886   C1591   1.405   .     S
C886   N1026   1.377   .     S
C887   O1048   1.371   .     S
C887   N1027   1.377   .     S
C888   O1049   1.375   .     S
C888   N1378   1.376   .     A
C888   C1589   1.406   .     S
C889   C900    1.396   .     A
C889   N1028   1.422   .     S
C889   C908    1.425   .     A
C890   C907    1.403   .     A
C890   N1029   1.423   .     S
C890   C901    1.395   .     A
C891   C898    1.394   .     A
C891   N1030   1.428   .     S
C891   C907    1.410   .     A
C892   C909    1.480   .     S
C892   O1050   1.303   .     A
C892   O1044   1.308   .     A
C893   N1031   1.424   .     S
C893   C908    1.427   .     A
C893   C899    1.399   .     A
C894   C910    1.416   .     A
C894   C905    1.397   .     A
C894   N1032   1.425   .     S
C895   N1014   1.427   .     S
C895   C909    1.414   .     A
C895   C906    1.392   .     A
C896   C909    1.424   .     A
C896   C902    1.396   .     A
C896   N1015   1.420   .     S
C897   C910    1.407   .     A
C897   C904    1.393   .     A
C897   N1016   1.424   .     S
C898   N1017   1.420   .     S
C898   C912    1.426   .     A
C899   C911    1.403   .     A
C899   N1018   1.425   .     S
C900   N1019   1.428   .     S
C900   C911    1.412   .     A
C901   C912    1.426   .     A
C901   N1020   1.425   .     S
C902   C915    1.415   .     A
C902   N1021   1.429   .     S
C903   O1055   1.307   .     A
C903   O1052   1.308   .     A
C903   C908    1.487   .     S
C904   N1022   1.419   .     S
C904   C913    1.418   .     A
C905   N1023   1.424   .     S
C905   C913    1.421   .     A
C906   N1025   1.419   .     S
C906   C915    1.415   .     A
C907   C914    1.468   .     S
C911   C935    1.471   .     S
C912   C934    1.483   .     S
C913   C933    1.479   .     S
C914   O1054   1.297   .     A
C914   O1053   1.308   .     A
C915   C925    1.475   .     S
C916   N1028   1.448   .     S
C916   H943    1.110   .     S
C916   H942    1.110   .     S
C916   H944    1.111   .     S
C917   H948    1.112   .     S
C917   H946    1.110   .     S
C917   N1029   1.449   .     S
C917   H947    1.111   .     S
C918   H950    1.111   .     S
C918   H953    1.111   .     S
C918   H951    1.112   .     S
C918   N1030   1.446   .     S
C919   H957    1.109   .     S
C919   N1031   1.448   .     S
C919   H955    1.108   .     S
C919   H956    1.109   .     S
C920   N1032   1.449   .     S
C920   H960    1.112   .     S
C920   H959    1.109   .     S
C920   H961    1.111   .     S
C921   H966    1.110   .     S
C921   N1014   1.449   .     S
C921   H964    1.108   .     S
C921   H965    1.111   .     S
C922   N1015   1.447   .     S
C922   H970    1.110   .     S
C922   H969    1.109   .     S
C922   H968    1.110   .     S
C923   H975    1.111   .     S
C923   H972    1.105   .     S
C923   H973    1.112   .     S
C923   N1016   1.448   .     S
C924   N1017   1.447   .     S
C924   H979    1.111   .     S
C924   H978    1.110   .     S
C924   H977    1.110   .     S
C925   O1056   1.303   .     A
C925   O1036   1.305   .     A
C926   H982    1.111   .     S
C926   N1018   1.449   .     S
C926   H981    1.110   .     S
C926   H983    1.112   .     S
C927   H986    1.111   .     S
C927   H987    1.112   .     S
C927   N1019   1.446   .     S
C927   H988    1.111   .     S
C928   H990    1.109   .     S
C928   N1020   1.447   .     S
C928   H992    1.110   .     S
C928   H991    1.109   .     S
C929   H997    1.111   .     S
C929   N1021   1.446   .     S
C929   H994    1.111   .     S
C929   H995    1.112   .     S
C930   H1001   1.112   .     S
C930   H999    1.110   .     S
C930   H1000   1.111   .     S
C930   N1022   1.447   .     S
C931   H1003   1.110   .     S
C931   H1004   1.110   .     S
C931   H1005   1.111   .     S
C931   N1023   1.445   .     S
C932   N1025   1.448   .     S
C932   H1008   1.110   .     S
C932   H1009   1.111   .     S
C932   H1010   1.112   .     S
C933   O1034   1.307   .     A
C933   O1035   1.303   .     A
C934   O1037   1.307   .     A
C934   O1040   1.306   .     A
C935   O1038   1.310   .     A
C935   O1039   1.296   .     A
C936   O1041   1.375   .     S
C936   C4      1.408   1_655 S
C936   N848    1.378   1_655 S
Cu937  O1033   1.996   .     S
Cu937  O1053   1.993   .     S
Cu937  Cu938   2.705   .     S
Cu937  N1013   2.033   .     S
Cu938  O1054   1.992   .     S
Cu938  O1051   2.000   .     S
Cu938  N1024   2.033   .     S
Cu939  O1392   1.992   1_545 S
Cu939  O1408   1.996   1_545 S
Cu939  N1026   2.033   .     S
Cu939  Cu940   2.705   .     S
Cu939  O1035   2.000   .     S
Cu939  O1038   1.993   .     S
Cu940  N1027   2.033   .     S
Cu940  O1389   1.993   1_545 S
Cu940  O1388   2.000   1_545 S
Cu940  O1034   1.996   .     S
Cu940  O1039   1.992   .     S
H945   N1029   1.030   .     S
H949   N1030   1.031   .     S
H952   O1042   0.974   .     S
H954   N1031   1.028   .     S
H958   N1032   1.030   .     S
H962   N1014   1.031   .     S
H963   O867    0.976   1_655 S
H967   N1015   1.023   .     S
H971   N1016   1.031   .     S
H974   O869    0.974   1_655 S
H976   N1017   1.023   .     S
H980   N1018   1.029   .     S
H984   N1019   1.031   .     S
H985   O1046   0.974   .     S
H989   N1020   1.027   .     S
H993   N1021   1.031   .     S
H996   O1047   0.974   .     S
H998   N1022   1.027   .     S
H1002  N1023   1.029   .     S
H1006  N1025   1.027   .     S
H1007  O1048   0.973   .     S
H1011  O1049   0.975   .     S
H1012  N1028   1.025   .     S
N1026  C1240   1.376   1_545 A
N1027  C1237   1.377   1_545 A
O1036  Cu1292  2.000   .     S
O1037  Cu1292  1.993   .     S
O1040  Cu1291  1.992   .     S
O1041  H765    0.975   1_655 S
O1044  Cu762   1.996   1_655 S
O1050  Cu761   2.000   1_655 S
O1052  Cu762   1.993   1_655 S
O1055  Cu761   1.992   1_655 S
O1056  Cu1291  1.996   .     S
C1057  O1227   1.308   .     A
C1057  O1209   1.300   .     A
C1057  C1086   1.476   .     S
C1058  O1218   1.368   .     S
C1058  C1763   1.407   .     S
C1058  N1189   1.378   .     S
C1059  O1219   1.376   .     S
C1059  N1200   1.376   .     A
C1060  O1221   1.375   .     S
C1060  C1992   1.408   1_455 S
C1060  N1189   1.378   .     S
C1061  N851    1.377   1_565 A
C1061  O1222   1.368   .     S
C1062  O1223   1.372   .     S
C1062  C1767   1.405   .     S
C1062  N1202   1.377   .     S
C1063  O1224   1.371   .     S
C1063  N1203   1.377   .     S
C1064  O1225   1.375   .     S
C1064  N850    1.376   1_565 A
C1064  C1765   1.406   .     S
C1065  C1076   1.396   .     A
C1065  N1204   1.422   .     S
C1065  C1084   1.425   .     A
C1066  C1083   1.403   .     A
C1066  N1205   1.423   .     S
C1066  C1077   1.395   .     A
C1067  C1074   1.394   .     A
C1067  N1206   1.428   .     S
C1067  C1083   1.410   .     A
C1068  C1085   1.480   .     S
C1068  O1226   1.303   .     A
C1068  O1220   1.308   .     A
C1069  N1207   1.424   .     S
C1069  C1084   1.427   .     A
C1069  C1075   1.399   .     A
C1070  C1086   1.416   .     A
C1070  C1081   1.397   .     A
C1070  N1208   1.425   .     S
C1071  N1190   1.427   .     S
C1071  C1085   1.414   .     A
C1071  C1082   1.392   .     A
C1072  C1085   1.424   .     A
C1072  C1078   1.396   .     A
C1072  N1191   1.420   .     S
C1073  C1086   1.407   .     A
C1073  C1080   1.393   .     A
C1073  N1192   1.424   .     S
C1074  N1193   1.420   .     S
C1074  C1088   1.426   .     A
C1075  C1087   1.403   .     A
C1075  N1194   1.425   .     S
C1076  N1195   1.428   .     S
C1076  C1087   1.412   .     A
C1077  C1088   1.426   .     A
C1077  N1196   1.425   .     S
C1078  C1091   1.415   .     A
C1078  N1197   1.429   .     S
C1079  O1231   1.307   .     A
C1079  O1228   1.308   .     A
C1079  C1084   1.487   .     S
C1080  N1198   1.419   .     S
C1080  C1089   1.418   .     A
C1081  N1199   1.424   .     S
C1081  C1089   1.421   .     A
C1082  N1201   1.419   .     S
C1082  C1091   1.415   .     A
C1083  C1090   1.468   .     S
C1087  C1111   1.471   .     S
C1088  C1110   1.483   .     S
C1089  C1109   1.479   .     S
C1090  O1230   1.297   .     A
C1090  O1229   1.308   .     A
C1091  C1101   1.475   .     S
C1092  N1204   1.448   .     S
C1092  H1119   1.110   .     S
C1092  H1118   1.110   .     S
C1092  H1120   1.111   .     S
C1093  H1124   1.112   .     S
C1093  H1122   1.110   .     S
C1093  N1205   1.449   .     S
C1093  H1123   1.111   .     S
C1094  H1126   1.111   .     S
C1094  H1129   1.111   .     S
C1094  H1127   1.112   .     S
C1094  N1206   1.446   .     S
C1095  H1133   1.109   .     S
C1095  N1207   1.448   .     S
C1095  H1131   1.108   .     S
C1095  H1132   1.109   .     S
C1096  N1208   1.449   .     S
C1096  H1136   1.112   .     S
C1096  H1135   1.109   .     S
C1096  H1137   1.111   .     S
C1097  H1142   1.110   .     S
C1097  N1190   1.449   .     S
C1097  H1140   1.108   .     S
C1097  H1141   1.111   .     S
C1098  N1191   1.447   .     S
C1098  H1146   1.110   .     S
C1098  H1145   1.109   .     S
C1098  H1144   1.110   .     S
C1099  H1151   1.111   .     S
C1099  H1148   1.105   .     S
C1099  H1149   1.112   .     S
C1099  N1192   1.448   .     S
C1100  N1193   1.447   .     S
C1100  H1155   1.111   .     S
C1100  H1154   1.110   .     S
C1100  H1153   1.110   .     S
C1101  O1232   1.303   .     A
C1101  O1212   1.305   .     A
C1102  H1158   1.111   .     S
C1102  N1194   1.449   .     S
C1102  H1157   1.110   .     S
C1102  H1159   1.112   .     S
C1103  H1162   1.111   .     S
C1103  H1163   1.112   .     S
C1103  N1195   1.446   .     S
C1103  H1164   1.111   .     S
C1104  H1166   1.109   .     S
C1104  N1196   1.447   .     S
C1104  H1168   1.110   .     S
C1104  H1167   1.109   .     S
C1105  H1173   1.111   .     S
C1105  N1197   1.446   .     S
C1105  H1170   1.111   .     S
C1105  H1171   1.112   .     S
C1106  H1177   1.112   .     S
C1106  H1175   1.110   .     S
C1106  H1176   1.111   .     S
C1106  N1198   1.447   .     S
C1107  H1179   1.110   .     S
C1107  H1180   1.110   .     S
C1107  H1181   1.111   .     S
C1107  N1199   1.445   .     S
C1108  N1201   1.448   .     S
C1108  H1184   1.110   .     S
C1108  H1185   1.111   .     S
C1108  H1186   1.112   .     S
C1109  O1210   1.307   .     A
C1109  O1211   1.303   .     A
C1110  O1213   1.307   .     A
C1110  O1216   1.306   .     A
C1111  O1214   1.310   .     A
C1111  O1215   1.296   .     A
C1112  O1217   1.375   .     S
C1112  N1376   1.378   .     S
Cu1113 O1209   1.996   .     S
Cu1113 O1229   1.993   .     S
Cu1113 Cu1114  2.705   .     S
Cu1113 N1189   2.033   .     S
Cu1113 O1402   2.000   1_455 S
Cu1113 O1407   1.992   1_455 S
Cu1114 O1230   1.992   .     S
Cu1114 O1227   2.000   .     S
Cu1114 N1200   2.033   .     S
Cu1114 O1396   1.996   1_455 S
Cu1114 O1404   1.993   1_455 S
Cu1115 N1202   2.033   .     S
Cu1115 Cu1116  2.705   .     S
Cu1115 O1211   2.000   .     S
Cu1115 O1214   1.993   .     S
Cu1116 N1203   2.033   .     S
Cu1116 O1210   1.996   .     S
Cu1116 O1215   1.992   .     S
H1117  O1393   0.975   1_455 S
H1121  N1205   1.030   .     S
H1125  N1206   1.031   .     S
H1128  O1218   0.974   .     S
H1130  N1207   1.028   .     S
H1134  N1208   1.030   .     S
H1138  N1190   1.031   .     S
H1139  O1395   0.976   .     S
H1143  N1191   1.023   .     S
H1147  N1192   1.031   .     S
H1150  O1397   0.974   .     S
H1152  N1193   1.023   .     S
H1156  N1194   1.029   .     S
H1160  N1195   1.031   .     S
H1161  O1222   0.974   .     S
H1165  N1196   1.027   .     S
H1169  N1197   1.031   .     S
H1172  O1223   0.974   .     S
H1174  N1198   1.027   .     S
H1178  N1199   1.029   .     S
H1182  N1201   1.027   .     S
H1183  O1224   0.973   .     S
H1187  O1225   0.975   .     S
H1188  N1204   1.025   .     S
N1200  C1288   1.378   1_455 S
O1212  Cu764   2.000   1_565 S
O1213  Cu764   1.993   1_565 S
O1216  Cu763   1.992   1_565 S
O1217  H1293   0.975   .     S
O1219  H1315   0.976   1_455 S
O1220  Cu1290  1.996   .     S
O1221  H1326   0.974   1_455 S
O1226  Cu1289  2.000   .     S
O1228  Cu1290  1.993   .     S
O1231  Cu1289  1.992   .     S
O1232  Cu763   1.996   1_565 S
C1233  O1403   1.308   .     A
C1233  O1385   1.300   .     A
C1233  C1262   1.476   .     S
C1234  O1394   1.368   .     S
C1234  C1939   1.407   .     S
C1234  N1365   1.378   .     S
C1235  O1395   1.376   .     S
C1235  N1376   1.376   .     A
C1236  O1397   1.375   .     S
C1236  C1816   1.408   .     S
C1236  N1365   1.378   .     S
C1237  N1027   1.377   1_565 A
C1237  O1398   1.368   .     S
C1238  O1399   1.372   .     S
C1238  C1943   1.405   .     S
C1238  N1378   1.377   .     S
C1239  O1400   1.371   .     S
C1239  N1379   1.377   .     S
C1240  O1401   1.375   .     S
C1240  N1026   1.376   1_565 A
C1240  C1941   1.406   .     S
C1241  C1252   1.396   .     A
C1241  N1380   1.422   .     S
C1241  C1260   1.425   .     A
C1242  C1259   1.403   .     A
C1242  N1381   1.423   .     S
C1242  C1253   1.395   .     A
C1243  C1250   1.394   .     A
C1243  N1382   1.428   .     S
C1243  C1259   1.410   .     A
C1244  C1261   1.480   .     S
C1244  O1402   1.303   .     A
C1244  O1396   1.308   .     A
C1245  N1383   1.424   .     S
C1245  C1260   1.427   .     A
C1245  C1251   1.399   .     A
C1246  C1262   1.416   .     A
C1246  C1257   1.397   .     A
C1246  N1384   1.425   .     S
C1247  N1366   1.427   .     S
C1247  C1261   1.414   .     A
C1247  C1258   1.392   .     A
C1248  C1261   1.424   .     A
C1248  C1254   1.396   .     A
C1248  N1367   1.420   .     S
C1249  C1262   1.407   .     A
C1249  C1256   1.393   .     A
C1249  N1368   1.424   .     S
C1250  N1369   1.420   .     S
C1250  C1264   1.426   .     A
C1251  C1263   1.403   .     A
C1251  N1370   1.425   .     S
C1252  N1371   1.428   .     S
C1252  C1263   1.412   .     A
C1253  C1264   1.426   .     A
C1253  N1372   1.425   .     S
C1254  C1267   1.415   .     A
C1254  N1373   1.429   .     S
C1255  O1407   1.307   .     A
C1255  O1404   1.308   .     A
C1255  C1260   1.487   .     S
C1256  N1374   1.419   .     S
C1256  C1265   1.418   .     A
C1257  N1375   1.424   .     S
C1257  C1265   1.421   .     A
C1258  N1377   1.419   .     S
C1258  C1267   1.415   .     A
C1259  C1266   1.468   .     S
C1263  C1287   1.471   .     S
C1264  C1286   1.483   .     S
C1265  C1285   1.479   .     S
C1266  O1406   1.297   .     A
C1266  O1405   1.308   .     A
C1267  C1277   1.475   .     S
C1268  N1380   1.448   .     S
C1268  H1295   1.110   .     S
C1268  H1294   1.110   .     S
C1268  H1296   1.111   .     S
C1269  H1300   1.112   .     S
C1269  H1298   1.110   .     S
C1269  N1381   1.449   .     S
C1269  H1299   1.111   .     S
C1270  H1302   1.111   .     S
C1270  H1305   1.111   .     S
C1270  H1303   1.112   .     S
C1270  N1382   1.446   .     S
C1271  H1309   1.109   .     S
C1271  N1383   1.448   .     S
C1271  H1307   1.108   .     S
C1271  H1308   1.109   .     S
C1272  N1384   1.449   .     S
C1272  H1312   1.112   .     S
C1272  H1311   1.109   .     S
C1272  H1313   1.111   .     S
C1273  H1318   1.110   .     S
C1273  N1366   1.449   .     S
C1273  H1316   1.108   .     S
C1273  H1317   1.111   .     S
C1274  N1367   1.447   .     S
C1274  H1322   1.110   .     S
C1274  H1321   1.109   .     S
C1274  H1320   1.110   .     S
C1275  H1327   1.111   .     S
C1275  H1324   1.105   .     S
C1275  H1325   1.112   .     S
C1275  N1368   1.448   .     S
C1276  N1369   1.447   .     S
C1276  H1331   1.111   .     S
C1276  H1330   1.110   .     S
C1276  H1329   1.110   .     S
C1277  O1408   1.303   .     A
C1277  O1388   1.305   .     A
C1278  H1334   1.111   .     S
C1278  N1370   1.449   .     S
C1278  H1333   1.110   .     S
C1278  H1335   1.112   .     S
C1279  H1338   1.111   .     S
C1279  H1339   1.112   .     S
C1279  N1371   1.446   .     S
C1279  H1340   1.111   .     S
C1280  H1342   1.109   .     S
C1280  N1372   1.447   .     S
C1280  H1344   1.110   .     S
C1280  H1343   1.109   .     S
C1281  H1349   1.111   .     S
C1281  N1373   1.446   .     S
C1281  H1346   1.111   .     S
C1281  H1347   1.112   .     S
C1282  H1353   1.112   .     S
C1282  H1351   1.110   .     S
C1282  H1352   1.111   .     S
C1282  N1374   1.447   .     S
C1283  H1355   1.110   .     S
C1283  H1356   1.110   .     S
C1283  H1357   1.111   .     S
C1283  N1375   1.445   .     S
C1284  N1377   1.448   .     S
C1284  H1360   1.110   .     S
C1284  H1361   1.111   .     S
C1284  H1362   1.112   .     S
C1285  O1386   1.307   .     A
C1285  O1387   1.303   .     A
C1286  O1389   1.307   .     A
C1286  O1392   1.306   .     A
C1287  O1390   1.310   .     A
C1287  O1391   1.296   .     A
C1288  O1393   1.375   .     S
C1288  C356    1.408   1_655 S
C1288  N1200   1.378   1_655 S
Cu1289 O1385   1.996   .     S
Cu1289 O1405   1.993   .     S
Cu1289 Cu1290  2.705   .     S
Cu1289 N1365   2.033   .     S
Cu1290 O1406   1.992   .     S
Cu1290 O1403   2.000   .     S
Cu1290 N1376   2.033   .     S
Cu1291 N1378   2.033   .     S
Cu1291 Cu1292  2.705   .     S
Cu1291 O1387   2.000   .     S
Cu1291 O1390   1.993   .     S
Cu1292 N1379   2.033   .     S
Cu1292 O1386   1.996   .     S
Cu1292 O1391   1.992   .     S
H1297  N1381   1.030   .     S
H1301  N1382   1.031   .     S
H1304  O1394   0.974   .     S
H1306  N1383   1.028   .     S
H1310  N1384   1.030   .     S
H1314  N1366   1.031   .     S
H1315  O1219   0.976   1_655 S
H1319  N1367   1.023   .     S
H1323  N1368   1.031   .     S
H1326  O1221   0.974   1_655 S
H1328  N1369   1.023   .     S
H1332  N1370   1.029   .     S
H1336  N1371   1.031   .     S
H1337  O1398   0.974   .     S
H1341  N1372   1.027   .     S
H1345  N1373   1.031   .     S
H1348  O1399   0.974   .     S
H1350  N1374   1.027   .     S
H1354  N1375   1.029   .     S
H1358  N1377   1.027   .     S
H1359  O1400   0.973   .     S
H1363  O1401   0.975   .     S
H1364  N1380   1.025   .     S
O1388  Cu940   2.000   1_565 S
O1389  Cu940   1.993   1_565 S
O1392  Cu939   1.992   1_565 S
O1393  H1117   0.975   1_655 S
O1396  Cu1114  1.996   1_655 S
O1402  Cu1113  2.000   1_655 S
O1404  Cu1114  1.993   1_655 S
O1407  Cu1113  1.992   1_655 S
O1408  Cu939   1.996   1_565 S
C1409  O1579   1.308   .     A
C1409  O1561   1.300   .     A
C1409  C1438   1.476   .     S
C1410  O1570   1.368   .     S
C1410  C3      1.407   1_556 S
C1410  N1541   1.378   .     S
C1411  O1571   1.376   .     S
C1411  N1552   1.376   .     A
C1412  O1573   1.375   .     S
C1412  C232    1.408   1_456 S
C1412  N1541   1.378   .     S
C1413  N1907   1.377   .     A
C1413  O1574   1.368   .     S
C1414  O1575   1.372   .     S
C1414  C7      1.405   1_556 S
C1414  N1554   1.377   .     S
C1415  O1576   1.371   .     S
C1415  N1555   1.377   .     S
C1416  O1577   1.375   .     S
C1416  N1906   1.376   .     A
C1416  C5      1.406   1_556 S
C1417  C1428   1.396   .     A
C1417  N1556   1.422   .     S
C1417  C1436   1.425   .     A
C1418  C1435   1.403   .     A
C1418  N1557   1.423   .     S
C1418  C1429   1.395   .     A
C1419  C1426   1.394   .     A
C1419  N1558   1.428   .     S
C1419  C1435   1.410   .     A
C1420  C1437   1.480   .     S
C1420  O1578   1.303   .     A
C1420  O1572   1.308   .     A
C1421  N1559   1.424   .     S
C1421  C1436   1.427   .     A
C1421  C1427   1.399   .     A
C1422  C1438   1.416   .     A
C1422  C1433   1.397   .     A
C1422  N1560   1.425   .     S
C1423  N1542   1.427   .     S
C1423  C1437   1.414   .     A
C1423  C1434   1.392   .     A
C1424  C1437   1.424   .     A
C1424  C1430   1.396   .     A
C1424  N1543   1.420   .     S
C1425  C1438   1.407   .     A
C1425  C1432   1.393   .     A
C1425  N1544   1.424   .     S
C1426  N1545   1.420   .     S
C1426  C1440   1.426   .     A
C1427  C1439   1.403   .     A
C1427  N1546   1.425   .     S
C1428  N1547   1.428   .     S
C1428  C1439   1.412   .     A
C1429  C1440   1.426   .     A
C1429  N1548   1.425   .     S
C1430  C1443   1.415   .     A
C1430  N1549   1.429   .     S
C1431  O1583   1.307   .     A
C1431  O1580   1.308   .     A
C1431  C1436   1.487   .     S
C1432  N1550   1.419   .     S
C1432  C1441   1.418   .     A
C1433  N1551   1.424   .     S
C1433  C1441   1.421   .     A
C1434  N1553   1.419   .     S
C1434  C1443   1.415   .     A
C1435  C1442   1.468   .     S
C1439  C1463   1.471   .     S
C1440  C1462   1.483   .     S
C1441  C1461   1.479   .     S
C1442  O1582   1.297   .     A
C1442  O1581   1.308   .     A
C1443  C1453   1.475   .     S
C1444  N1556   1.448   .     S
C1444  H1471   1.110   .     S
C1444  H1470   1.110   .     S
C1444  H1472   1.111   .     S
C1445  H1476   1.112   .     S
C1445  H1474   1.110   .     S
C1445  N1557   1.449   .     S
C1445  H1475   1.111   .     S
C1446  H1478   1.111   .     S
C1446  H1481   1.111   .     S
C1446  H1479   1.112   .     S
C1446  N1558   1.446   .     S
C1447  H1485   1.109   .     S
C1447  N1559   1.448   .     S
C1447  H1483   1.108   .     S
C1447  H1484   1.109   .     S
C1448  N1560   1.449   .     S
C1448  H1488   1.112   .     S
C1448  H1487   1.109   .     S
C1448  H1489   1.111   .     S
C1449  H1494   1.110   .     S
C1449  N1542   1.449   .     S
C1449  H1492   1.108   .     S
C1449  H1493   1.111   .     S
C1450  N1543   1.447   .     S
C1450  H1498   1.110   .     S
C1450  H1497   1.109   .     S
C1450  H1496   1.110   .     S
C1451  H1503   1.111   .     S
C1451  H1500   1.105   .     S
C1451  H1501   1.112   .     S
C1451  N1544   1.448   .     S
C1452  N1545   1.447   .     S
C1452  H1507   1.111   .     S
C1452  H1506   1.110   .     S
C1452  H1505   1.110   .     S
C1453  O1584   1.303   .     A
C1453  O1564   1.305   .     A
C1454  H1510   1.111   .     S
C1454  N1546   1.449   .     S
C1454  H1509   1.110   .     S
C1454  H1511   1.112   .     S
C1455  H1514   1.111   .     S
C1455  H1515   1.112   .     S
C1455  N1547   1.446   .     S
C1455  H1516   1.111   .     S
C1456  H1518   1.109   .     S
C1456  N1548   1.447   .     S
C1456  H1520   1.110   .     S
C1456  H1519   1.109   .     S
C1457  H1525   1.111   .     S
C1457  N1549   1.446   .     S
C1457  H1522   1.111   .     S
C1457  H1523   1.112   .     S
C1458  H1529   1.112   .     S
C1458  H1527   1.110   .     S
C1458  H1528   1.111   .     S
C1458  N1550   1.447   .     S
C1459  H1531   1.110   .     S
C1459  H1532   1.110   .     S
C1459  H1533   1.111   .     S
C1459  N1551   1.445   .     S
C1460  N1553   1.448   .     S
C1460  H1536   1.110   .     S
C1460  H1537   1.111   .     S
C1460  H1538   1.112   .     S
C1461  O1562   1.307   .     A
C1461  O1563   1.303   .     A
C1462  O1565   1.307   .     A
C1462  O1568   1.306   .     A
C1463  O1566   1.310   .     A
C1463  O1567   1.296   .     A
C1464  O1569   1.375   .     S
C1464  N1728   1.378   .     S
Cu1465 O1561   1.996   .     S
Cu1465 O1581   1.993   .     S
Cu1465 Cu1466  2.705   .     S
Cu1465 N1541   2.033   .     S
Cu1465 O1754   2.000   1_455 S
Cu1465 O1759   1.992   1_455 S
Cu1466 O1582   1.992   .     S
Cu1466 O1579   2.000   .     S
Cu1466 N1552   2.033   .     S
Cu1466 O1748   1.996   1_455 S
Cu1466 O1756   1.993   1_455 S
Cu1467 O1920   1.992   1_545 S
Cu1467 O1936   1.996   1_545 S
Cu1467 N1554   2.033   .     S
Cu1467 Cu1468  2.705   .     S
Cu1467 O1563   2.000   .     S
Cu1467 O1566   1.993   .     S
Cu1468 N1555   2.033   .     S
Cu1468 O1917   1.993   1_545 S
Cu1468 O1916   2.000   1_545 S
Cu1468 O1562   1.996   .     S
Cu1468 O1567   1.992   .     S
H1469  O1745   0.975   1_455 S
H1473  N1557   1.030   .     S
H1477  N1558   1.031   .     S
H1480  O1570   0.974   .     S
H1482  N1559   1.028   .     S
H1486  N1560   1.030   .     S
H1490  N1542   1.031   .     S
H1491  O1747   0.976   .     S
H1495  N1543   1.023   .     S
H1499  N1544   1.031   .     S
H1502  O1749   0.974   .     S
H1504  N1545   1.023   .     S
H1508  N1546   1.029   .     S
H1512  N1547   1.031   .     S
H1513  O1574   0.974   .     S
H1517  N1548   1.027   .     S
H1521  N1549   1.031   .     S
H1524  O1575   0.974   .     S
H1526  N1550   1.027   .     S
H1530  N1551   1.029   .     S
H1534  N1553   1.027   .     S
H1535  O1576   0.973   .     S
H1539  O1577   0.975   .     S
H1540  N1556   1.025   .     S
N1552  C1640   1.378   1_455 S
N1554  C1768   1.376   1_545 A
N1555  C1765   1.377   1_545 A
O1564  Cu1820  2.000   .     S
O1565  Cu1820  1.993   .     S
O1568  Cu1819  1.992   .     S
O1569  H1645   0.975   .     S
O1571  H1667   0.976   1_455 S
O1572  Cu1642  1.996   .     S
O1573  H1678   0.974   1_455 S
O1578  Cu1641  2.000   .     S
O1580  Cu1642  1.993   .     S
O1583  Cu1641  1.992   .     S
O1584  Cu1819  1.996   .     S
C1585  O1755   1.308   .     A
C1585  O1737   1.300   .     A
C1585  C1614   1.476   .     S
C1586  O1746   1.368   .     S
C1586  C179    1.407   1_556 S
C1586  N1717   1.378   .     S
C1587  O1747   1.376   .     S
C1587  N1728   1.376   .     A
C1588  O1749   1.375   .     S
C1588  C56     1.408   1_556 S
C1588  N1717   1.378   .     S
C1589  N2083   1.377   .     A
C1589  O1750   1.368   .     S
C1590  O1751   1.372   .     S
C1590  C183    1.405   1_556 S
C1590  N1730   1.377   .     S
C1591  O1752   1.371   .     S
C1591  N1731   1.377   .     S
C1592  O1753   1.375   .     S
C1592  N2082   1.376   .     A
C1592  C181    1.406   1_556 S
C1593  C1604   1.396   .     A
C1593  N1732   1.422   .     S
C1593  C1612   1.425   .     A
C1594  C1611   1.403   .     A
C1594  N1733   1.423   .     S
C1594  C1605   1.395   .     A
C1595  C1602   1.394   .     A
C1595  N1734   1.428   .     S
C1595  C1611   1.410   .     A
C1596  C1613   1.480   .     S
C1596  O1754   1.303   .     A
C1596  O1748   1.308   .     A
C1597  N1735   1.424   .     S
C1597  C1612   1.427   .     A
C1597  C1603   1.399   .     A
C1598  C1614   1.416   .     A
C1598  C1609   1.397   .     A
C1598  N1736   1.425   .     S
C1599  N1718   1.427   .     S
C1599  C1613   1.414   .     A
C1599  C1610   1.392   .     A
C1600  C1613   1.424   .     A
C1600  C1606   1.396   .     A
C1600  N1719   1.420   .     S
C1601  C1614   1.407   .     A
C1601  C1608   1.393   .     A
C1601  N1720   1.424   .     S
C1602  N1721   1.420   .     S
C1602  C1616   1.426   .     A
C1603  C1615   1.403   .     A
C1603  N1722   1.425   .     S
C1604  N1723   1.428   .     S
C1604  C1615   1.412   .     A
C1605  C1616   1.426   .     A
C1605  N1724   1.425   .     S
C1606  C1619   1.415   .     A
C1606  N1725   1.429   .     S
C1607  O1759   1.307   .     A
C1607  O1756   1.308   .     A
C1607  C1612   1.487   .     S
C1608  N1726   1.419   .     S
C1608  C1617   1.418   .     A
C1609  N1727   1.424   .     S
C1609  C1617   1.421   .     A
C1610  N1729   1.419   .     S
C1610  C1619   1.415   .     A
C1611  C1618   1.468   .     S
C1615  C1639   1.471   .     S
C1616  C1638   1.483   .     S
C1617  C1637   1.479   .     S
C1618  O1758   1.297   .     A
C1618  O1757   1.308   .     A
C1619  C1629   1.475   .     S
C1620  N1732   1.448   .     S
C1620  H1647   1.110   .     S
C1620  H1646   1.110   .     S
C1620  H1648   1.111   .     S
C1621  H1652   1.112   .     S
C1621  H1650   1.110   .     S
C1621  N1733   1.449   .     S
C1621  H1651   1.111   .     S
C1622  H1654   1.111   .     S
C1622  H1657   1.111   .     S
C1622  H1655   1.112   .     S
C1622  N1734   1.446   .     S
C1623  H1661   1.109   .     S
C1623  N1735   1.448   .     S
C1623  H1659   1.108   .     S
C1623  H1660   1.109   .     S
C1624  N1736   1.449   .     S
C1624  H1664   1.112   .     S
C1624  H1663   1.109   .     S
C1624  H1665   1.111   .     S
C1625  H1670   1.110   .     S
C1625  N1718   1.449   .     S
C1625  H1668   1.108   .     S
C1625  H1669   1.111   .     S
C1626  N1719   1.447   .     S
C1626  H1674   1.110   .     S
C1626  H1673   1.109   .     S
C1626  H1672   1.110   .     S
C1627  H1679   1.111   .     S
C1627  H1676   1.105   .     S
C1627  H1677   1.112   .     S
C1627  N1720   1.448   .     S
C1628  N1721   1.447   .     S
C1628  H1683   1.111   .     S
C1628  H1682   1.110   .     S
C1628  H1681   1.110   .     S
C1629  O1760   1.303   .     A
C1629  O1740   1.305   .     A
C1630  H1686   1.111   .     S
C1630  N1722   1.449   .     S
C1630  H1685   1.110   .     S
C1630  H1687   1.112   .     S
C1631  H1690   1.111   .     S
C1631  H1691   1.112   .     S
C1631  N1723   1.446   .     S
C1631  H1692   1.111   .     S
C1632  H1694   1.109   .     S
C1632  N1724   1.447   .     S
C1632  H1696   1.110   .     S
C1632  H1695   1.109   .     S
C1633  H1701   1.111   .     S
C1633  N1725   1.446   .     S
C1633  H1698   1.111   .     S
C1633  H1699   1.112   .     S
C1634  H1705   1.112   .     S
C1634  H1703   1.110   .     S
C1634  H1704   1.111   .     S
C1634  N1726   1.447   .     S
C1635  H1707   1.110   .     S
C1635  H1708   1.110   .     S
C1635  H1709   1.111   .     S
C1635  N1727   1.445   .     S
C1636  N1729   1.448   .     S
C1636  H1712   1.110   .     S
C1636  H1713   1.111   .     S
C1636  H1714   1.112   .     S
C1637  O1738   1.307   .     A
C1637  O1739   1.303   .     A
C1638  O1741   1.307   .     A
C1638  O1744   1.306   .     A
C1639  O1742   1.310   .     A
C1639  O1743   1.296   .     A
C1640  O1745   1.375   .     S
C1640  C708    1.408   1_655 S
C1640  N1552   1.378   1_655 S
Cu1641 O1737   1.996   .     S
Cu1641 O1757   1.993   .     S
Cu1641 Cu1642  2.705   .     S
Cu1641 N1717   2.033   .     S
Cu1642 O1758   1.992   .     S
Cu1642 O1755   2.000   .     S
Cu1642 N1728   2.033   .     S
Cu1643 O2096   1.992   1_545 S
Cu1643 O2112   1.996   1_545 S
Cu1643 N1730   2.033   .     S
Cu1643 Cu1644  2.705   .     S
Cu1643 O1739   2.000   .     S
Cu1643 O1742   1.993   .     S
Cu1644 N1731   2.033   .     S
Cu1644 O2093   1.993   1_545 S
Cu1644 O2092   2.000   1_545 S
Cu1644 O1738   1.996   .     S
Cu1644 O1743   1.992   .     S
H1649  N1733   1.030   .     S
H1653  N1734   1.031   .     S
H1656  O1746   0.974   .     S
H1658  N1735   1.028   .     S
H1662  N1736   1.030   .     S
H1666  N1718   1.031   .     S
H1667  O1571   0.976   1_655 S
H1671  N1719   1.023   .     S
H1675  N1720   1.031   .     S
H1678  O1573   0.974   1_655 S
H1680  N1721   1.023   .     S
H1684  N1722   1.029   .     S
H1688  N1723   1.031   .     S
H1689  O1750   0.974   .     S
H1693  N1724   1.027   .     S
H1697  N1725   1.031   .     S
H1700  O1751   0.974   .     S
H1702  N1726   1.027   .     S
H1706  N1727   1.029   .     S
H1710  N1729   1.027   .     S
H1711  O1752   0.973   .     S
H1715  O1753   0.975   .     S
H1716  N1732   1.025   .     S
N1730  C1944   1.376   1_545 A
N1731  C1941   1.377   1_545 A
O1740  Cu1996  2.000   .     S
O1741  Cu1996  1.993   .     S
O1744  Cu1995  1.992   .     S
O1745  H1469   0.975   1_655 S
O1748  Cu1466  1.996   1_655 S
O1754  Cu1465  2.000   1_655 S
O1756  Cu1466  1.993   1_655 S
O1759  Cu1465  1.992   1_655 S
O1760  Cu1995  1.996   .     S
C1761  O1931   1.308   .     A
C1761  O1913   1.300   .     A
C1761  C1790   1.476   .     S
C1762  O1922   1.368   .     S
C1762  C355    1.407   1_556 S
C1762  N1893   1.378   .     S
C1763  O1923   1.376   .     S
C1763  N1904   1.376   .     A
C1764  O1925   1.375   .     S
C1764  C584    1.408   1_456 S
C1764  N1893   1.378   .     S
C1765  N1555   1.377   1_565 A
C1765  O1926   1.368   .     S
C1766  O1927   1.372   .     S
C1766  C359    1.405   1_556 S
C1766  N1906   1.377   .     S
C1767  O1928   1.371   .     S
C1767  N1907   1.377   .     S
C1768  O1929   1.375   .     S
C1768  N1554   1.376   1_565 A
C1768  C357    1.406   1_556 S
C1769  C1780   1.396   .     A
C1769  N1908   1.422   .     S
C1769  C1788   1.425   .     A
C1770  C1787   1.403   .     A
C1770  N1909   1.423   .     S
C1770  C1781   1.395   .     A
C1771  C1778   1.394   .     A
C1771  N1910   1.428   .     S
C1771  C1787   1.410   .     A
C1772  C1789   1.480   .     S
C1772  O1930   1.303   .     A
C1772  O1924   1.308   .     A
C1773  N1911   1.424   .     S
C1773  C1788   1.427   .     A
C1773  C1779   1.399   .     A
C1774  C1790   1.416   .     A
C1774  C1785   1.397   .     A
C1774  N1912   1.425   .     S
C1775  N1894   1.427   .     S
C1775  C1789   1.414   .     A
C1775  C1786   1.392   .     A
C1776  C1789   1.424   .     A
C1776  C1782   1.396   .     A
C1776  N1895   1.420   .     S
C1777  C1790   1.407   .     A
C1777  C1784   1.393   .     A
C1777  N1896   1.424   .     S
C1778  N1897   1.420   .     S
C1778  C1792   1.426   .     A
C1779  C1791   1.403   .     A
C1779  N1898   1.425   .     S
C1780  N1899   1.428   .     S
C1780  C1791   1.412   .     A
C1781  C1792   1.426   .     A
C1781  N1900   1.425   .     S
C1782  C1795   1.415   .     A
C1782  N1901   1.429   .     S
C1783  O1935   1.307   .     A
C1783  O1932   1.308   .     A
C1783  C1788   1.487   .     S
C1784  N1902   1.419   .     S
C1784  C1793   1.418   .     A
C1785  N1903   1.424   .     S
C1785  C1793   1.421   .     A
C1786  N1905   1.419   .     S
C1786  C1795   1.415   .     A
C1787  C1794   1.468   .     S
C1791  C1815   1.471   .     S
C1792  C1814   1.483   .     S
C1793  C1813   1.479   .     S
C1794  O1934   1.297   .     A
C1794  O1933   1.308   .     A
C1795  C1805   1.475   .     S
C1796  N1908   1.448   .     S
C1796  H1823   1.110   .     S
C1796  H1822   1.110   .     S
C1796  H1824   1.111   .     S
C1797  H1828   1.112   .     S
C1797  H1826   1.110   .     S
C1797  N1909   1.449   .     S
C1797  H1827   1.111   .     S
C1798  H1830   1.111   .     S
C1798  H1833   1.111   .     S
C1798  H1831   1.112   .     S
C1798  N1910   1.446   .     S
C1799  H1837   1.109   .     S
C1799  N1911   1.448   .     S
C1799  H1835   1.108   .     S
C1799  H1836   1.109   .     S
C1800  N1912   1.449   .     S
C1800  H1840   1.112   .     S
C1800  H1839   1.109   .     S
C1800  H1841   1.111   .     S
C1801  H1846   1.110   .     S
C1801  N1894   1.449   .     S
C1801  H1844   1.108   .     S
C1801  H1845   1.111   .     S
C1802  N1895   1.447   .     S
C1802  H1850   1.110   .     S
C1802  H1849   1.109   .     S
C1802  H1848   1.110   .     S
C1803  H1855   1.111   .     S
C1803  H1852   1.105   .     S
C1803  H1853   1.112   .     S
C1803  N1896   1.448   .     S
C1804  N1897   1.447   .     S
C1804  H1859   1.111   .     S
C1804  H1858   1.110   .     S
C1804  H1857   1.110   .     S
C1805  O1936   1.303   .     A
C1805  O1916   1.305   .     A
C1806  H1862   1.111   .     S
C1806  N1898   1.449   .     S
C1806  H1861   1.110   .     S
C1806  H1863   1.112   .     S
C1807  H1866   1.111   .     S
C1807  H1867   1.112   .     S
C1807  N1899   1.446   .     S
C1807  H1868   1.111   .     S
C1808  H1870   1.109   .     S
C1808  N1900   1.447   .     S
C1808  H1872   1.110   .     S
C1808  H1871   1.109   .     S
C1809  H1877   1.111   .     S
C1809  N1901   1.446   .     S
C1809  H1874   1.111   .     S
C1809  H1875   1.112   .     S
C1810  H1881   1.112   .     S
C1810  H1879   1.110   .     S
C1810  H1880   1.111   .     S
C1810  N1902   1.447   .     S
C1811  H1883   1.110   .     S
C1811  H1884   1.110   .     S
C1811  H1885   1.111   .     S
C1811  N1903   1.445   .     S
C1812  N1905   1.448   .     S
C1812  H1888   1.110   .     S
C1812  H1889   1.111   .     S
C1812  H1890   1.112   .     S
C1813  O1914   1.307   .     A
C1813  O1915   1.303   .     A
C1814  O1917   1.307   .     A
C1814  O1920   1.306   .     A
C1815  O1918   1.310   .     A
C1815  O1919   1.296   .     A
C1816  O1921   1.375   .     S
C1816  N2080   1.378   .     S
Cu1817 O1913   1.996   .     S
Cu1817 O1933   1.993   .     S
Cu1817 Cu1818  2.705   .     S
Cu1817 N1893   2.033   .     S
Cu1817 O2106   2.000   1_455 S
Cu1817 O2111   1.992   1_455 S
Cu1818 O1934   1.992   .     S
Cu1818 O1931   2.000   .     S
Cu1818 N1904   2.033   .     S
Cu1818 O2100   1.996   1_455 S
Cu1818 O2108   1.993   1_455 S
Cu1819 N1906   2.033   .     S
Cu1819 Cu1820  2.705   .     S
Cu1819 O1915   2.000   .     S
Cu1819 O1918   1.993   .     S
Cu1820 N1907   2.033   .     S
Cu1820 O1914   1.996   .     S
Cu1820 O1919   1.992   .     S
H1821  O2097   0.975   1_455 S
H1825  N1909   1.030   .     S
H1829  N1910   1.031   .     S
H1832  O1922   0.974   .     S
H1834  N1911   1.028   .     S
H1838  N1912   1.030   .     S
H1842  N1894   1.031   .     S
H1843  O2099   0.976   .     S
H1847  N1895   1.023   .     S
H1851  N1896   1.031   .     S
H1854  O2101   0.974   .     S
H1856  N1897   1.023   .     S
H1860  N1898   1.029   .     S
H1864  N1899   1.031   .     S
H1865  O1926   0.974   .     S
H1869  N1900   1.027   .     S
H1873  N1901   1.031   .     S
H1876  O1927   0.974   .     S
H1878  N1902   1.027   .     S
H1882  N1903   1.029   .     S
H1886  N1905   1.027   .     S
H1887  O1928   0.973   .     S
H1891  O1929   0.975   .     S
H1892  N1908   1.025   .     S
N1904  C1992   1.378   1_455 S
O1916  Cu1468  2.000   1_565 S
O1917  Cu1468  1.993   1_565 S
O1920  Cu1467  1.992   1_565 S
O1921  H1997   0.975   .     S
O1923  H2019   0.976   1_455 S
O1924  Cu1994  1.996   .     S
O1925  H2030   0.974   1_455 S
O1930  Cu1993  2.000   .     S
O1932  Cu1994  1.993   .     S
O1935  Cu1993  1.992   .     S
O1936  Cu1467  1.996   1_565 S
C1937  O2107   1.308   .     A
C1937  O2089   1.300   .     A
C1937  C1966   1.476   .     S
C1938  O2098   1.368   .     S
C1938  C531    1.407   1_556 S
C1938  N2069   1.378   .     S
C1939  O2099   1.376   .     S
C1939  N2080   1.376   .     A
C1940  O2101   1.375   .     S
C1940  C408    1.408   1_556 S
C1940  N2069   1.378   .     S
C1941  N1731   1.377   1_565 A
C1941  O2102   1.368   .     S
C1942  O2103   1.372   .     S
C1942  C535    1.405   1_556 S
C1942  N2082   1.377   .     S
C1943  O2104   1.371   .     S
C1943  N2083   1.377   .     S
C1944  O2105   1.375   .     S
C1944  N1730   1.376   1_565 A
C1944  C533    1.406   1_556 S
C1945  C1956   1.396   .     A
C1945  N2084   1.422   .     S
C1945  C1964   1.425   .     A
C1946  C1963   1.403   .     A
C1946  N2085   1.423   .     S
C1946  C1957   1.395   .     A
C1947  C1954   1.394   .     A
C1947  N2086   1.428   .     S
C1947  C1963   1.410   .     A
C1948  C1965   1.480   .     S
C1948  O2106   1.303   .     A
C1948  O2100   1.308   .     A
C1949  N2087   1.424   .     S
C1949  C1964   1.427   .     A
C1949  C1955   1.399   .     A
C1950  C1966   1.416   .     A
C1950  C1961   1.397   .     A
C1950  N2088   1.425   .     S
C1951  N2070   1.427   .     S
C1951  C1965   1.414   .     A
C1951  C1962   1.392   .     A
C1952  C1965   1.424   .     A
C1952  C1958   1.396   .     A
C1952  N2071   1.420   .     S
C1953  C1966   1.407   .     A
C1953  C1960   1.393   .     A
C1953  N2072   1.424   .     S
C1954  N2073   1.420   .     S
C1954  C1968   1.426   .     A
C1955  C1967   1.403   .     A
C1955  N2074   1.425   .     S
C1956  N2075   1.428   .     S
C1956  C1967   1.412   .     A
C1957  C1968   1.426   .     A
C1957  N2076   1.425   .     S
C1958  C1971   1.415   .     A
C1958  N2077   1.429   .     S
C1959  O2111   1.307   .     A
C1959  O2108   1.308   .     A
C1959  C1964   1.487   .     S
C1960  N2078   1.419   .     S
C1960  C1969   1.418   .     A
C1961  N2079   1.424   .     S
C1961  C1969   1.421   .     A
C1962  N2081   1.419   .     S
C1962  C1971   1.415   .     A
C1963  C1970   1.468   .     S
C1967  C1991   1.471   .     S
C1968  C1990   1.483   .     S
C1969  C1989   1.479   .     S
C1970  O2110   1.297   .     A
C1970  O2109   1.308   .     A
C1971  C1981   1.475   .     S
C1972  N2084   1.448   .     S
C1972  H1999   1.110   .     S
C1972  H1998   1.110   .     S
C1972  H2000   1.111   .     S
C1973  H2004   1.112   .     S
C1973  H2002   1.110   .     S
C1973  N2085   1.449   .     S
C1973  H2003   1.111   .     S
C1974  H2006   1.111   .     S
C1974  H2009   1.111   .     S
C1974  H2007   1.112   .     S
C1974  N2086   1.446   .     S
C1975  H2013   1.109   .     S
C1975  N2087   1.448   .     S
C1975  H2011   1.108   .     S
C1975  H2012   1.109   .     S
C1976  N2088   1.449   .     S
C1976  H2016   1.112   .     S
C1976  H2015   1.109   .     S
C1976  H2017   1.111   .     S
C1977  H2022   1.110   .     S
C1977  N2070   1.449   .     S
C1977  H2020   1.108   .     S
C1977  H2021   1.111   .     S
C1978  N2071   1.447   .     S
C1978  H2026   1.110   .     S
C1978  H2025   1.109   .     S
C1978  H2024   1.110   .     S
C1979  H2031   1.111   .     S
C1979  H2028   1.105   .     S
C1979  H2029   1.112   .     S
C1979  N2072   1.448   .     S
C1980  N2073   1.447   .     S
C1980  H2035   1.111   .     S
C1980  H2034   1.110   .     S
C1980  H2033   1.110   .     S
C1981  O2112   1.303   .     A
C1981  O2092   1.305   .     A
C1982  H2038   1.111   .     S
C1982  N2074   1.449   .     S
C1982  H2037   1.110   .     S
C1982  H2039   1.112   .     S
C1983  H2042   1.111   .     S
C1983  H2043   1.112   .     S
C1983  N2075   1.446   .     S
C1983  H2044   1.111   .     S
C1984  H2046   1.109   .     S
C1984  N2076   1.447   .     S
C1984  H2048   1.110   .     S
C1984  H2047   1.109   .     S
C1985  H2053   1.111   .     S
C1985  N2077   1.446   .     S
C1985  H2050   1.111   .     S
C1985  H2051   1.112   .     S
C1986  H2057   1.112   .     S
C1986  H2055   1.110   .     S
C1986  H2056   1.111   .     S
C1986  N2078   1.447   .     S
C1987  H2059   1.110   .     S
C1987  H2060   1.110   .     S
C1987  H2061   1.111   .     S
C1987  N2079   1.445   .     S
C1988  N2081   1.448   .     S
C1988  H2064   1.110   .     S
C1988  H2065   1.111   .     S
C1988  H2066   1.112   .     S
C1989  O2090   1.307   .     A
C1989  O2091   1.303   .     A
C1990  O2093   1.307   .     A
C1990  O2096   1.306   .     A
C1991  O2094   1.310   .     A
C1991  O2095   1.296   .     A
C1992  O2097   1.375   .     S
C1992  C1060   1.408   1_655 S
C1992  N1904   1.378   1_655 S
Cu1993 O2089   1.996   .     S
Cu1993 O2109   1.993   .     S
Cu1993 Cu1994  2.705   .     S
Cu1993 N2069   2.033   .     S
Cu1994 O2110   1.992   .     S
Cu1994 O2107   2.000   .     S
Cu1994 N2080   2.033   .     S
Cu1995 N2082   2.033   .     S
Cu1995 Cu1996  2.705   .     S
Cu1995 O2091   2.000   .     S
Cu1995 O2094   1.993   .     S
Cu1996 N2083   2.033   .     S
Cu1996 O2090   1.996   .     S
Cu1996 O2095   1.992   .     S
H2001  N2085   1.030   .     S
H2005  N2086   1.031   .     S
H2008  O2098   0.974   .     S
H2010  N2087   1.028   .     S
H2014  N2088   1.030   .     S
H2018  N2070   1.031   .     S
H2019  O1923   0.976   1_655 S
H2023  N2071   1.023   .     S
H2027  N2072   1.031   .     S
H2030  O1925   0.974   1_655 S
H2032  N2073   1.023   .     S
H2036  N2074   1.029   .     S
H2040  N2075   1.031   .     S
H2041  O2102   0.974   .     S
H2045  N2076   1.027   .     S
H2049  N2077   1.031   .     S
H2052  O2103   0.974   .     S
H2054  N2078   1.027   .     S
H2058  N2079   1.029   .     S
H2062  N2081   1.027   .     S
H2063  O2104   0.973   .     S
H2067  O2105   0.975   .     S
H2068  N2084   1.025   .     S
O2092  Cu1644  2.000   1_565 S
O2093  Cu1644  1.993   1_565 S
O2096  Cu1643  1.992   1_565 S
O2097  H1821   0.975   1_655 S
O2100  Cu1818  1.996   1_655 S
O2106  Cu1817  2.000   1_655 S
O2108  Cu1818  1.993   1_655 S
O2111  Cu1817  1.992   1_655 S
O2112  Cu1643  1.996   1_565 S
