data_str_m2_o1_o1_pcu_sym.60
_audit_creation_date              2020-01-03
_audit_creation_method            'Materials Studio'
_symmetry_space_group_name_H-M    'P1'
_symmetry_Int_Tables_number       1
_symmetry_cell_setting            triclinic
loop_
_symmetry_equiv_pos_as_xyz
  x,y,z
_cell_length_a                    31.4442
_cell_length_b                    29.5277
_cell_length_c                    29.3029
_cell_angle_alpha                 90.0010
_cell_angle_beta                  89.0542
_cell_angle_gamma                 89.9998
loop_
_atom_site_label
_atom_site_type_symbol
_atom_site_fract_x
_atom_site_fract_y
_atom_site_fract_z
_atom_site_U_iso_or_equiv
_atom_site_adp_type
_atom_site_occupancy
C1     C     0.05924   0.19076   0.16637   0.00000  Uiso   1.00
C2     C     0.49568   0.28949   0.30940   0.00000  Uiso   1.00
C3     C     0.00435   0.28949   0.02393   0.00000  Uiso   1.00
C4     C     0.00545   0.21099   0.30966   0.00000  Uiso   1.00
C5     C     0.24451   0.46100   0.02367   0.00000  Uiso   1.00
C6     C     0.24566   0.03949   0.30940   0.00000  Uiso   1.00
C7     C     0.25434   0.03949   0.02393   0.00000  Uiso   1.00
C8     C     0.25548   0.46099   0.30966   0.00000  Uiso   1.00
C9     C     0.37707   0.15818   0.13284   0.00000  Uiso   1.00
C10    C     0.12177   0.34365   0.20248   0.00000  Uiso   1.00
C11    C     0.09498   0.37626   0.13263   0.00000  Uiso   1.00
C12    C     0.44083   0.30947   0.16679   0.00000  Uiso   1.00
C13    C     0.40372   0.12599   0.20301   0.00000  Uiso   1.00
C14    C     0.12292   0.15817   0.20050   0.00000  Uiso   1.00
C15    C     0.37824   0.34365   0.13085   0.00000  Uiso   1.00
C16    C     0.40502   0.37626   0.20070   0.00000  Uiso   1.00
C17    C     0.09628   0.12599   0.13033   0.00000  Uiso   1.00
C18    C     0.12707   0.40818   0.13284   0.00000  Uiso   1.00
C19    C     0.37176   0.09365   0.20248   0.00000  Uiso   1.00
C20    C     0.34497   0.12627   0.13264   0.00000  Uiso   1.00
C21    C     0.15372   0.37599   0.20301   0.00000  Uiso   1.00
C22    C     0.37293   0.40818   0.20050   0.00000  Uiso   1.00
C23    C     0.44076   0.19076   0.16697   0.00000  Uiso   1.00
C24    C     0.12823   0.09365   0.13085   0.00000  Uiso   1.00
C25    C     0.15502   0.12626   0.20070   0.00000  Uiso   1.00
C26    C     0.34628   0.37599   0.13033   0.00000  Uiso   1.00
C27    C     0.09261   0.34330   0.16684   0.00000  Uiso   1.00
C28    C     0.40685   0.15776   0.16763   0.00000  Uiso   1.00
C29    C     0.40739   0.34330   0.16649   0.00000  Uiso   1.00
C30    C     0.09314   0.15775   0.16571   0.00000  Uiso   1.00
C31    C     0.34260   0.09330   0.16684   0.00000  Uiso   1.00
C32    C     0.15686   0.40775   0.16763   0.00000  Uiso   1.00
C33    C     0.15739   0.09330   0.16649   0.00000  Uiso   1.00
C34    C     0.05917   0.30947   0.16655   0.00000  Uiso   1.00
C35    C     0.34315   0.40776   0.16571   0.00000  Uiso   1.00
C36    C     0.46454   0.17309   0.03802   0.00000  Uiso   1.00
C37    C     0.48528   0.13430   0.06407   0.00000  Uiso   1.00
C38    C     0.47635   0.33269   0.29067   0.00000  Uiso   1.00
C39    C     0.00703   0.36272   0.26276   0.00000  Uiso   1.00
C40    C     0.02368   0.33269   0.04267   0.00000  Uiso   1.00
C41    C     0.49299   0.36271   0.07057   0.00000  Uiso   1.00
C42    C     0.03529   0.17299   0.29530   0.00000  Uiso   1.00
C43    C     0.01447   0.13426   0.26922   0.00000  Uiso   1.00
C44    C     0.21462   0.42305   0.03802   0.00000  Uiso   1.00
C45    C     0.30924   0.44076   0.16637   0.00000  Uiso   1.00
C46    C     0.23539   0.38428   0.06409   0.00000  Uiso   1.00
C47    C     0.22633   0.08269   0.29067   0.00000  Uiso   1.00
C48    C     0.25702   0.11272   0.26276   0.00000  Uiso   1.00
C49    C     0.27366   0.08269   0.04267   0.00000  Uiso   1.00
C50    C     0.24298   0.11272   0.07057   0.00000  Uiso   1.00
C51    C     0.28537   0.42304   0.29531   0.00000  Uiso   1.00
C52    C     0.26459   0.38428   0.26924   0.00000  Uiso   1.00
C53    C     0.19083   0.05947   0.16679   0.00000  Uiso   1.00
C54    C     0.19076   0.44076   0.16697   0.00000  Uiso   1.00
C55    C     0.30917   0.05948   0.16655   0.00000  Uiso   1.00
C56    C     0.49449   0.21100   0.02367   0.00000  Uiso   1.00
Cu57   Cu   -0.00000   0.25000   0.21355   0.00000  Uiso   1.00
Cu58   Cu   -0.00000   0.25000   0.11978   0.00000  Uiso   1.00
Cu59   Cu    0.25000   0.00000   0.21355   0.00000  Uiso   1.00
Cu60   Cu    0.25000   0.00000   0.11978   0.00000  Uiso   1.00
H61    H     0.37795   0.18382   0.10644   0.00000  Uiso   1.00
H62    H     0.37007   0.06873   0.22960   0.00000  Uiso   1.00
H63    H     0.32163   0.12860   0.10647   0.00000  Uiso   1.00
H64    H     0.17617   0.37571   0.23057   0.00000  Uiso   1.00
H65    H     0.37203   0.43381   0.22691   0.00000  Uiso   1.00
H66    H     0.12993   0.06873   0.10374   0.00000  Uiso   1.00
H67    H     0.17836   0.12859   0.22688   0.00000  Uiso   1.00
H68    H     0.32384   0.37572   0.10276   0.00000  Uiso   1.00
H69    H     0.00860   0.11601   0.04212   0.00000  Uiso   1.00
H70    H     0.00141   0.14624   0.09484   0.00000  Uiso   1.00
H71    H     0.46032   0.10979   0.07497   0.00000  Uiso   1.00
H72    H     0.12007   0.31873   0.22960   0.00000  Uiso   1.00
H73    H     0.43617   0.18703   0.05548   0.00000  Uiso   1.00
H74    H     0.45004   0.15778   0.00732   0.00000  Uiso   1.00
H75    H     0.04076   0.35406   0.26915   0.00000  Uiso   1.00
H76    H     0.00087   0.36047   0.22581   0.00000  Uiso   1.00
H77    H     0.00232   0.39880   0.27238   0.00000  Uiso   1.00
H78    H     0.44580   0.32519   0.27483   0.00000  Uiso   1.00
H79    H     0.46430   0.35410   0.31905   0.00000  Uiso   1.00
H80    H     0.45926   0.35404   0.06419   0.00000  Uiso   1.00
H81    H     0.49915   0.36046   0.10753   0.00000  Uiso   1.00
H82    H     0.49768   0.39879   0.06095   0.00000  Uiso   1.00
H83    H     0.07164   0.37859   0.10646   0.00000  Uiso   1.00
H84    H     0.05422   0.32519   0.05851   0.00000  Uiso   1.00
H85    H     0.03572   0.35410   0.01429   0.00000  Uiso   1.00
H86    H     0.49088   0.11623   0.29104   0.00000  Uiso   1.00
H87    H     0.49866   0.14619   0.23826   0.00000  Uiso   1.00
H88    H     0.03933   0.10952   0.25863   0.00000  Uiso   1.00
H89    H     0.06372   0.18683   0.27786   0.00000  Uiso   1.00
H90    H     0.04973   0.15762   0.32600   0.00000  Uiso   1.00
H91    H     0.25880   0.36608   0.04219   0.00000  Uiso   1.00
H92    H     0.25141   0.39624   0.09492   0.00000  Uiso   1.00
H93    H     0.21047   0.35970   0.07489   0.00000  Uiso   1.00
H94    H     0.42616   0.12572   0.23057   0.00000  Uiso   1.00
H95    H     0.18621   0.43694   0.05547   0.00000  Uiso   1.00
H96    H     0.20014   0.40771   0.00732   0.00000  Uiso   1.00
H97    H     0.29075   0.10405   0.26915   0.00000  Uiso   1.00
H98    H     0.25086   0.11046   0.22581   0.00000  Uiso   1.00
H99    H     0.25231   0.14879   0.27238   0.00000  Uiso   1.00
H100   H     0.19579   0.07518   0.27483   0.00000  Uiso   1.00
H101   H     0.21429   0.10410   0.31905   0.00000  Uiso   1.00
H102   H     0.20924   0.10405   0.06419   0.00000  Uiso   1.00
H103   H     0.24913   0.11047   0.10753   0.00000  Uiso   1.00
H104   H     0.24767   0.14879   0.06095   0.00000  Uiso   1.00
H105   H     0.12203   0.18381   0.22691   0.00000  Uiso   1.00
H106   H     0.30421   0.07519   0.05851   0.00000  Uiso   1.00
H107   H     0.28571   0.10410   0.01428   0.00000  Uiso   1.00
H108   H     0.24116   0.36610   0.29113   0.00000  Uiso   1.00
H109   H     0.24860   0.39623   0.23839   0.00000  Uiso   1.00
H110   H     0.28951   0.35967   0.25847   0.00000  Uiso   1.00
H111   H     0.31378   0.43693   0.27786   0.00000  Uiso   1.00
H112   H     0.29984   0.40769   0.32601   0.00000  Uiso   1.00
H113   H     0.37993   0.31873   0.10374   0.00000  Uiso   1.00
H114   H     0.42836   0.37859   0.22688   0.00000  Uiso   1.00
H115   H     0.07383   0.12571   0.10276   0.00000  Uiso   1.00
H116   H     0.12796   0.43381   0.10643   0.00000  Uiso   1.00
N117   N     0.00000   0.25000   0.28402   0.00000  Uiso   1.00
N118   N    -0.00000   0.25000   0.04931   0.00000  Uiso   1.00
N119   N     0.25000   0.00000   0.28402   0.00000  Uiso   1.00
N120   N     0.25000   0.00000   0.04931   0.00000  Uiso   1.00
O121   O     0.04508   0.20491   0.20625   0.00000  Uiso   1.00
O122   O     0.20491   0.04509   0.12709   0.00000  Uiso   1.00
O123   O     0.20491   0.04509   0.20625   0.00000  Uiso   1.00
O124   O     0.29508   0.45491   0.12709   0.00000  Uiso   1.00
O125   O     0.20491   0.45491   0.12709   0.00000  Uiso   1.00
O126   O     0.29508   0.04509   0.20625   0.00000  Uiso   1.00
O127   O     0.29508   0.04509   0.12709   0.00000  Uiso   1.00
O128   O     0.20491   0.45491   0.20625   0.00000  Uiso   1.00
O129   O     0.45491   0.29509   0.12709   0.00000  Uiso   1.00
O130   O     0.45491   0.29509   0.20625   0.00000  Uiso   1.00
O131   O     0.04508   0.20491   0.12709   0.00000  Uiso   1.00
O132   O     0.45491   0.20491   0.12709   0.00000  Uiso   1.00
O133   O     0.04508   0.29509   0.20625   0.00000  Uiso   1.00
O134   O     0.04508   0.29509   0.12709   0.00000  Uiso   1.00
O135   O     0.45491   0.20491   0.20625   0.00000  Uiso   1.00
O136   O     0.29508   0.45491   0.20625   0.00000  Uiso   1.00
C137   C     0.55924   0.19076   0.16637   0.00000  Uiso   1.00
C138   C     0.99568   0.28949   0.30940   0.00000  Uiso   1.00
C139   C     0.50435   0.28949   0.02393   0.00000  Uiso   1.00
C140   C     0.50545   0.21099   0.30966   0.00000  Uiso   1.00
C141   C     0.74451   0.46100   0.02367   0.00000  Uiso   1.00
C142   C     0.74566   0.03949   0.30940   0.00000  Uiso   1.00
C143   C     0.75434   0.03949   0.02393   0.00000  Uiso   1.00
C144   C     0.75548   0.46099   0.30966   0.00000  Uiso   1.00
C145   C     0.87707   0.15818   0.13284   0.00000  Uiso   1.00
C146   C     0.62177   0.34365   0.20248   0.00000  Uiso   1.00
C147   C     0.59498   0.37626   0.13263   0.00000  Uiso   1.00
C148   C     0.94083   0.30947   0.16679   0.00000  Uiso   1.00
C149   C     0.90372   0.12599   0.20301   0.00000  Uiso   1.00
C150   C     0.62292   0.15817   0.20050   0.00000  Uiso   1.00
C151   C     0.87824   0.34365   0.13085   0.00000  Uiso   1.00
C152   C     0.90502   0.37626   0.20070   0.00000  Uiso   1.00
C153   C     0.59628   0.12599   0.13033   0.00000  Uiso   1.00
C154   C     0.62707   0.40818   0.13284   0.00000  Uiso   1.00
C155   C     0.87176   0.09365   0.20248   0.00000  Uiso   1.00
C156   C     0.84497   0.12627   0.13264   0.00000  Uiso   1.00
C157   C     0.65372   0.37599   0.20301   0.00000  Uiso   1.00
C158   C     0.87293   0.40818   0.20050   0.00000  Uiso   1.00
C159   C     0.94076   0.19076   0.16697   0.00000  Uiso   1.00
C160   C     0.62823   0.09365   0.13085   0.00000  Uiso   1.00
C161   C     0.65502   0.12626   0.20070   0.00000  Uiso   1.00
C162   C     0.84628   0.37599   0.13033   0.00000  Uiso   1.00
C163   C     0.59261   0.34330   0.16684   0.00000  Uiso   1.00
C164   C     0.90685   0.15776   0.16763   0.00000  Uiso   1.00
C165   C     0.90739   0.34330   0.16649   0.00000  Uiso   1.00
C166   C     0.59314   0.15775   0.16571   0.00000  Uiso   1.00
C167   C     0.84260   0.09330   0.16684   0.00000  Uiso   1.00
C168   C     0.65686   0.40775   0.16763   0.00000  Uiso   1.00
C169   C     0.65739   0.09330   0.16649   0.00000  Uiso   1.00
C170   C     0.55917   0.30947   0.16655   0.00000  Uiso   1.00
C171   C     0.84315   0.40776   0.16571   0.00000  Uiso   1.00
C172   C     0.96454   0.17309   0.03802   0.00000  Uiso   1.00
C173   C     0.98528   0.13430   0.06407   0.00000  Uiso   1.00
C174   C     0.97635   0.33269   0.29067   0.00000  Uiso   1.00
C175   C     0.50703   0.36272   0.26276   0.00000  Uiso   1.00
C176   C     0.52368   0.33269   0.04267   0.00000  Uiso   1.00
C177   C     0.99299   0.36271   0.07057   0.00000  Uiso   1.00
C178   C     0.53529   0.17299   0.29530   0.00000  Uiso   1.00
C179   C     0.51447   0.13426   0.26922   0.00000  Uiso   1.00
C180   C     0.71462   0.42305   0.03802   0.00000  Uiso   1.00
C181   C     0.80924   0.44076   0.16637   0.00000  Uiso   1.00
C182   C     0.73539   0.38428   0.06409   0.00000  Uiso   1.00
C183   C     0.72633   0.08269   0.29067   0.00000  Uiso   1.00
C184   C     0.75702   0.11272   0.26276   0.00000  Uiso   1.00
C185   C     0.77366   0.08269   0.04267   0.00000  Uiso   1.00
C186   C     0.74298   0.11272   0.07057   0.00000  Uiso   1.00
C187   C     0.78537   0.42304   0.29531   0.00000  Uiso   1.00
C188   C     0.76459   0.38428   0.26924   0.00000  Uiso   1.00
C189   C     0.69083   0.05947   0.16679   0.00000  Uiso   1.00
C190   C     0.69076   0.44076   0.16697   0.00000  Uiso   1.00
C191   C     0.80917   0.05948   0.16655   0.00000  Uiso   1.00
C192   C     0.99449   0.21100   0.02367   0.00000  Uiso   1.00
Cu193  Cu    0.50000   0.25000   0.21355   0.00000  Uiso   1.00
Cu194  Cu    0.50000   0.25000   0.11978   0.00000  Uiso   1.00
Cu195  Cu    0.75000   0.00000   0.21355   0.00000  Uiso   1.00
Cu196  Cu    0.75000   0.00000   0.11978   0.00000  Uiso   1.00
H197   H     0.87795   0.18382   0.10644   0.00000  Uiso   1.00
H198   H     0.87007   0.06873   0.22960   0.00000  Uiso   1.00
H199   H     0.82163   0.12860   0.10647   0.00000  Uiso   1.00
H200   H     0.67617   0.37571   0.23057   0.00000  Uiso   1.00
H201   H     0.87203   0.43381   0.22691   0.00000  Uiso   1.00
H202   H     0.62993   0.06873   0.10374   0.00000  Uiso   1.00
H203   H     0.67836   0.12859   0.22688   0.00000  Uiso   1.00
H204   H     0.82384   0.37572   0.10276   0.00000  Uiso   1.00
H205   H     0.50860   0.11601   0.04212   0.00000  Uiso   1.00
H206   H     0.50141   0.14624   0.09484   0.00000  Uiso   1.00
H207   H     0.96032   0.10979   0.07497   0.00000  Uiso   1.00
H208   H     0.62007   0.31873   0.22960   0.00000  Uiso   1.00
H209   H     0.93617   0.18703   0.05548   0.00000  Uiso   1.00
H210   H     0.95004   0.15778   0.00732   0.00000  Uiso   1.00
H211   H     0.54076   0.35406   0.26915   0.00000  Uiso   1.00
H212   H     0.50087   0.36047   0.22581   0.00000  Uiso   1.00
H213   H     0.50232   0.39880   0.27238   0.00000  Uiso   1.00
H214   H     0.94580   0.32519   0.27483   0.00000  Uiso   1.00
H215   H     0.96430   0.35410   0.31905   0.00000  Uiso   1.00
H216   H     0.95926   0.35404   0.06419   0.00000  Uiso   1.00
H217   H     0.99915   0.36046   0.10753   0.00000  Uiso   1.00
H218   H     0.99768   0.39879   0.06095   0.00000  Uiso   1.00
H219   H     0.57164   0.37859   0.10646   0.00000  Uiso   1.00
H220   H     0.55422   0.32519   0.05851   0.00000  Uiso   1.00
H221   H     0.53572   0.35410   0.01429   0.00000  Uiso   1.00
H222   H     0.99088   0.11623   0.29104   0.00000  Uiso   1.00
H223   H     0.99866   0.14619   0.23826   0.00000  Uiso   1.00
H224   H     0.53933   0.10952   0.25863   0.00000  Uiso   1.00
H225   H     0.56372   0.18683   0.27786   0.00000  Uiso   1.00
H226   H     0.54973   0.15762   0.32600   0.00000  Uiso   1.00
H227   H     0.75880   0.36608   0.04219   0.00000  Uiso   1.00
H228   H     0.75141   0.39624   0.09492   0.00000  Uiso   1.00
H229   H     0.71047   0.35970   0.07489   0.00000  Uiso   1.00
H230   H     0.92616   0.12572   0.23057   0.00000  Uiso   1.00
H231   H     0.68621   0.43694   0.05547   0.00000  Uiso   1.00
H232   H     0.70014   0.40771   0.00732   0.00000  Uiso   1.00
H233   H     0.79075   0.10405   0.26915   0.00000  Uiso   1.00
H234   H     0.75086   0.11046   0.22581   0.00000  Uiso   1.00
H235   H     0.75231   0.14879   0.27238   0.00000  Uiso   1.00
H236   H     0.69579   0.07518   0.27483   0.00000  Uiso   1.00
H237   H     0.71429   0.10410   0.31905   0.00000  Uiso   1.00
H238   H     0.70924   0.10405   0.06419   0.00000  Uiso   1.00
H239   H     0.74913   0.11047   0.10753   0.00000  Uiso   1.00
H240   H     0.74767   0.14879   0.06095   0.00000  Uiso   1.00
H241   H     0.62203   0.18381   0.22691   0.00000  Uiso   1.00
H242   H     0.80421   0.07519   0.05851   0.00000  Uiso   1.00
H243   H     0.78571   0.10410   0.01428   0.00000  Uiso   1.00
H244   H     0.74116   0.36610   0.29113   0.00000  Uiso   1.00
H245   H     0.74860   0.39623   0.23839   0.00000  Uiso   1.00
H246   H     0.78951   0.35967   0.25847   0.00000  Uiso   1.00
H247   H     0.81378   0.43693   0.27786   0.00000  Uiso   1.00
H248   H     0.79984   0.40769   0.32601   0.00000  Uiso   1.00
H249   H     0.87993   0.31873   0.10374   0.00000  Uiso   1.00
H250   H     0.92836   0.37859   0.22688   0.00000  Uiso   1.00
H251   H     0.57383   0.12571   0.10276   0.00000  Uiso   1.00
H252   H     0.62796   0.43381   0.10643   0.00000  Uiso   1.00
N253   N     0.50000   0.25000   0.28402   0.00000  Uiso   1.00
N254   N     0.50000   0.25000   0.04931   0.00000  Uiso   1.00
N255   N     0.75000   0.00000   0.28402   0.00000  Uiso   1.00
N256   N     0.75000   0.00000   0.04931   0.00000  Uiso   1.00
O257   O     0.54508   0.20491   0.20625   0.00000  Uiso   1.00
O258   O     0.70491   0.04509   0.12709   0.00000  Uiso   1.00
O259   O     0.70491   0.04509   0.20625   0.00000  Uiso   1.00
O260   O     0.79508   0.45491   0.12709   0.00000  Uiso   1.00
O261   O     0.70491   0.45491   0.12709   0.00000  Uiso   1.00
O262   O     0.79508   0.04509   0.20625   0.00000  Uiso   1.00
O263   O     0.79508   0.04509   0.12709   0.00000  Uiso   1.00
O264   O     0.70491   0.45491   0.20625   0.00000  Uiso   1.00
O265   O     0.95491   0.29509   0.12709   0.00000  Uiso   1.00
O266   O     0.95491   0.29509   0.20625   0.00000  Uiso   1.00
O267   O     0.54508   0.20491   0.12709   0.00000  Uiso   1.00
O268   O     0.95491   0.20491   0.12709   0.00000  Uiso   1.00
O269   O     0.54508   0.29509   0.20625   0.00000  Uiso   1.00
O270   O     0.54508   0.29509   0.12709   0.00000  Uiso   1.00
O271   O     0.95491   0.20491   0.20625   0.00000  Uiso   1.00
O272   O     0.79508   0.45491   0.20625   0.00000  Uiso   1.00
C273   C     0.05924   0.69076   0.16637   0.00000  Uiso   1.00
C274   C     0.49568   0.78949   0.30940   0.00000  Uiso   1.00
C275   C     0.00435   0.78949   0.02393   0.00000  Uiso   1.00
C276   C     0.00545   0.71099   0.30966   0.00000  Uiso   1.00
C277   C     0.24451   0.96100   0.02367   0.00000  Uiso   1.00
C278   C     0.24566   0.53949   0.30940   0.00000  Uiso   1.00
C279   C     0.25434   0.53949   0.02393   0.00000  Uiso   1.00
C280   C     0.25548   0.96099   0.30966   0.00000  Uiso   1.00
C281   C     0.37707   0.65818   0.13284   0.00000  Uiso   1.00
C282   C     0.12177   0.84365   0.20248   0.00000  Uiso   1.00
C283   C     0.09498   0.87626   0.13263   0.00000  Uiso   1.00
C284   C     0.44083   0.80947   0.16679   0.00000  Uiso   1.00
C285   C     0.40372   0.62599   0.20301   0.00000  Uiso   1.00
C286   C     0.12292   0.65817   0.20050   0.00000  Uiso   1.00
C287   C     0.37824   0.84365   0.13085   0.00000  Uiso   1.00
C288   C     0.40502   0.87626   0.20070   0.00000  Uiso   1.00
C289   C     0.09628   0.62599   0.13033   0.00000  Uiso   1.00
C290   C     0.12707   0.90818   0.13284   0.00000  Uiso   1.00
C291   C     0.37176   0.59365   0.20248   0.00000  Uiso   1.00
C292   C     0.34497   0.62627   0.13264   0.00000  Uiso   1.00
C293   C     0.15372   0.87599   0.20301   0.00000  Uiso   1.00
C294   C     0.37293   0.90818   0.20050   0.00000  Uiso   1.00
C295   C     0.44076   0.69076   0.16697   0.00000  Uiso   1.00
C296   C     0.12823   0.59365   0.13085   0.00000  Uiso   1.00
C297   C     0.15502   0.62626   0.20070   0.00000  Uiso   1.00
C298   C     0.34628   0.87599   0.13033   0.00000  Uiso   1.00
C299   C     0.09261   0.84330   0.16684   0.00000  Uiso   1.00
C300   C     0.40685   0.65776   0.16763   0.00000  Uiso   1.00
C301   C     0.40739   0.84330   0.16649   0.00000  Uiso   1.00
C302   C     0.09314   0.65775   0.16571   0.00000  Uiso   1.00
C303   C     0.34260   0.59330   0.16684   0.00000  Uiso   1.00
C304   C     0.15686   0.90775   0.16763   0.00000  Uiso   1.00
C305   C     0.15739   0.59330   0.16649   0.00000  Uiso   1.00
C306   C     0.05917   0.80947   0.16655   0.00000  Uiso   1.00
C307   C     0.34315   0.90776   0.16571   0.00000  Uiso   1.00
C308   C     0.46454   0.67309   0.03802   0.00000  Uiso   1.00
C309   C     0.48528   0.63430   0.06407   0.00000  Uiso   1.00
C310   C     0.47635   0.83269   0.29067   0.00000  Uiso   1.00
C311   C     0.00703   0.86272   0.26276   0.00000  Uiso   1.00
C312   C     0.02368   0.83269   0.04267   0.00000  Uiso   1.00
C313   C     0.49299   0.86271   0.07057   0.00000  Uiso   1.00
C314   C     0.03529   0.67299   0.29530   0.00000  Uiso   1.00
C315   C     0.01447   0.63426   0.26922   0.00000  Uiso   1.00
C316   C     0.21462   0.92305   0.03802   0.00000  Uiso   1.00
C317   C     0.30924   0.94076   0.16637   0.00000  Uiso   1.00
C318   C     0.23539   0.88428   0.06409   0.00000  Uiso   1.00
C319   C     0.22633   0.58269   0.29067   0.00000  Uiso   1.00
C320   C     0.25702   0.61272   0.26276   0.00000  Uiso   1.00
C321   C     0.27366   0.58269   0.04267   0.00000  Uiso   1.00
C322   C     0.24298   0.61272   0.07057   0.00000  Uiso   1.00
C323   C     0.28537   0.92304   0.29531   0.00000  Uiso   1.00
C324   C     0.26459   0.88428   0.26924   0.00000  Uiso   1.00
C325   C     0.19083   0.55947   0.16679   0.00000  Uiso   1.00
C326   C     0.19076   0.94076   0.16697   0.00000  Uiso   1.00
C327   C     0.30917   0.55948   0.16655   0.00000  Uiso   1.00
C328   C     0.49449   0.71100   0.02367   0.00000  Uiso   1.00
Cu329  Cu   -0.00000   0.75000   0.21355   0.00000  Uiso   1.00
Cu330  Cu   -0.00000   0.75000   0.11978   0.00000  Uiso   1.00
Cu331  Cu    0.25000   0.50000   0.21355   0.00000  Uiso   1.00
Cu332  Cu    0.25000   0.50000   0.11978   0.00000  Uiso   1.00
H333   H     0.37795   0.68382   0.10644   0.00000  Uiso   1.00
H334   H     0.37007   0.56873   0.22960   0.00000  Uiso   1.00
H335   H     0.32163   0.62860   0.10647   0.00000  Uiso   1.00
H336   H     0.17617   0.87571   0.23057   0.00000  Uiso   1.00
H337   H     0.37203   0.93381   0.22691   0.00000  Uiso   1.00
H338   H     0.12993   0.56873   0.10374   0.00000  Uiso   1.00
H339   H     0.17836   0.62859   0.22688   0.00000  Uiso   1.00
H340   H     0.32384   0.87572   0.10276   0.00000  Uiso   1.00
H341   H     0.00860   0.61601   0.04212   0.00000  Uiso   1.00
H342   H     0.00141   0.64624   0.09484   0.00000  Uiso   1.00
H343   H     0.46032   0.60979   0.07497   0.00000  Uiso   1.00
H344   H     0.12007   0.81873   0.22960   0.00000  Uiso   1.00
H345   H     0.43617   0.68703   0.05548   0.00000  Uiso   1.00
H346   H     0.45004   0.65778   0.00732   0.00000  Uiso   1.00
H347   H     0.04076   0.85406   0.26915   0.00000  Uiso   1.00
H348   H     0.00087   0.86047   0.22581   0.00000  Uiso   1.00
H349   H     0.00232   0.89880   0.27238   0.00000  Uiso   1.00
H350   H     0.44580   0.82519   0.27483   0.00000  Uiso   1.00
H351   H     0.46430   0.85410   0.31905   0.00000  Uiso   1.00
H352   H     0.45926   0.85404   0.06419   0.00000  Uiso   1.00
H353   H     0.49915   0.86046   0.10753   0.00000  Uiso   1.00
H354   H     0.49768   0.89879   0.06095   0.00000  Uiso   1.00
H355   H     0.07164   0.87859   0.10646   0.00000  Uiso   1.00
H356   H     0.05422   0.82519   0.05851   0.00000  Uiso   1.00
H357   H     0.03572   0.85410   0.01429   0.00000  Uiso   1.00
H358   H     0.49088   0.61623   0.29104   0.00000  Uiso   1.00
H359   H     0.49866   0.64619   0.23826   0.00000  Uiso   1.00
H360   H     0.03933   0.60952   0.25863   0.00000  Uiso   1.00
H361   H     0.06372   0.68683   0.27786   0.00000  Uiso   1.00
H362   H     0.04973   0.65762   0.32600   0.00000  Uiso   1.00
H363   H     0.25880   0.86608   0.04219   0.00000  Uiso   1.00
H364   H     0.25141   0.89624   0.09492   0.00000  Uiso   1.00
H365   H     0.21047   0.85970   0.07489   0.00000  Uiso   1.00
H366   H     0.42616   0.62572   0.23057   0.00000  Uiso   1.00
H367   H     0.18621   0.93694   0.05547   0.00000  Uiso   1.00
H368   H     0.20014   0.90771   0.00732   0.00000  Uiso   1.00
H369   H     0.29075   0.60405   0.26915   0.00000  Uiso   1.00
H370   H     0.25086   0.61046   0.22581   0.00000  Uiso   1.00
H371   H     0.25231   0.64879   0.27238   0.00000  Uiso   1.00
H372   H     0.19579   0.57518   0.27483   0.00000  Uiso   1.00
H373   H     0.21429   0.60410   0.31905   0.00000  Uiso   1.00
H374   H     0.20924   0.60405   0.06419   0.00000  Uiso   1.00
H375   H     0.24913   0.61047   0.10753   0.00000  Uiso   1.00
H376   H     0.24767   0.64879   0.06095   0.00000  Uiso   1.00
H377   H     0.12203   0.68381   0.22691   0.00000  Uiso   1.00
H378   H     0.30421   0.57519   0.05851   0.00000  Uiso   1.00
H379   H     0.28571   0.60410   0.01428   0.00000  Uiso   1.00
H380   H     0.24116   0.86610   0.29113   0.00000  Uiso   1.00
H381   H     0.24860   0.89623   0.23839   0.00000  Uiso   1.00
H382   H     0.28951   0.85967   0.25847   0.00000  Uiso   1.00
H383   H     0.31378   0.93693   0.27786   0.00000  Uiso   1.00
H384   H     0.29984   0.90769   0.32601   0.00000  Uiso   1.00
H385   H     0.37993   0.81873   0.10374   0.00000  Uiso   1.00
H386   H     0.42836   0.87859   0.22688   0.00000  Uiso   1.00
H387   H     0.07383   0.62571   0.10276   0.00000  Uiso   1.00
H388   H     0.12796   0.93381   0.10643   0.00000  Uiso   1.00
N389   N     0.00000   0.75000   0.28402   0.00000  Uiso   1.00
N390   N    -0.00000   0.75000   0.04931   0.00000  Uiso   1.00
N391   N     0.25000   0.50000   0.28402   0.00000  Uiso   1.00
N392   N     0.25000   0.50000   0.04931   0.00000  Uiso   1.00
O393   O     0.04508   0.70491   0.20625   0.00000  Uiso   1.00
O394   O     0.20491   0.54509   0.12709   0.00000  Uiso   1.00
O395   O     0.20491   0.54509   0.20625   0.00000  Uiso   1.00
O396   O     0.29508   0.95491   0.12709   0.00000  Uiso   1.00
O397   O     0.20491   0.95491   0.12709   0.00000  Uiso   1.00
O398   O     0.29508   0.54509   0.20625   0.00000  Uiso   1.00
O399   O     0.29508   0.54509   0.12709   0.00000  Uiso   1.00
O400   O     0.20491   0.95491   0.20625   0.00000  Uiso   1.00
O401   O     0.45491   0.79509   0.12709   0.00000  Uiso   1.00
O402   O     0.45491   0.79509   0.20625   0.00000  Uiso   1.00
O403   O     0.04508   0.70491   0.12709   0.00000  Uiso   1.00
O404   O     0.45491   0.70491   0.12709   0.00000  Uiso   1.00
O405   O     0.04508   0.79509   0.20625   0.00000  Uiso   1.00
O406   O     0.04508   0.79509   0.12709   0.00000  Uiso   1.00
O407   O     0.45491   0.70491   0.20625   0.00000  Uiso   1.00
O408   O     0.29508   0.95491   0.20625   0.00000  Uiso   1.00
C409   C     0.55924   0.69076   0.16637   0.00000  Uiso   1.00
C410   C     0.99568   0.78949   0.30940   0.00000  Uiso   1.00
C411   C     0.50435   0.78949   0.02393   0.00000  Uiso   1.00
C412   C     0.50545   0.71099   0.30966   0.00000  Uiso   1.00
C413   C     0.74451   0.96100   0.02367   0.00000  Uiso   1.00
C414   C     0.74566   0.53949   0.30940   0.00000  Uiso   1.00
C415   C     0.75434   0.53949   0.02393   0.00000  Uiso   1.00
C416   C     0.75548   0.96099   0.30966   0.00000  Uiso   1.00
C417   C     0.87707   0.65818   0.13284   0.00000  Uiso   1.00
C418   C     0.62177   0.84365   0.20248   0.00000  Uiso   1.00
C419   C     0.59498   0.87626   0.13263   0.00000  Uiso   1.00
C420   C     0.94083   0.80947   0.16679   0.00000  Uiso   1.00
C421   C     0.90372   0.62599   0.20301   0.00000  Uiso   1.00
C422   C     0.62292   0.65817   0.20050   0.00000  Uiso   1.00
C423   C     0.87824   0.84365   0.13085   0.00000  Uiso   1.00
C424   C     0.90502   0.87626   0.20070   0.00000  Uiso   1.00
C425   C     0.59628   0.62599   0.13033   0.00000  Uiso   1.00
C426   C     0.62707   0.90818   0.13284   0.00000  Uiso   1.00
C427   C     0.87176   0.59365   0.20248   0.00000  Uiso   1.00
C428   C     0.84497   0.62627   0.13264   0.00000  Uiso   1.00
C429   C     0.65372   0.87599   0.20301   0.00000  Uiso   1.00
C430   C     0.87293   0.90818   0.20050   0.00000  Uiso   1.00
C431   C     0.94076   0.69076   0.16697   0.00000  Uiso   1.00
C432   C     0.62823   0.59365   0.13085   0.00000  Uiso   1.00
C433   C     0.65502   0.62626   0.20070   0.00000  Uiso   1.00
C434   C     0.84628   0.87599   0.13033   0.00000  Uiso   1.00
C435   C     0.59261   0.84330   0.16684   0.00000  Uiso   1.00
C436   C     0.90685   0.65776   0.16763   0.00000  Uiso   1.00
C437   C     0.90739   0.84330   0.16649   0.00000  Uiso   1.00
C438   C     0.59314   0.65775   0.16571   0.00000  Uiso   1.00
C439   C     0.84260   0.59330   0.16684   0.00000  Uiso   1.00
C440   C     0.65686   0.90775   0.16763   0.00000  Uiso   1.00
C441   C     0.65739   0.59330   0.16649   0.00000  Uiso   1.00
C442   C     0.55917   0.80947   0.16655   0.00000  Uiso   1.00
C443   C     0.84315   0.90776   0.16571   0.00000  Uiso   1.00
C444   C     0.96454   0.67309   0.03802   0.00000  Uiso   1.00
C445   C     0.98528   0.63430   0.06407   0.00000  Uiso   1.00
C446   C     0.97635   0.83269   0.29067   0.00000  Uiso   1.00
C447   C     0.50703   0.86272   0.26276   0.00000  Uiso   1.00
C448   C     0.52368   0.83269   0.04267   0.00000  Uiso   1.00
C449   C     0.99299   0.86271   0.07057   0.00000  Uiso   1.00
C450   C     0.53529   0.67299   0.29530   0.00000  Uiso   1.00
C451   C     0.51447   0.63426   0.26922   0.00000  Uiso   1.00
C452   C     0.71462   0.92305   0.03802   0.00000  Uiso   1.00
C453   C     0.80924   0.94076   0.16637   0.00000  Uiso   1.00
C454   C     0.73539   0.88428   0.06409   0.00000  Uiso   1.00
C455   C     0.72633   0.58269   0.29067   0.00000  Uiso   1.00
C456   C     0.75702   0.61272   0.26276   0.00000  Uiso   1.00
C457   C     0.77366   0.58269   0.04267   0.00000  Uiso   1.00
C458   C     0.74298   0.61272   0.07057   0.00000  Uiso   1.00
C459   C     0.78537   0.92304   0.29531   0.00000  Uiso   1.00
C460   C     0.76459   0.88428   0.26924   0.00000  Uiso   1.00
C461   C     0.69083   0.55947   0.16679   0.00000  Uiso   1.00
C462   C     0.69076   0.94076   0.16697   0.00000  Uiso   1.00
C463   C     0.80917   0.55948   0.16655   0.00000  Uiso   1.00
C464   C     0.99449   0.71100   0.02367   0.00000  Uiso   1.00
Cu465  Cu    0.50000   0.75000   0.21355   0.00000  Uiso   1.00
Cu466  Cu    0.50000   0.75000   0.11978   0.00000  Uiso   1.00
Cu467  Cu    0.75000   0.50000   0.21355   0.00000  Uiso   1.00
Cu468  Cu    0.75000   0.50000   0.11978   0.00000  Uiso   1.00
H469   H     0.87795   0.68382   0.10644   0.00000  Uiso   1.00
H470   H     0.87007   0.56873   0.22960   0.00000  Uiso   1.00
H471   H     0.82163   0.62860   0.10647   0.00000  Uiso   1.00
H472   H     0.67617   0.87571   0.23057   0.00000  Uiso   1.00
H473   H     0.87203   0.93381   0.22691   0.00000  Uiso   1.00
H474   H     0.62993   0.56873   0.10374   0.00000  Uiso   1.00
H475   H     0.67836   0.62859   0.22688   0.00000  Uiso   1.00
H476   H     0.82384   0.87572   0.10276   0.00000  Uiso   1.00
H477   H     0.50860   0.61601   0.04212   0.00000  Uiso   1.00
H478   H     0.50141   0.64624   0.09484   0.00000  Uiso   1.00
H479   H     0.96032   0.60979   0.07497   0.00000  Uiso   1.00
H480   H     0.62007   0.81873   0.22960   0.00000  Uiso   1.00
H481   H     0.93617   0.68703   0.05548   0.00000  Uiso   1.00
H482   H     0.95004   0.65778   0.00732   0.00000  Uiso   1.00
H483   H     0.54076   0.85406   0.26915   0.00000  Uiso   1.00
H484   H     0.50087   0.86047   0.22581   0.00000  Uiso   1.00
H485   H     0.50232   0.89880   0.27238   0.00000  Uiso   1.00
H486   H     0.94580   0.82519   0.27483   0.00000  Uiso   1.00
H487   H     0.96430   0.85410   0.31905   0.00000  Uiso   1.00
H488   H     0.95926   0.85404   0.06419   0.00000  Uiso   1.00
H489   H     0.99915   0.86046   0.10753   0.00000  Uiso   1.00
H490   H     0.99768   0.89879   0.06095   0.00000  Uiso   1.00
H491   H     0.57164   0.87859   0.10646   0.00000  Uiso   1.00
H492   H     0.55422   0.82519   0.05851   0.00000  Uiso   1.00
H493   H     0.53572   0.85410   0.01429   0.00000  Uiso   1.00
H494   H     0.99088   0.61623   0.29104   0.00000  Uiso   1.00
H495   H     0.99866   0.64619   0.23826   0.00000  Uiso   1.00
H496   H     0.53933   0.60952   0.25863   0.00000  Uiso   1.00
H497   H     0.56372   0.68683   0.27786   0.00000  Uiso   1.00
H498   H     0.54973   0.65762   0.32600   0.00000  Uiso   1.00
H499   H     0.75880   0.86608   0.04219   0.00000  Uiso   1.00
H500   H     0.75141   0.89624   0.09492   0.00000  Uiso   1.00
H501   H     0.71047   0.85970   0.07489   0.00000  Uiso   1.00
H502   H     0.92616   0.62572   0.23057   0.00000  Uiso   1.00
H503   H     0.68621   0.93694   0.05547   0.00000  Uiso   1.00
H504   H     0.70014   0.90771   0.00732   0.00000  Uiso   1.00
H505   H     0.79075   0.60405   0.26915   0.00000  Uiso   1.00
H506   H     0.75086   0.61046   0.22581   0.00000  Uiso   1.00
H507   H     0.75231   0.64879   0.27238   0.00000  Uiso   1.00
H508   H     0.69579   0.57518   0.27483   0.00000  Uiso   1.00
H509   H     0.71429   0.60410   0.31905   0.00000  Uiso   1.00
H510   H     0.70924   0.60405   0.06419   0.00000  Uiso   1.00
H511   H     0.74913   0.61047   0.10753   0.00000  Uiso   1.00
H512   H     0.74767   0.64879   0.06095   0.00000  Uiso   1.00
H513   H     0.62203   0.68381   0.22691   0.00000  Uiso   1.00
H514   H     0.80421   0.57519   0.05851   0.00000  Uiso   1.00
H515   H     0.78571   0.60410   0.01428   0.00000  Uiso   1.00
H516   H     0.74116   0.86610   0.29113   0.00000  Uiso   1.00
H517   H     0.74860   0.89623   0.23839   0.00000  Uiso   1.00
H518   H     0.78951   0.85967   0.25847   0.00000  Uiso   1.00
H519   H     0.81378   0.93693   0.27786   0.00000  Uiso   1.00
H520   H     0.79984   0.90769   0.32601   0.00000  Uiso   1.00
H521   H     0.87993   0.81873   0.10374   0.00000  Uiso   1.00
H522   H     0.92836   0.87859   0.22688   0.00000  Uiso   1.00
H523   H     0.57383   0.62571   0.10276   0.00000  Uiso   1.00
H524   H     0.62796   0.93381   0.10643   0.00000  Uiso   1.00
N525   N     0.50000   0.75000   0.28402   0.00000  Uiso   1.00
N526   N     0.50000   0.75000   0.04931   0.00000  Uiso   1.00
N527   N     0.75000   0.50000   0.28402   0.00000  Uiso   1.00
N528   N     0.75000   0.50000   0.04931   0.00000  Uiso   1.00
O529   O     0.54508   0.70491   0.20625   0.00000  Uiso   1.00
O530   O     0.70491   0.54509   0.12709   0.00000  Uiso   1.00
O531   O     0.70491   0.54509   0.20625   0.00000  Uiso   1.00
O532   O     0.79508   0.95491   0.12709   0.00000  Uiso   1.00
O533   O     0.70491   0.95491   0.12709   0.00000  Uiso   1.00
O534   O     0.79508   0.54509   0.20625   0.00000  Uiso   1.00
O535   O     0.79508   0.54509   0.12709   0.00000  Uiso   1.00
O536   O     0.70491   0.95491   0.20625   0.00000  Uiso   1.00
O537   O     0.95491   0.79509   0.12709   0.00000  Uiso   1.00
O538   O     0.95491   0.79509   0.20625   0.00000  Uiso   1.00
O539   O     0.54508   0.70491   0.12709   0.00000  Uiso   1.00
O540   O     0.95491   0.70491   0.12709   0.00000  Uiso   1.00
O541   O     0.54508   0.79509   0.20625   0.00000  Uiso   1.00
O542   O     0.54508   0.79509   0.12709   0.00000  Uiso   1.00
O543   O     0.95491   0.70491   0.20625   0.00000  Uiso   1.00
O544   O     0.79508   0.95491   0.20625   0.00000  Uiso   1.00
C545   C     0.05924   0.19076   0.49970   0.00000  Uiso   1.00
C546   C     0.49568   0.28949   0.64273   0.00000  Uiso   1.00
C547   C     0.00435   0.28949   0.35726   0.00000  Uiso   1.00
C548   C     0.00545   0.21099   0.64299   0.00000  Uiso   1.00
C549   C     0.24451   0.46100   0.35701   0.00000  Uiso   1.00
C550   C     0.24566   0.03949   0.64273   0.00000  Uiso   1.00
C551   C     0.25434   0.03949   0.35727   0.00000  Uiso   1.00
C552   C     0.25548   0.46099   0.64299   0.00000  Uiso   1.00
C553   C     0.37707   0.15818   0.46618   0.00000  Uiso   1.00
C554   C     0.12177   0.34365   0.53582   0.00000  Uiso   1.00
C555   C     0.09498   0.37626   0.46597   0.00000  Uiso   1.00
C556   C     0.44083   0.30947   0.50012   0.00000  Uiso   1.00
C557   C     0.40372   0.12599   0.53634   0.00000  Uiso   1.00
C558   C     0.12292   0.15817   0.53383   0.00000  Uiso   1.00
C559   C     0.37824   0.34365   0.46418   0.00000  Uiso   1.00
C560   C     0.40502   0.37626   0.53404   0.00000  Uiso   1.00
C561   C     0.09628   0.12599   0.46366   0.00000  Uiso   1.00
C562   C     0.12707   0.40818   0.46617   0.00000  Uiso   1.00
C563   C     0.37176   0.09365   0.53582   0.00000  Uiso   1.00
C564   C     0.34497   0.12627   0.46597   0.00000  Uiso   1.00
C565   C     0.15372   0.37599   0.53634   0.00000  Uiso   1.00
C566   C     0.37293   0.40818   0.53383   0.00000  Uiso   1.00
C567   C     0.44076   0.19076   0.50030   0.00000  Uiso   1.00
C568   C     0.12823   0.09365   0.46418   0.00000  Uiso   1.00
C569   C     0.15502   0.12626   0.53404   0.00000  Uiso   1.00
C570   C     0.34628   0.37599   0.46366   0.00000  Uiso   1.00
C571   C     0.09261   0.34330   0.50018   0.00000  Uiso   1.00
C572   C     0.40685   0.15776   0.50096   0.00000  Uiso   1.00
C573   C     0.40739   0.34330   0.49982   0.00000  Uiso   1.00
C574   C     0.09314   0.15775   0.49904   0.00000  Uiso   1.00
C575   C     0.34260   0.09330   0.50018   0.00000  Uiso   1.00
C576   C     0.15686   0.40775   0.50096   0.00000  Uiso   1.00
C577   C     0.15739   0.09330   0.49982   0.00000  Uiso   1.00
C578   C     0.05917   0.30947   0.49988   0.00000  Uiso   1.00
C579   C     0.34315   0.40776   0.49904   0.00000  Uiso   1.00
C580   C     0.46454   0.17309   0.37135   0.00000  Uiso   1.00
C581   C     0.48528   0.13430   0.39740   0.00000  Uiso   1.00
C582   C     0.47635   0.33269   0.62400   0.00000  Uiso   1.00
C583   C     0.00703   0.36272   0.59609   0.00000  Uiso   1.00
C584   C     0.02368   0.33269   0.37600   0.00000  Uiso   1.00
C585   C     0.49299   0.36271   0.40391   0.00000  Uiso   1.00
C586   C     0.03529   0.17299   0.62863   0.00000  Uiso   1.00
C587   C     0.01447   0.13426   0.60256   0.00000  Uiso   1.00
C588   C     0.21462   0.42305   0.37135   0.00000  Uiso   1.00
C589   C     0.30924   0.44076   0.49970   0.00000  Uiso   1.00
C590   C     0.23539   0.38428   0.39742   0.00000  Uiso   1.00
C591   C     0.22633   0.08269   0.62400   0.00000  Uiso   1.00
C592   C     0.25702   0.11272   0.59610   0.00000  Uiso   1.00
C593   C     0.27366   0.08269   0.37600   0.00000  Uiso   1.00
C594   C     0.24298   0.11272   0.40391   0.00000  Uiso   1.00
C595   C     0.28537   0.42304   0.62864   0.00000  Uiso   1.00
C596   C     0.26459   0.38428   0.60257   0.00000  Uiso   1.00
C597   C     0.19083   0.05947   0.50012   0.00000  Uiso   1.00
C598   C     0.19076   0.44076   0.50030   0.00000  Uiso   1.00
C599   C     0.30917   0.05948   0.49988   0.00000  Uiso   1.00
C600   C     0.49449   0.21100   0.35701   0.00000  Uiso   1.00
Cu601  Cu   -0.00000   0.25000   0.54689   0.00000  Uiso   1.00
Cu602  Cu   -0.00000   0.25000   0.45311   0.00000  Uiso   1.00
Cu603  Cu    0.25000   0.00000   0.54689   0.00000  Uiso   1.00
Cu604  Cu    0.25000   0.00000   0.45311   0.00000  Uiso   1.00
H605   H     0.37795   0.18382   0.43977   0.00000  Uiso   1.00
H606   H     0.37007   0.06873   0.56293   0.00000  Uiso   1.00
H607   H     0.32163   0.12860   0.43980   0.00000  Uiso   1.00
H608   H     0.17617   0.37571   0.56391   0.00000  Uiso   1.00
H609   H     0.37203   0.43381   0.56024   0.00000  Uiso   1.00
H610   H     0.12993   0.06873   0.43707   0.00000  Uiso   1.00
H611   H     0.17836   0.12859   0.56021   0.00000  Uiso   1.00
H612   H     0.32384   0.37572   0.43609   0.00000  Uiso   1.00
H613   H     0.00860   0.11601   0.37545   0.00000  Uiso   1.00
H614   H     0.00141   0.14624   0.42817   0.00000  Uiso   1.00
H615   H     0.46032   0.10979   0.40830   0.00000  Uiso   1.00
H616   H     0.12007   0.31873   0.56293   0.00000  Uiso   1.00
H617   H     0.43617   0.18703   0.38881   0.00000  Uiso   1.00
H618   H     0.45004   0.15778   0.34066   0.00000  Uiso   1.00
H619   H     0.04076   0.35406   0.60248   0.00000  Uiso   1.00
H620   H     0.00087   0.36047   0.55914   0.00000  Uiso   1.00
H621   H     0.00232   0.39880   0.60572   0.00000  Uiso   1.00
H622   H     0.44580   0.32519   0.60816   0.00000  Uiso   1.00
H623   H     0.46430   0.35410   0.65239   0.00000  Uiso   1.00
H624   H     0.45926   0.35404   0.39752   0.00000  Uiso   1.00
H625   H     0.49915   0.36046   0.44086   0.00000  Uiso   1.00
H626   H     0.49768   0.39879   0.39428   0.00000  Uiso   1.00
H627   H     0.07164   0.37859   0.43980   0.00000  Uiso   1.00
H628   H     0.05422   0.32519   0.39184   0.00000  Uiso   1.00
H629   H     0.03572   0.35410   0.34762   0.00000  Uiso   1.00
H630   H     0.49088   0.11623   0.62437   0.00000  Uiso   1.00
H631   H     0.49866   0.14619   0.57159   0.00000  Uiso   1.00
H632   H     0.03933   0.10952   0.59196   0.00000  Uiso   1.00
H633   H     0.06372   0.18683   0.61119   0.00000  Uiso   1.00
H634   H     0.04973   0.15762   0.65933   0.00000  Uiso   1.00
H635   H     0.25880   0.36608   0.37552   0.00000  Uiso   1.00
H636   H     0.25141   0.39624   0.42826   0.00000  Uiso   1.00
H637   H     0.21047   0.35970   0.40822   0.00000  Uiso   1.00
H638   H     0.42616   0.12572   0.56390   0.00000  Uiso   1.00
H639   H     0.18621   0.43694   0.38880   0.00000  Uiso   1.00
H640   H     0.20014   0.40771   0.34066   0.00000  Uiso   1.00
H641   H     0.29075   0.10405   0.60248   0.00000  Uiso   1.00
H642   H     0.25086   0.11046   0.55914   0.00000  Uiso   1.00
H643   H     0.25231   0.14879   0.60572   0.00000  Uiso   1.00
H644   H     0.19579   0.07518   0.60816   0.00000  Uiso   1.00
H645   H     0.21429   0.10410   0.65239   0.00000  Uiso   1.00
H646   H     0.20924   0.10405   0.39752   0.00000  Uiso   1.00
H647   H     0.24913   0.11047   0.44086   0.00000  Uiso   1.00
H648   H     0.24767   0.14879   0.39428   0.00000  Uiso   1.00
H649   H     0.12203   0.18381   0.56025   0.00000  Uiso   1.00
H650   H     0.30421   0.07519   0.39184   0.00000  Uiso   1.00
H651   H     0.28571   0.10410   0.34762   0.00000  Uiso   1.00
H652   H     0.24116   0.36610   0.62446   0.00000  Uiso   1.00
H653   H     0.24860   0.39623   0.57172   0.00000  Uiso   1.00
H654   H     0.28951   0.35967   0.59180   0.00000  Uiso   1.00
H655   H     0.31378   0.43693   0.61120   0.00000  Uiso   1.00
H656   H     0.29984   0.40769   0.65934   0.00000  Uiso   1.00
H657   H     0.37993   0.31873   0.43707   0.00000  Uiso   1.00
H658   H     0.42836   0.37859   0.56021   0.00000  Uiso   1.00
H659   H     0.07383   0.12571   0.43609   0.00000  Uiso   1.00
H660   H     0.12796   0.43381   0.43977   0.00000  Uiso   1.00
N661   N     0.00000   0.25000   0.61736   0.00000  Uiso   1.00
N662   N    -0.00000   0.25000   0.38264   0.00000  Uiso   1.00
N663   N     0.25000   0.00000   0.61736   0.00000  Uiso   1.00
N664   N     0.25000   0.00000   0.38264   0.00000  Uiso   1.00
O665   O     0.04508   0.20491   0.53958   0.00000  Uiso   1.00
O666   O     0.20491   0.04509   0.46042   0.00000  Uiso   1.00
O667   O     0.20491   0.04509   0.53958   0.00000  Uiso   1.00
O668   O     0.29508   0.45491   0.46042   0.00000  Uiso   1.00
O669   O     0.20491   0.45491   0.46042   0.00000  Uiso   1.00
O670   O     0.29508   0.04509   0.53958   0.00000  Uiso   1.00
O671   O     0.29508   0.04509   0.46042   0.00000  Uiso   1.00
O672   O     0.20491   0.45491   0.53958   0.00000  Uiso   1.00
O673   O     0.45491   0.29509   0.46042   0.00000  Uiso   1.00
O674   O     0.45491   0.29509   0.53958   0.00000  Uiso   1.00
O675   O     0.04508   0.20491   0.46042   0.00000  Uiso   1.00
O676   O     0.45491   0.20491   0.46042   0.00000  Uiso   1.00
O677   O     0.04508   0.29509   0.53958   0.00000  Uiso   1.00
O678   O     0.04508   0.29509   0.46042   0.00000  Uiso   1.00
O679   O     0.45491   0.20491   0.53958   0.00000  Uiso   1.00
O680   O     0.29508   0.45491   0.53958   0.00000  Uiso   1.00
C681   C     0.55924   0.19076   0.49970   0.00000  Uiso   1.00
C682   C     0.99568   0.28949   0.64273   0.00000  Uiso   1.00
C683   C     0.50435   0.28949   0.35726   0.00000  Uiso   1.00
C684   C     0.50545   0.21099   0.64299   0.00000  Uiso   1.00
C685   C     0.74451   0.46100   0.35701   0.00000  Uiso   1.00
C686   C     0.74566   0.03949   0.64273   0.00000  Uiso   1.00
C687   C     0.75434   0.03949   0.35727   0.00000  Uiso   1.00
C688   C     0.75548   0.46099   0.64299   0.00000  Uiso   1.00
C689   C     0.87707   0.15818   0.46618   0.00000  Uiso   1.00
C690   C     0.62177   0.34365   0.53582   0.00000  Uiso   1.00
C691   C     0.59498   0.37626   0.46597   0.00000  Uiso   1.00
C692   C     0.94083   0.30947   0.50012   0.00000  Uiso   1.00
C693   C     0.90372   0.12599   0.53634   0.00000  Uiso   1.00
C694   C     0.62292   0.15817   0.53383   0.00000  Uiso   1.00
C695   C     0.87824   0.34365   0.46418   0.00000  Uiso   1.00
C696   C     0.90502   0.37626   0.53404   0.00000  Uiso   1.00
C697   C     0.59628   0.12599   0.46366   0.00000  Uiso   1.00
C698   C     0.62707   0.40818   0.46617   0.00000  Uiso   1.00
C699   C     0.87176   0.09365   0.53582   0.00000  Uiso   1.00
C700   C     0.84497   0.12627   0.46597   0.00000  Uiso   1.00
C701   C     0.65372   0.37599   0.53634   0.00000  Uiso   1.00
C702   C     0.87293   0.40818   0.53383   0.00000  Uiso   1.00
C703   C     0.94076   0.19076   0.50030   0.00000  Uiso   1.00
C704   C     0.62823   0.09365   0.46418   0.00000  Uiso   1.00
C705   C     0.65502   0.12626   0.53404   0.00000  Uiso   1.00
C706   C     0.84628   0.37599   0.46366   0.00000  Uiso   1.00
C707   C     0.59261   0.34330   0.50018   0.00000  Uiso   1.00
C708   C     0.90685   0.15776   0.50096   0.00000  Uiso   1.00
C709   C     0.90739   0.34330   0.49982   0.00000  Uiso   1.00
C710   C     0.59314   0.15775   0.49904   0.00000  Uiso   1.00
C711   C     0.84260   0.09330   0.50018   0.00000  Uiso   1.00
C712   C     0.65686   0.40775   0.50096   0.00000  Uiso   1.00
C713   C     0.65739   0.09330   0.49982   0.00000  Uiso   1.00
C714   C     0.55917   0.30947   0.49988   0.00000  Uiso   1.00
C715   C     0.84315   0.40776   0.49904   0.00000  Uiso   1.00
C716   C     0.96454   0.17309   0.37135   0.00000  Uiso   1.00
C717   C     0.98528   0.13430   0.39740   0.00000  Uiso   1.00
C718   C     0.97635   0.33269   0.62400   0.00000  Uiso   1.00
C719   C     0.50703   0.36272   0.59609   0.00000  Uiso   1.00
C720   C     0.52368   0.33269   0.37600   0.00000  Uiso   1.00
C721   C     0.99299   0.36271   0.40391   0.00000  Uiso   1.00
C722   C     0.53529   0.17299   0.62863   0.00000  Uiso   1.00
C723   C     0.51447   0.13426   0.60256   0.00000  Uiso   1.00
C724   C     0.71462   0.42305   0.37135   0.00000  Uiso   1.00
C725   C     0.80924   0.44076   0.49970   0.00000  Uiso   1.00
C726   C     0.73539   0.38428   0.39742   0.00000  Uiso   1.00
C727   C     0.72633   0.08269   0.62400   0.00000  Uiso   1.00
C728   C     0.75702   0.11272   0.59610   0.00000  Uiso   1.00
C729   C     0.77366   0.08269   0.37600   0.00000  Uiso   1.00
C730   C     0.74298   0.11272   0.40391   0.00000  Uiso   1.00
C731   C     0.78537   0.42304   0.62864   0.00000  Uiso   1.00
C732   C     0.76459   0.38428   0.60257   0.00000  Uiso   1.00
C733   C     0.69083   0.05947   0.50012   0.00000  Uiso   1.00
C734   C     0.69076   0.44076   0.50030   0.00000  Uiso   1.00
C735   C     0.80917   0.05948   0.49988   0.00000  Uiso   1.00
C736   C     0.99449   0.21100   0.35701   0.00000  Uiso   1.00
Cu737  Cu    0.50000   0.25000   0.54689   0.00000  Uiso   1.00
Cu738  Cu    0.50000   0.25000   0.45311   0.00000  Uiso   1.00
Cu739  Cu    0.75000   0.00000   0.54689   0.00000  Uiso   1.00
Cu740  Cu    0.75000   0.00000   0.45311   0.00000  Uiso   1.00
H741   H     0.87795   0.18382   0.43977   0.00000  Uiso   1.00
H742   H     0.87007   0.06873   0.56293   0.00000  Uiso   1.00
H743   H     0.82163   0.12860   0.43980   0.00000  Uiso   1.00
H744   H     0.67617   0.37571   0.56391   0.00000  Uiso   1.00
H745   H     0.87203   0.43381   0.56024   0.00000  Uiso   1.00
H746   H     0.62993   0.06873   0.43707   0.00000  Uiso   1.00
H747   H     0.67836   0.12859   0.56021   0.00000  Uiso   1.00
H748   H     0.82384   0.37572   0.43609   0.00000  Uiso   1.00
H749   H     0.50860   0.11601   0.37545   0.00000  Uiso   1.00
H750   H     0.50141   0.14624   0.42817   0.00000  Uiso   1.00
H751   H     0.96032   0.10979   0.40830   0.00000  Uiso   1.00
H752   H     0.62007   0.31873   0.56293   0.00000  Uiso   1.00
H753   H     0.93617   0.18703   0.38881   0.00000  Uiso   1.00
H754   H     0.95004   0.15778   0.34066   0.00000  Uiso   1.00
H755   H     0.54076   0.35406   0.60248   0.00000  Uiso   1.00
H756   H     0.50087   0.36047   0.55914   0.00000  Uiso   1.00
H757   H     0.50232   0.39880   0.60572   0.00000  Uiso   1.00
H758   H     0.94580   0.32519   0.60816   0.00000  Uiso   1.00
H759   H     0.96430   0.35410   0.65239   0.00000  Uiso   1.00
H760   H     0.95926   0.35404   0.39752   0.00000  Uiso   1.00
H761   H     0.99915   0.36046   0.44086   0.00000  Uiso   1.00
H762   H     0.99768   0.39879   0.39428   0.00000  Uiso   1.00
H763   H     0.57164   0.37859   0.43980   0.00000  Uiso   1.00
H764   H     0.55422   0.32519   0.39184   0.00000  Uiso   1.00
H765   H     0.53572   0.35410   0.34762   0.00000  Uiso   1.00
H766   H     0.99088   0.11623   0.62437   0.00000  Uiso   1.00
H767   H     0.99866   0.14619   0.57159   0.00000  Uiso   1.00
H768   H     0.53933   0.10952   0.59196   0.00000  Uiso   1.00
H769   H     0.56372   0.18683   0.61119   0.00000  Uiso   1.00
H770   H     0.54973   0.15762   0.65933   0.00000  Uiso   1.00
H771   H     0.75880   0.36608   0.37552   0.00000  Uiso   1.00
H772   H     0.75141   0.39624   0.42826   0.00000  Uiso   1.00
H773   H     0.71047   0.35970   0.40822   0.00000  Uiso   1.00
H774   H     0.92616   0.12572   0.56390   0.00000  Uiso   1.00
H775   H     0.68621   0.43694   0.38880   0.00000  Uiso   1.00
H776   H     0.70014   0.40771   0.34066   0.00000  Uiso   1.00
H777   H     0.79075   0.10405   0.60248   0.00000  Uiso   1.00
H778   H     0.75086   0.11046   0.55914   0.00000  Uiso   1.00
H779   H     0.75231   0.14879   0.60572   0.00000  Uiso   1.00
H780   H     0.69579   0.07518   0.60816   0.00000  Uiso   1.00
H781   H     0.71429   0.10410   0.65239   0.00000  Uiso   1.00
H782   H     0.70924   0.10405   0.39752   0.00000  Uiso   1.00
H783   H     0.74913   0.11047   0.44086   0.00000  Uiso   1.00
H784   H     0.74767   0.14879   0.39428   0.00000  Uiso   1.00
H785   H     0.62203   0.18381   0.56025   0.00000  Uiso   1.00
H786   H     0.80421   0.07519   0.39184   0.00000  Uiso   1.00
H787   H     0.78571   0.10410   0.34762   0.00000  Uiso   1.00
H788   H     0.74116   0.36610   0.62446   0.00000  Uiso   1.00
H789   H     0.74860   0.39623   0.57172   0.00000  Uiso   1.00
H790   H     0.78951   0.35967   0.59180   0.00000  Uiso   1.00
H791   H     0.81378   0.43693   0.61120   0.00000  Uiso   1.00
H792   H     0.79984   0.40769   0.65934   0.00000  Uiso   1.00
H793   H     0.87993   0.31873   0.43707   0.00000  Uiso   1.00
H794   H     0.92836   0.37859   0.56021   0.00000  Uiso   1.00
H795   H     0.57383   0.12571   0.43609   0.00000  Uiso   1.00
H796   H     0.62796   0.43381   0.43977   0.00000  Uiso   1.00
N797   N     0.50000   0.25000   0.61736   0.00000  Uiso   1.00
N798   N     0.50000   0.25000   0.38264   0.00000  Uiso   1.00
N799   N     0.75000   0.00000   0.61736   0.00000  Uiso   1.00
N800   N     0.75000   0.00000   0.38264   0.00000  Uiso   1.00
O801   O     0.54508   0.20491   0.53958   0.00000  Uiso   1.00
O802   O     0.70491   0.04509   0.46042   0.00000  Uiso   1.00
O803   O     0.70491   0.04509   0.53958   0.00000  Uiso   1.00
O804   O     0.79508   0.45491   0.46042   0.00000  Uiso   1.00
O805   O     0.70491   0.45491   0.46042   0.00000  Uiso   1.00
O806   O     0.79508   0.04509   0.53958   0.00000  Uiso   1.00
O807   O     0.79508   0.04509   0.46042   0.00000  Uiso   1.00
O808   O     0.70491   0.45491   0.53958   0.00000  Uiso   1.00
O809   O     0.95491   0.29509   0.46042   0.00000  Uiso   1.00
O810   O     0.95491   0.29509   0.53958   0.00000  Uiso   1.00
O811   O     0.54508   0.20491   0.46042   0.00000  Uiso   1.00
O812   O     0.95491   0.20491   0.46042   0.00000  Uiso   1.00
O813   O     0.54508   0.29509   0.53958   0.00000  Uiso   1.00
O814   O     0.54508   0.29509   0.46042   0.00000  Uiso   1.00
O815   O     0.95491   0.20491   0.53958   0.00000  Uiso   1.00
O816   O     0.79508   0.45491   0.53958   0.00000  Uiso   1.00
C817   C     0.05924   0.69076   0.49970   0.00000  Uiso   1.00
C818   C     0.49568   0.78949   0.64273   0.00000  Uiso   1.00
C819   C     0.00435   0.78949   0.35726   0.00000  Uiso   1.00
C820   C     0.00545   0.71099   0.64299   0.00000  Uiso   1.00
C821   C     0.24451   0.96100   0.35701   0.00000  Uiso   1.00
C822   C     0.24566   0.53949   0.64273   0.00000  Uiso   1.00
C823   C     0.25434   0.53949   0.35727   0.00000  Uiso   1.00
C824   C     0.25548   0.96099   0.64299   0.00000  Uiso   1.00
C825   C     0.37707   0.65818   0.46618   0.00000  Uiso   1.00
C826   C     0.12177   0.84365   0.53582   0.00000  Uiso   1.00
C827   C     0.09498   0.87626   0.46597   0.00000  Uiso   1.00
C828   C     0.44083   0.80947   0.50012   0.00000  Uiso   1.00
C829   C     0.40372   0.62599   0.53634   0.00000  Uiso   1.00
C830   C     0.12292   0.65817   0.53383   0.00000  Uiso   1.00
C831   C     0.37824   0.84365   0.46418   0.00000  Uiso   1.00
C832   C     0.40502   0.87626   0.53404   0.00000  Uiso   1.00
C833   C     0.09628   0.62599   0.46366   0.00000  Uiso   1.00
C834   C     0.12707   0.90818   0.46617   0.00000  Uiso   1.00
C835   C     0.37176   0.59365   0.53582   0.00000  Uiso   1.00
C836   C     0.34497   0.62627   0.46597   0.00000  Uiso   1.00
C837   C     0.15372   0.87599   0.53634   0.00000  Uiso   1.00
C838   C     0.37293   0.90818   0.53383   0.00000  Uiso   1.00
C839   C     0.44076   0.69076   0.50030   0.00000  Uiso   1.00
C840   C     0.12823   0.59365   0.46418   0.00000  Uiso   1.00
C841   C     0.15502   0.62626   0.53404   0.00000  Uiso   1.00
C842   C     0.34628   0.87599   0.46366   0.00000  Uiso   1.00
C843   C     0.09261   0.84330   0.50018   0.00000  Uiso   1.00
C844   C     0.40685   0.65776   0.50096   0.00000  Uiso   1.00
C845   C     0.40739   0.84330   0.49982   0.00000  Uiso   1.00
C846   C     0.09314   0.65775   0.49904   0.00000  Uiso   1.00
C847   C     0.34260   0.59330   0.50018   0.00000  Uiso   1.00
C848   C     0.15686   0.90775   0.50096   0.00000  Uiso   1.00
C849   C     0.15739   0.59330   0.49982   0.00000  Uiso   1.00
C850   C     0.05917   0.80947   0.49988   0.00000  Uiso   1.00
C851   C     0.34315   0.90776   0.49904   0.00000  Uiso   1.00
C852   C     0.46454   0.67309   0.37135   0.00000  Uiso   1.00
C853   C     0.48528   0.63430   0.39740   0.00000  Uiso   1.00
C854   C     0.47635   0.83269   0.62400   0.00000  Uiso   1.00
C855   C     0.00703   0.86272   0.59609   0.00000  Uiso   1.00
C856   C     0.02368   0.83269   0.37600   0.00000  Uiso   1.00
C857   C     0.49299   0.86271   0.40391   0.00000  Uiso   1.00
C858   C     0.03529   0.67299   0.62863   0.00000  Uiso   1.00
C859   C     0.01447   0.63426   0.60256   0.00000  Uiso   1.00
C860   C     0.21462   0.92305   0.37135   0.00000  Uiso   1.00
C861   C     0.30924   0.94076   0.49970   0.00000  Uiso   1.00
C862   C     0.23539   0.88428   0.39742   0.00000  Uiso   1.00
C863   C     0.22633   0.58269   0.62400   0.00000  Uiso   1.00
C864   C     0.25702   0.61272   0.59610   0.00000  Uiso   1.00
C865   C     0.27366   0.58269   0.37600   0.00000  Uiso   1.00
C866   C     0.24298   0.61272   0.40391   0.00000  Uiso   1.00
C867   C     0.28537   0.92304   0.62864   0.00000  Uiso   1.00
C868   C     0.26459   0.88428   0.60257   0.00000  Uiso   1.00
C869   C     0.19083   0.55947   0.50012   0.00000  Uiso   1.00
C870   C     0.19076   0.94076   0.50030   0.00000  Uiso   1.00
C871   C     0.30917   0.55948   0.49988   0.00000  Uiso   1.00
C872   C     0.49449   0.71100   0.35701   0.00000  Uiso   1.00
Cu873  Cu   -0.00000   0.75000   0.54689   0.00000  Uiso   1.00
Cu874  Cu   -0.00000   0.75000   0.45311   0.00000  Uiso   1.00
Cu875  Cu    0.25000   0.50000   0.54689   0.00000  Uiso   1.00
Cu876  Cu    0.25000   0.50000   0.45311   0.00000  Uiso   1.00
H877   H     0.37795   0.68382   0.43977   0.00000  Uiso   1.00
H878   H     0.37007   0.56873   0.56293   0.00000  Uiso   1.00
H879   H     0.32163   0.62860   0.43980   0.00000  Uiso   1.00
H880   H     0.17617   0.87571   0.56391   0.00000  Uiso   1.00
H881   H     0.37203   0.93381   0.56024   0.00000  Uiso   1.00
H882   H     0.12993   0.56873   0.43707   0.00000  Uiso   1.00
H883   H     0.17836   0.62859   0.56021   0.00000  Uiso   1.00
H884   H     0.32384   0.87572   0.43609   0.00000  Uiso   1.00
H885   H     0.00860   0.61601   0.37545   0.00000  Uiso   1.00
H886   H     0.00141   0.64624   0.42817   0.00000  Uiso   1.00
H887   H     0.46032   0.60979   0.40830   0.00000  Uiso   1.00
H888   H     0.12007   0.81873   0.56293   0.00000  Uiso   1.00
H889   H     0.43617   0.68703   0.38881   0.00000  Uiso   1.00
H890   H     0.45004   0.65778   0.34066   0.00000  Uiso   1.00
H891   H     0.04076   0.85406   0.60248   0.00000  Uiso   1.00
H892   H     0.00087   0.86047   0.55914   0.00000  Uiso   1.00
H893   H     0.00232   0.89880   0.60572   0.00000  Uiso   1.00
H894   H     0.44580   0.82519   0.60816   0.00000  Uiso   1.00
H895   H     0.46430   0.85410   0.65239   0.00000  Uiso   1.00
H896   H     0.45926   0.85404   0.39752   0.00000  Uiso   1.00
H897   H     0.49915   0.86046   0.44086   0.00000  Uiso   1.00
H898   H     0.49768   0.89879   0.39428   0.00000  Uiso   1.00
H899   H     0.07164   0.87859   0.43980   0.00000  Uiso   1.00
H900   H     0.05422   0.82519   0.39184   0.00000  Uiso   1.00
H901   H     0.03572   0.85410   0.34762   0.00000  Uiso   1.00
H902   H     0.49088   0.61623   0.62437   0.00000  Uiso   1.00
H903   H     0.49866   0.64619   0.57159   0.00000  Uiso   1.00
H904   H     0.03933   0.60952   0.59196   0.00000  Uiso   1.00
H905   H     0.06372   0.68683   0.61119   0.00000  Uiso   1.00
H906   H     0.04973   0.65762   0.65933   0.00000  Uiso   1.00
H907   H     0.25880   0.86608   0.37552   0.00000  Uiso   1.00
H908   H     0.25141   0.89624   0.42826   0.00000  Uiso   1.00
H909   H     0.21047   0.85970   0.40822   0.00000  Uiso   1.00
H910   H     0.42616   0.62572   0.56390   0.00000  Uiso   1.00
H911   H     0.18621   0.93694   0.38880   0.00000  Uiso   1.00
H912   H     0.20014   0.90771   0.34066   0.00000  Uiso   1.00
H913   H     0.29075   0.60405   0.60248   0.00000  Uiso   1.00
H914   H     0.25086   0.61046   0.55914   0.00000  Uiso   1.00
H915   H     0.25231   0.64879   0.60572   0.00000  Uiso   1.00
H916   H     0.19579   0.57518   0.60816   0.00000  Uiso   1.00
H917   H     0.21429   0.60410   0.65239   0.00000  Uiso   1.00
H918   H     0.20924   0.60405   0.39752   0.00000  Uiso   1.00
H919   H     0.24913   0.61047   0.44086   0.00000  Uiso   1.00
H920   H     0.24767   0.64879   0.39428   0.00000  Uiso   1.00
H921   H     0.12203   0.68381   0.56025   0.00000  Uiso   1.00
H922   H     0.30421   0.57519   0.39184   0.00000  Uiso   1.00
H923   H     0.28571   0.60410   0.34762   0.00000  Uiso   1.00
H924   H     0.24116   0.86610   0.62446   0.00000  Uiso   1.00
H925   H     0.24860   0.89623   0.57172   0.00000  Uiso   1.00
H926   H     0.28951   0.85967   0.59180   0.00000  Uiso   1.00
H927   H     0.31378   0.93693   0.61120   0.00000  Uiso   1.00
H928   H     0.29984   0.90769   0.65934   0.00000  Uiso   1.00
H929   H     0.37993   0.81873   0.43707   0.00000  Uiso   1.00
H930   H     0.42836   0.87859   0.56021   0.00000  Uiso   1.00
H931   H     0.07383   0.62571   0.43609   0.00000  Uiso   1.00
H932   H     0.12796   0.93381   0.43977   0.00000  Uiso   1.00
N933   N     0.00000   0.75000   0.61736   0.00000  Uiso   1.00
N934   N    -0.00000   0.75000   0.38264   0.00000  Uiso   1.00
N935   N     0.25000   0.50000   0.61736   0.00000  Uiso   1.00
N936   N     0.25000   0.50000   0.38264   0.00000  Uiso   1.00
O937   O     0.04508   0.70491   0.53958   0.00000  Uiso   1.00
O938   O     0.20491   0.54509   0.46042   0.00000  Uiso   1.00
O939   O     0.20491   0.54509   0.53958   0.00000  Uiso   1.00
O940   O     0.29508   0.95491   0.46042   0.00000  Uiso   1.00
O941   O     0.20491   0.95491   0.46042   0.00000  Uiso   1.00
O942   O     0.29508   0.54509   0.53958   0.00000  Uiso   1.00
O943   O     0.29508   0.54509   0.46042   0.00000  Uiso   1.00
O944   O     0.20491   0.95491   0.53958   0.00000  Uiso   1.00
O945   O     0.45491   0.79509   0.46042   0.00000  Uiso   1.00
O946   O     0.45491   0.79509   0.53958   0.00000  Uiso   1.00
O947   O     0.04508   0.70491   0.46042   0.00000  Uiso   1.00
O948   O     0.45491   0.70491   0.46042   0.00000  Uiso   1.00
O949   O     0.04508   0.79509   0.53958   0.00000  Uiso   1.00
O950   O     0.04508   0.79509   0.46042   0.00000  Uiso   1.00
O951   O     0.45491   0.70491   0.53958   0.00000  Uiso   1.00
O952   O     0.29508   0.95491   0.53958   0.00000  Uiso   1.00
C953   C     0.55924   0.69076   0.49970   0.00000  Uiso   1.00
C954   C     0.99568   0.78949   0.64273   0.00000  Uiso   1.00
C955   C     0.50435   0.78949   0.35726   0.00000  Uiso   1.00
C956   C     0.50545   0.71099   0.64299   0.00000  Uiso   1.00
C957   C     0.74451   0.96100   0.35701   0.00000  Uiso   1.00
C958   C     0.74566   0.53949   0.64273   0.00000  Uiso   1.00
C959   C     0.75434   0.53949   0.35727   0.00000  Uiso   1.00
C960   C     0.75548   0.96099   0.64299   0.00000  Uiso   1.00
C961   C     0.87707   0.65818   0.46618   0.00000  Uiso   1.00
C962   C     0.62177   0.84365   0.53582   0.00000  Uiso   1.00
C963   C     0.59498   0.87626   0.46597   0.00000  Uiso   1.00
C964   C     0.94083   0.80947   0.50012   0.00000  Uiso   1.00
C965   C     0.90372   0.62599   0.53634   0.00000  Uiso   1.00
C966   C     0.62292   0.65817   0.53383   0.00000  Uiso   1.00
C967   C     0.87824   0.84365   0.46418   0.00000  Uiso   1.00
C968   C     0.90502   0.87626   0.53404   0.00000  Uiso   1.00
C969   C     0.59628   0.62599   0.46366   0.00000  Uiso   1.00
C970   C     0.62707   0.90818   0.46617   0.00000  Uiso   1.00
C971   C     0.87176   0.59365   0.53582   0.00000  Uiso   1.00
C972   C     0.84497   0.62627   0.46597   0.00000  Uiso   1.00
C973   C     0.65372   0.87599   0.53634   0.00000  Uiso   1.00
C974   C     0.87293   0.90818   0.53383   0.00000  Uiso   1.00
C975   C     0.94076   0.69076   0.50030   0.00000  Uiso   1.00
C976   C     0.62823   0.59365   0.46418   0.00000  Uiso   1.00
C977   C     0.65502   0.62626   0.53404   0.00000  Uiso   1.00
C978   C     0.84628   0.87599   0.46366   0.00000  Uiso   1.00
C979   C     0.59261   0.84330   0.50018   0.00000  Uiso   1.00
C980   C     0.90685   0.65776   0.50096   0.00000  Uiso   1.00
C981   C     0.90739   0.84330   0.49982   0.00000  Uiso   1.00
C982   C     0.59314   0.65775   0.49904   0.00000  Uiso   1.00
C983   C     0.84260   0.59330   0.50018   0.00000  Uiso   1.00
C984   C     0.65686   0.90775   0.50096   0.00000  Uiso   1.00
C985   C     0.65739   0.59330   0.49982   0.00000  Uiso   1.00
C986   C     0.55917   0.80947   0.49988   0.00000  Uiso   1.00
C987   C     0.84315   0.90776   0.49904   0.00000  Uiso   1.00
C988   C     0.96454   0.67309   0.37135   0.00000  Uiso   1.00
C989   C     0.98528   0.63430   0.39740   0.00000  Uiso   1.00
C990   C     0.97635   0.83269   0.62400   0.00000  Uiso   1.00
C991   C     0.50703   0.86272   0.59609   0.00000  Uiso   1.00
C992   C     0.52368   0.83269   0.37600   0.00000  Uiso   1.00
C993   C     0.99299   0.86271   0.40391   0.00000  Uiso   1.00
C994   C     0.53529   0.67299   0.62863   0.00000  Uiso   1.00
C995   C     0.51447   0.63426   0.60256   0.00000  Uiso   1.00
C996   C     0.71462   0.92305   0.37135   0.00000  Uiso   1.00
C997   C     0.80924   0.94076   0.49970   0.00000  Uiso   1.00
C998   C     0.73539   0.88428   0.39742   0.00000  Uiso   1.00
C999   C     0.72633   0.58269   0.62400   0.00000  Uiso   1.00
C1000  C     0.75702   0.61272   0.59610   0.00000  Uiso   1.00
C1001  C     0.77366   0.58269   0.37600   0.00000  Uiso   1.00
C1002  C     0.74298   0.61272   0.40391   0.00000  Uiso   1.00
C1003  C     0.78537   0.92304   0.62864   0.00000  Uiso   1.00
C1004  C     0.76459   0.88428   0.60257   0.00000  Uiso   1.00
C1005  C     0.69083   0.55947   0.50012   0.00000  Uiso   1.00
C1006  C     0.69076   0.94076   0.50030   0.00000  Uiso   1.00
C1007  C     0.80917   0.55948   0.49988   0.00000  Uiso   1.00
C1008  C     0.99449   0.71100   0.35701   0.00000  Uiso   1.00
Cu1009 Cu    0.50000   0.75000   0.54689   0.00000  Uiso   1.00
Cu1010 Cu    0.50000   0.75000   0.45311   0.00000  Uiso   1.00
Cu1011 Cu    0.75000   0.50000   0.54689   0.00000  Uiso   1.00
Cu1012 Cu    0.75000   0.50000   0.45311   0.00000  Uiso   1.00
H1013  H     0.87795   0.68382   0.43977   0.00000  Uiso   1.00
H1014  H     0.87007   0.56873   0.56293   0.00000  Uiso   1.00
H1015  H     0.82163   0.62860   0.43980   0.00000  Uiso   1.00
H1016  H     0.67617   0.87571   0.56391   0.00000  Uiso   1.00
H1017  H     0.87203   0.93381   0.56024   0.00000  Uiso   1.00
H1018  H     0.62993   0.56873   0.43707   0.00000  Uiso   1.00
H1019  H     0.67836   0.62859   0.56021   0.00000  Uiso   1.00
H1020  H     0.82384   0.87572   0.43609   0.00000  Uiso   1.00
H1021  H     0.50860   0.61601   0.37545   0.00000  Uiso   1.00
H1022  H     0.50141   0.64624   0.42817   0.00000  Uiso   1.00
H1023  H     0.96032   0.60979   0.40830   0.00000  Uiso   1.00
H1024  H     0.62007   0.81873   0.56293   0.00000  Uiso   1.00
H1025  H     0.93617   0.68703   0.38881   0.00000  Uiso   1.00
H1026  H     0.95004   0.65778   0.34066   0.00000  Uiso   1.00
H1027  H     0.54076   0.85406   0.60248   0.00000  Uiso   1.00
H1028  H     0.50087   0.86047   0.55914   0.00000  Uiso   1.00
H1029  H     0.50232   0.89880   0.60572   0.00000  Uiso   1.00
H1030  H     0.94580   0.82519   0.60816   0.00000  Uiso   1.00
H1031  H     0.96430   0.85410   0.65239   0.00000  Uiso   1.00
H1032  H     0.95926   0.85404   0.39752   0.00000  Uiso   1.00
H1033  H     0.99915   0.86046   0.44086   0.00000  Uiso   1.00
H1034  H     0.99768   0.89879   0.39428   0.00000  Uiso   1.00
H1035  H     0.57164   0.87859   0.43980   0.00000  Uiso   1.00
H1036  H     0.55422   0.82519   0.39184   0.00000  Uiso   1.00
H1037  H     0.53572   0.85410   0.34762   0.00000  Uiso   1.00
H1038  H     0.99088   0.61623   0.62437   0.00000  Uiso   1.00
H1039  H     0.99866   0.64619   0.57159   0.00000  Uiso   1.00
H1040  H     0.53933   0.60952   0.59196   0.00000  Uiso   1.00
H1041  H     0.56372   0.68683   0.61119   0.00000  Uiso   1.00
H1042  H     0.54973   0.65762   0.65933   0.00000  Uiso   1.00
H1043  H     0.75880   0.86608   0.37552   0.00000  Uiso   1.00
H1044  H     0.75141   0.89624   0.42826   0.00000  Uiso   1.00
H1045  H     0.71047   0.85970   0.40822   0.00000  Uiso   1.00
H1046  H     0.92616   0.62572   0.56390   0.00000  Uiso   1.00
H1047  H     0.68621   0.93694   0.38880   0.00000  Uiso   1.00
H1048  H     0.70014   0.90771   0.34066   0.00000  Uiso   1.00
H1049  H     0.79075   0.60405   0.60248   0.00000  Uiso   1.00
H1050  H     0.75086   0.61046   0.55914   0.00000  Uiso   1.00
H1051  H     0.75231   0.64879   0.60572   0.00000  Uiso   1.00
H1052  H     0.69579   0.57518   0.60816   0.00000  Uiso   1.00
H1053  H     0.71429   0.60410   0.65239   0.00000  Uiso   1.00
H1054  H     0.70924   0.60405   0.39752   0.00000  Uiso   1.00
H1055  H     0.74913   0.61047   0.44086   0.00000  Uiso   1.00
H1056  H     0.74767   0.64879   0.39428   0.00000  Uiso   1.00
H1057  H     0.62203   0.68381   0.56025   0.00000  Uiso   1.00
H1058  H     0.80421   0.57519   0.39184   0.00000  Uiso   1.00
H1059  H     0.78571   0.60410   0.34762   0.00000  Uiso   1.00
H1060  H     0.74116   0.86610   0.62446   0.00000  Uiso   1.00
H1061  H     0.74860   0.89623   0.57172   0.00000  Uiso   1.00
H1062  H     0.78951   0.85967   0.59180   0.00000  Uiso   1.00
H1063  H     0.81378   0.93693   0.61120   0.00000  Uiso   1.00
H1064  H     0.79984   0.90769   0.65934   0.00000  Uiso   1.00
H1065  H     0.87993   0.81873   0.43707   0.00000  Uiso   1.00
H1066  H     0.92836   0.87859   0.56021   0.00000  Uiso   1.00
H1067  H     0.57383   0.62571   0.43609   0.00000  Uiso   1.00
H1068  H     0.62796   0.93381   0.43977   0.00000  Uiso   1.00
N1069  N     0.50000   0.75000   0.61736   0.00000  Uiso   1.00
N1070  N     0.50000   0.75000   0.38264   0.00000  Uiso   1.00
N1071  N     0.75000   0.50000   0.61736   0.00000  Uiso   1.00
N1072  N     0.75000   0.50000   0.38264   0.00000  Uiso   1.00
O1073  O     0.54508   0.70491   0.53958   0.00000  Uiso   1.00
O1074  O     0.70491   0.54509   0.46042   0.00000  Uiso   1.00
O1075  O     0.70491   0.54509   0.53958   0.00000  Uiso   1.00
O1076  O     0.79508   0.95491   0.46042   0.00000  Uiso   1.00
O1077  O     0.70491   0.95491   0.46042   0.00000  Uiso   1.00
O1078  O     0.79508   0.54509   0.53958   0.00000  Uiso   1.00
O1079  O     0.79508   0.54509   0.46042   0.00000  Uiso   1.00
O1080  O     0.70491   0.95491   0.53958   0.00000  Uiso   1.00
O1081  O     0.95491   0.79509   0.46042   0.00000  Uiso   1.00
O1082  O     0.95491   0.79509   0.53958   0.00000  Uiso   1.00
O1083  O     0.54508   0.70491   0.46042   0.00000  Uiso   1.00
O1084  O     0.95491   0.70491   0.46042   0.00000  Uiso   1.00
O1085  O     0.54508   0.79509   0.53958   0.00000  Uiso   1.00
O1086  O     0.54508   0.79509   0.46042   0.00000  Uiso   1.00
O1087  O     0.95491   0.70491   0.53958   0.00000  Uiso   1.00
O1088  O     0.79508   0.95491   0.53958   0.00000  Uiso   1.00
C1089  C     0.05924   0.19076   0.83303   0.00000  Uiso   1.00
C1090  C     0.49568   0.28949   0.97607   0.00000  Uiso   1.00
C1091  C     0.00435   0.28949   0.69060   0.00000  Uiso   1.00
C1092  C     0.00545   0.21099   0.97632   0.00000  Uiso   1.00
C1093  C     0.24451   0.46100   0.69034   0.00000  Uiso   1.00
C1094  C     0.24566   0.03949   0.97607   0.00000  Uiso   1.00
C1095  C     0.25434   0.03949   0.69060   0.00000  Uiso   1.00
C1096  C     0.25548   0.46099   0.97632   0.00000  Uiso   1.00
C1097  C     0.37707   0.15818   0.79951   0.00000  Uiso   1.00
C1098  C     0.12177   0.34365   0.86915   0.00000  Uiso   1.00
C1099  C     0.09498   0.37626   0.79930   0.00000  Uiso   1.00
C1100  C     0.44083   0.30947   0.83345   0.00000  Uiso   1.00
C1101  C     0.40372   0.12599   0.86967   0.00000  Uiso   1.00
C1102  C     0.12292   0.15817   0.86717   0.00000  Uiso   1.00
C1103  C     0.37824   0.34365   0.79752   0.00000  Uiso   1.00
C1104  C     0.40502   0.37626   0.86737   0.00000  Uiso   1.00
C1105  C     0.09628   0.12599   0.79699   0.00000  Uiso   1.00
C1106  C     0.12707   0.40818   0.79951   0.00000  Uiso   1.00
C1107  C     0.37176   0.09365   0.86915   0.00000  Uiso   1.00
C1108  C     0.34497   0.12627   0.79930   0.00000  Uiso   1.00
C1109  C     0.15372   0.37599   0.86967   0.00000  Uiso   1.00
C1110  C     0.37293   0.40818   0.86716   0.00000  Uiso   1.00
C1111  C     0.44076   0.19076   0.83363   0.00000  Uiso   1.00
C1112  C     0.12823   0.09365   0.79752   0.00000  Uiso   1.00
C1113  C     0.15502   0.12626   0.86737   0.00000  Uiso   1.00
C1114  C     0.34628   0.37599   0.79699   0.00000  Uiso   1.00
C1115  C     0.09261   0.34330   0.83351   0.00000  Uiso   1.00
C1116  C     0.40685   0.15776   0.83430   0.00000  Uiso   1.00
C1117  C     0.40739   0.34330   0.83316   0.00000  Uiso   1.00
C1118  C     0.09314   0.15775   0.83237   0.00000  Uiso   1.00
C1119  C     0.34260   0.09330   0.83351   0.00000  Uiso   1.00
C1120  C     0.15686   0.40775   0.83429   0.00000  Uiso   1.00
C1121  C     0.15739   0.09330   0.83316   0.00000  Uiso   1.00
C1122  C     0.05917   0.30947   0.83321   0.00000  Uiso   1.00
C1123  C     0.34315   0.40776   0.83237   0.00000  Uiso   1.00
C1124  C     0.46454   0.17309   0.70468   0.00000  Uiso   1.00
C1125  C     0.48528   0.13430   0.73074   0.00000  Uiso   1.00
C1126  C     0.47635   0.33269   0.95734   0.00000  Uiso   1.00
C1127  C     0.00703   0.36272   0.92943   0.00000  Uiso   1.00
C1128  C     0.02368   0.33269   0.70934   0.00000  Uiso   1.00
C1129  C     0.49299   0.36271   0.73724   0.00000  Uiso   1.00
C1130  C     0.03529   0.17299   0.96197   0.00000  Uiso   1.00
C1131  C     0.01447   0.13426   0.93589   0.00000  Uiso   1.00
C1132  C     0.21462   0.42305   0.70469   0.00000  Uiso   1.00
C1133  C     0.30924   0.44076   0.83303   0.00000  Uiso   1.00
C1134  C     0.23539   0.38428   0.73076   0.00000  Uiso   1.00
C1135  C     0.22633   0.08269   0.95733   0.00000  Uiso   1.00
C1136  C     0.25702   0.11272   0.92943   0.00000  Uiso   1.00
C1137  C     0.27366   0.08269   0.70933   0.00000  Uiso   1.00
C1138  C     0.24298   0.11272   0.73724   0.00000  Uiso   1.00
C1139  C     0.28537   0.42304   0.96198   0.00000  Uiso   1.00
C1140  C     0.26459   0.38428   0.93591   0.00000  Uiso   1.00
C1141  C     0.19083   0.05947   0.83345   0.00000  Uiso   1.00
C1142  C     0.19076   0.44076   0.83363   0.00000  Uiso   1.00
C1143  C     0.30917   0.05948   0.83321   0.00000  Uiso   1.00
C1144  C     0.49449   0.21100   0.69034   0.00000  Uiso   1.00
Cu1145 Cu   -0.00000   0.25000   0.88022   0.00000  Uiso   1.00
Cu1146 Cu   -0.00000   0.25000   0.78645   0.00000  Uiso   1.00
Cu1147 Cu    0.25000   0.00000   0.88022   0.00000  Uiso   1.00
Cu1148 Cu    0.25000   0.00000   0.78645   0.00000  Uiso   1.00
H1149  H     0.37795   0.18382   0.77311   0.00000  Uiso   1.00
H1150  H     0.37007   0.06873   0.89626   0.00000  Uiso   1.00
H1151  H     0.32163   0.12860   0.77313   0.00000  Uiso   1.00
H1152  H     0.17617   0.37571   0.89724   0.00000  Uiso   1.00
H1153  H     0.37203   0.43381   0.89357   0.00000  Uiso   1.00
H1154  H     0.12993   0.06873   0.77040   0.00000  Uiso   1.00
H1155  H     0.17836   0.12859   0.89355   0.00000  Uiso   1.00
H1156  H     0.32384   0.37572   0.76943   0.00000  Uiso   1.00
H1157  H     0.00860   0.11601   0.70879   0.00000  Uiso   1.00
H1158  H     0.00141   0.14624   0.76151   0.00000  Uiso   1.00
H1159  H     0.46032   0.10979   0.74163   0.00000  Uiso   1.00
H1160  H     0.12007   0.31873   0.89626   0.00000  Uiso   1.00
H1161  H     0.43617   0.18703   0.72214   0.00000  Uiso   1.00
H1162  H     0.45004   0.15778   0.67399   0.00000  Uiso   1.00
H1163  H     0.04076   0.35406   0.93581   0.00000  Uiso   1.00
H1164  H     0.00087   0.36047   0.89247   0.00000  Uiso   1.00
H1165  H     0.00232   0.39880   0.93905   0.00000  Uiso   1.00
H1166  H     0.44580   0.32519   0.94149   0.00000  Uiso   1.00
H1167  H     0.46430   0.35410   0.98572   0.00000  Uiso   1.00
H1168  H     0.45926   0.35404   0.73085   0.00000  Uiso   1.00
H1169  H     0.49915   0.36046   0.77419   0.00000  Uiso   1.00
H1170  H     0.49768   0.39879   0.72761   0.00000  Uiso   1.00
H1171  H     0.07164   0.37859   0.77313   0.00000  Uiso   1.00
H1172  H     0.05422   0.32519   0.72518   0.00000  Uiso   1.00
H1173  H     0.03572   0.35410   0.68095   0.00000  Uiso   1.00
H1174  H     0.49088   0.11623   0.95770   0.00000  Uiso   1.00
H1175  H     0.49866   0.14619   0.90493   0.00000  Uiso   1.00
H1176  H     0.03933   0.10952   0.92530   0.00000  Uiso   1.00
H1177  H     0.06372   0.18683   0.94453   0.00000  Uiso   1.00
H1178  H     0.04973   0.15762   0.99267   0.00000  Uiso   1.00
H1179  H     0.25880   0.36608   0.70885   0.00000  Uiso   1.00
H1180  H     0.25141   0.39624   0.76159   0.00000  Uiso   1.00
H1181  H     0.21047   0.35970   0.74156   0.00000  Uiso   1.00
H1182  H     0.42616   0.12572   0.89724   0.00000  Uiso   1.00
H1183  H     0.18621   0.43694   0.72214   0.00000  Uiso   1.00
H1184  H     0.20014   0.40771   0.67399   0.00000  Uiso   1.00
H1185  H     0.29075   0.10405   0.93582   0.00000  Uiso   1.00
H1186  H     0.25086   0.11046   0.89247   0.00000  Uiso   1.00
H1187  H     0.25231   0.14879   0.93905   0.00000  Uiso   1.00
H1188  H     0.19579   0.07518   0.94149   0.00000  Uiso   1.00
H1189  H     0.21429   0.10410   0.98572   0.00000  Uiso   1.00
H1190  H     0.20924   0.10405   0.73086   0.00000  Uiso   1.00
H1191  H     0.24913   0.11047   0.77419   0.00000  Uiso   1.00
H1192  H     0.24767   0.14879   0.72761   0.00000  Uiso   1.00
H1193  H     0.12203   0.18381   0.89358   0.00000  Uiso   1.00
H1194  H     0.30421   0.07519   0.72518   0.00000  Uiso   1.00
H1195  H     0.28571   0.10410   0.68095   0.00000  Uiso   1.00
H1196  H     0.24116   0.36610   0.95780   0.00000  Uiso   1.00
H1197  H     0.24860   0.39623   0.90505   0.00000  Uiso   1.00
H1198  H     0.28951   0.35967   0.92513   0.00000  Uiso   1.00
H1199  H     0.31378   0.43693   0.94453   0.00000  Uiso   1.00
H1200  H     0.29984   0.40769   0.99267   0.00000  Uiso   1.00
H1201  H     0.37993   0.31873   0.77040   0.00000  Uiso   1.00
H1202  H     0.42836   0.37859   0.89354   0.00000  Uiso   1.00
H1203  H     0.07383   0.12571   0.76943   0.00000  Uiso   1.00
H1204  H     0.12796   0.43381   0.77310   0.00000  Uiso   1.00
N1205  N     0.00000   0.25000   0.95069   0.00000  Uiso   1.00
N1206  N    -0.00000   0.25000   0.71598   0.00000  Uiso   1.00
N1207  N     0.25000   0.00000   0.95069   0.00000  Uiso   1.00
N1208  N     0.25000   0.00000   0.71598   0.00000  Uiso   1.00
O1209  O     0.04508   0.20491   0.87291   0.00000  Uiso   1.00
O1210  O     0.20491   0.04509   0.79375   0.00000  Uiso   1.00
O1211  O     0.20491   0.04509   0.87291   0.00000  Uiso   1.00
O1212  O     0.29508   0.45491   0.79375   0.00000  Uiso   1.00
O1213  O     0.20491   0.45491   0.79375   0.00000  Uiso   1.00
O1214  O     0.29508   0.04509   0.87291   0.00000  Uiso   1.00
O1215  O     0.29508   0.04509   0.79375   0.00000  Uiso   1.00
O1216  O     0.20491   0.45491   0.87291   0.00000  Uiso   1.00
O1217  O     0.45491   0.29509   0.79375   0.00000  Uiso   1.00
O1218  O     0.45491   0.29509   0.87291   0.00000  Uiso   1.00
O1219  O     0.04508   0.20491   0.79375   0.00000  Uiso   1.00
O1220  O     0.45491   0.20491   0.79375   0.00000  Uiso   1.00
O1221  O     0.04508   0.29509   0.87291   0.00000  Uiso   1.00
O1222  O     0.04508   0.29509   0.79375   0.00000  Uiso   1.00
O1223  O     0.45491   0.20491   0.87291   0.00000  Uiso   1.00
O1224  O     0.29508   0.45491   0.87291   0.00000  Uiso   1.00
C1225  C     0.55924   0.19076   0.83303   0.00000  Uiso   1.00
C1226  C     0.99568   0.28949   0.97607   0.00000  Uiso   1.00
C1227  C     0.50435   0.28949   0.69060   0.00000  Uiso   1.00
C1228  C     0.50545   0.21099   0.97632   0.00000  Uiso   1.00
C1229  C     0.74451   0.46100   0.69034   0.00000  Uiso   1.00
C1230  C     0.74566   0.03949   0.97607   0.00000  Uiso   1.00
C1231  C     0.75434   0.03949   0.69060   0.00000  Uiso   1.00
C1232  C     0.75548   0.46099   0.97632   0.00000  Uiso   1.00
C1233  C     0.87707   0.15818   0.79951   0.00000  Uiso   1.00
C1234  C     0.62177   0.34365   0.86915   0.00000  Uiso   1.00
C1235  C     0.59498   0.37626   0.79930   0.00000  Uiso   1.00
C1236  C     0.94083   0.30947   0.83345   0.00000  Uiso   1.00
C1237  C     0.90372   0.12599   0.86967   0.00000  Uiso   1.00
C1238  C     0.62292   0.15817   0.86717   0.00000  Uiso   1.00
C1239  C     0.87824   0.34365   0.79752   0.00000  Uiso   1.00
C1240  C     0.90502   0.37626   0.86737   0.00000  Uiso   1.00
C1241  C     0.59628   0.12599   0.79699   0.00000  Uiso   1.00
C1242  C     0.62707   0.40818   0.79951   0.00000  Uiso   1.00
C1243  C     0.87176   0.09365   0.86915   0.00000  Uiso   1.00
C1244  C     0.84497   0.12627   0.79930   0.00000  Uiso   1.00
C1245  C     0.65372   0.37599   0.86967   0.00000  Uiso   1.00
C1246  C     0.87293   0.40818   0.86716   0.00000  Uiso   1.00
C1247  C     0.94076   0.19076   0.83363   0.00000  Uiso   1.00
C1248  C     0.62823   0.09365   0.79752   0.00000  Uiso   1.00
C1249  C     0.65502   0.12626   0.86737   0.00000  Uiso   1.00
C1250  C     0.84628   0.37599   0.79699   0.00000  Uiso   1.00
C1251  C     0.59261   0.34330   0.83351   0.00000  Uiso   1.00
C1252  C     0.90685   0.15776   0.83430   0.00000  Uiso   1.00
C1253  C     0.90739   0.34330   0.83316   0.00000  Uiso   1.00
C1254  C     0.59314   0.15775   0.83237   0.00000  Uiso   1.00
C1255  C     0.84260   0.09330   0.83351   0.00000  Uiso   1.00
C1256  C     0.65686   0.40775   0.83429   0.00000  Uiso   1.00
C1257  C     0.65739   0.09330   0.83316   0.00000  Uiso   1.00
C1258  C     0.55917   0.30947   0.83321   0.00000  Uiso   1.00
C1259  C     0.84315   0.40776   0.83237   0.00000  Uiso   1.00
C1260  C     0.96454   0.17309   0.70468   0.00000  Uiso   1.00
C1261  C     0.98528   0.13430   0.73074   0.00000  Uiso   1.00
C1262  C     0.97635   0.33269   0.95734   0.00000  Uiso   1.00
C1263  C     0.50703   0.36272   0.92943   0.00000  Uiso   1.00
C1264  C     0.52368   0.33269   0.70934   0.00000  Uiso   1.00
C1265  C     0.99299   0.36271   0.73724   0.00000  Uiso   1.00
C1266  C     0.53529   0.17299   0.96197   0.00000  Uiso   1.00
C1267  C     0.51447   0.13426   0.93589   0.00000  Uiso   1.00
C1268  C     0.71462   0.42305   0.70469   0.00000  Uiso   1.00
C1269  C     0.80924   0.44076   0.83303   0.00000  Uiso   1.00
C1270  C     0.73539   0.38428   0.73076   0.00000  Uiso   1.00
C1271  C     0.72633   0.08269   0.95733   0.00000  Uiso   1.00
C1272  C     0.75702   0.11272   0.92943   0.00000  Uiso   1.00
C1273  C     0.77366   0.08269   0.70933   0.00000  Uiso   1.00
C1274  C     0.74298   0.11272   0.73724   0.00000  Uiso   1.00
C1275  C     0.78537   0.42304   0.96198   0.00000  Uiso   1.00
C1276  C     0.76459   0.38428   0.93591   0.00000  Uiso   1.00
C1277  C     0.69083   0.05947   0.83345   0.00000  Uiso   1.00
C1278  C     0.69076   0.44076   0.83363   0.00000  Uiso   1.00
C1279  C     0.80917   0.05948   0.83321   0.00000  Uiso   1.00
C1280  C     0.99449   0.21100   0.69034   0.00000  Uiso   1.00
Cu1281 Cu    0.50000   0.25000   0.88022   0.00000  Uiso   1.00
Cu1282 Cu    0.50000   0.25000   0.78645   0.00000  Uiso   1.00
Cu1283 Cu    0.75000   0.00000   0.88022   0.00000  Uiso   1.00
Cu1284 Cu    0.75000   0.00000   0.78645   0.00000  Uiso   1.00
H1285  H     0.87795   0.18382   0.77311   0.00000  Uiso   1.00
H1286  H     0.87007   0.06873   0.89626   0.00000  Uiso   1.00
H1287  H     0.82163   0.12860   0.77313   0.00000  Uiso   1.00
H1288  H     0.67617   0.37571   0.89724   0.00000  Uiso   1.00
H1289  H     0.87203   0.43381   0.89357   0.00000  Uiso   1.00
H1290  H     0.62993   0.06873   0.77040   0.00000  Uiso   1.00
H1291  H     0.67836   0.12859   0.89355   0.00000  Uiso   1.00
H1292  H     0.82384   0.37572   0.76943   0.00000  Uiso   1.00
H1293  H     0.50860   0.11601   0.70879   0.00000  Uiso   1.00
H1294  H     0.50141   0.14624   0.76151   0.00000  Uiso   1.00
H1295  H     0.96032   0.10979   0.74163   0.00000  Uiso   1.00
H1296  H     0.62007   0.31873   0.89626   0.00000  Uiso   1.00
H1297  H     0.93617   0.18703   0.72214   0.00000  Uiso   1.00
H1298  H     0.95004   0.15778   0.67399   0.00000  Uiso   1.00
H1299  H     0.54076   0.35406   0.93581   0.00000  Uiso   1.00
H1300  H     0.50087   0.36047   0.89247   0.00000  Uiso   1.00
H1301  H     0.50232   0.39880   0.93905   0.00000  Uiso   1.00
H1302  H     0.94580   0.32519   0.94149   0.00000  Uiso   1.00
H1303  H     0.96430   0.35410   0.98572   0.00000  Uiso   1.00
H1304  H     0.95926   0.35404   0.73085   0.00000  Uiso   1.00
H1305  H     0.99915   0.36046   0.77419   0.00000  Uiso   1.00
H1306  H     0.99768   0.39879   0.72761   0.00000  Uiso   1.00
H1307  H     0.57164   0.37859   0.77313   0.00000  Uiso   1.00
H1308  H     0.55422   0.32519   0.72518   0.00000  Uiso   1.00
H1309  H     0.53572   0.35410   0.68095   0.00000  Uiso   1.00
H1310  H     0.99088   0.11623   0.95770   0.00000  Uiso   1.00
H1311  H     0.99866   0.14619   0.90493   0.00000  Uiso   1.00
H1312  H     0.53933   0.10952   0.92530   0.00000  Uiso   1.00
H1313  H     0.56372   0.18683   0.94453   0.00000  Uiso   1.00
H1314  H     0.54973   0.15762   0.99267   0.00000  Uiso   1.00
H1315  H     0.75880   0.36608   0.70885   0.00000  Uiso   1.00
H1316  H     0.75141   0.39624   0.76159   0.00000  Uiso   1.00
H1317  H     0.71047   0.35970   0.74156   0.00000  Uiso   1.00
H1318  H     0.92616   0.12572   0.89724   0.00000  Uiso   1.00
H1319  H     0.68621   0.43694   0.72214   0.00000  Uiso   1.00
H1320  H     0.70014   0.40771   0.67399   0.00000  Uiso   1.00
H1321  H     0.79075   0.10405   0.93582   0.00000  Uiso   1.00
H1322  H     0.75086   0.11046   0.89247   0.00000  Uiso   1.00
H1323  H     0.75231   0.14879   0.93905   0.00000  Uiso   1.00
H1324  H     0.69579   0.07518   0.94149   0.00000  Uiso   1.00
H1325  H     0.71429   0.10410   0.98572   0.00000  Uiso   1.00
H1326  H     0.70924   0.10405   0.73086   0.00000  Uiso   1.00
H1327  H     0.74913   0.11047   0.77419   0.00000  Uiso   1.00
H1328  H     0.74767   0.14879   0.72761   0.00000  Uiso   1.00
H1329  H     0.62203   0.18381   0.89358   0.00000  Uiso   1.00
H1330  H     0.80421   0.07519   0.72518   0.00000  Uiso   1.00
H1331  H     0.78571   0.10410   0.68095   0.00000  Uiso   1.00
H1332  H     0.74116   0.36610   0.95780   0.00000  Uiso   1.00
H1333  H     0.74860   0.39623   0.90505   0.00000  Uiso   1.00
H1334  H     0.78951   0.35967   0.92513   0.00000  Uiso   1.00
H1335  H     0.81378   0.43693   0.94453   0.00000  Uiso   1.00
H1336  H     0.79984   0.40769   0.99267   0.00000  Uiso   1.00
H1337  H     0.87993   0.31873   0.77040   0.00000  Uiso   1.00
H1338  H     0.92836   0.37859   0.89354   0.00000  Uiso   1.00
H1339  H     0.57383   0.12571   0.76943   0.00000  Uiso   1.00
H1340  H     0.62796   0.43381   0.77310   0.00000  Uiso   1.00
N1341  N     0.50000   0.25000   0.95069   0.00000  Uiso   1.00
N1342  N     0.50000   0.25000   0.71598   0.00000  Uiso   1.00
N1343  N     0.75000   0.00000   0.95069   0.00000  Uiso   1.00
N1344  N     0.75000   0.00000   0.71598   0.00000  Uiso   1.00
O1345  O     0.54508   0.20491   0.87291   0.00000  Uiso   1.00
O1346  O     0.70491   0.04509   0.79375   0.00000  Uiso   1.00
O1347  O     0.70491   0.04509   0.87291   0.00000  Uiso   1.00
O1348  O     0.79508   0.45491   0.79375   0.00000  Uiso   1.00
O1349  O     0.70491   0.45491   0.79375   0.00000  Uiso   1.00
O1350  O     0.79508   0.04509   0.87291   0.00000  Uiso   1.00
O1351  O     0.79508   0.04509   0.79375   0.00000  Uiso   1.00
O1352  O     0.70491   0.45491   0.87291   0.00000  Uiso   1.00
O1353  O     0.95491   0.29509   0.79375   0.00000  Uiso   1.00
O1354  O     0.95491   0.29509   0.87291   0.00000  Uiso   1.00
O1355  O     0.54508   0.20491   0.79375   0.00000  Uiso   1.00
O1356  O     0.95491   0.20491   0.79375   0.00000  Uiso   1.00
O1357  O     0.54508   0.29509   0.87291   0.00000  Uiso   1.00
O1358  O     0.54508   0.29509   0.79375   0.00000  Uiso   1.00
O1359  O     0.95491   0.20491   0.87291   0.00000  Uiso   1.00
O1360  O     0.79508   0.45491   0.87291   0.00000  Uiso   1.00
C1361  C     0.05924   0.69076   0.83303   0.00000  Uiso   1.00
C1362  C     0.49568   0.78949   0.97607   0.00000  Uiso   1.00
C1363  C     0.00435   0.78949   0.69060   0.00000  Uiso   1.00
C1364  C     0.00545   0.71099   0.97632   0.00000  Uiso   1.00
C1365  C     0.24451   0.96100   0.69034   0.00000  Uiso   1.00
C1366  C     0.24566   0.53949   0.97607   0.00000  Uiso   1.00
C1367  C     0.25434   0.53949   0.69060   0.00000  Uiso   1.00
C1368  C     0.25548   0.96099   0.97632   0.00000  Uiso   1.00
C1369  C     0.37707   0.65818   0.79951   0.00000  Uiso   1.00
C1370  C     0.12177   0.84365   0.86915   0.00000  Uiso   1.00
C1371  C     0.09498   0.87626   0.79930   0.00000  Uiso   1.00
C1372  C     0.44083   0.80947   0.83345   0.00000  Uiso   1.00
C1373  C     0.40372   0.62599   0.86967   0.00000  Uiso   1.00
C1374  C     0.12292   0.65817   0.86717   0.00000  Uiso   1.00
C1375  C     0.37824   0.84365   0.79752   0.00000  Uiso   1.00
C1376  C     0.40502   0.87626   0.86737   0.00000  Uiso   1.00
C1377  C     0.09628   0.62599   0.79699   0.00000  Uiso   1.00
C1378  C     0.12707   0.90818   0.79951   0.00000  Uiso   1.00
C1379  C     0.37176   0.59365   0.86915   0.00000  Uiso   1.00
C1380  C     0.34497   0.62627   0.79930   0.00000  Uiso   1.00
C1381  C     0.15372   0.87599   0.86967   0.00000  Uiso   1.00
C1382  C     0.37293   0.90818   0.86716   0.00000  Uiso   1.00
C1383  C     0.44076   0.69076   0.83363   0.00000  Uiso   1.00
C1384  C     0.12823   0.59365   0.79752   0.00000  Uiso   1.00
C1385  C     0.15502   0.62626   0.86737   0.00000  Uiso   1.00
C1386  C     0.34628   0.87599   0.79699   0.00000  Uiso   1.00
C1387  C     0.09261   0.84330   0.83351   0.00000  Uiso   1.00
C1388  C     0.40685   0.65776   0.83430   0.00000  Uiso   1.00
C1389  C     0.40739   0.84330   0.83316   0.00000  Uiso   1.00
C1390  C     0.09314   0.65775   0.83237   0.00000  Uiso   1.00
C1391  C     0.34260   0.59330   0.83351   0.00000  Uiso   1.00
C1392  C     0.15686   0.90775   0.83429   0.00000  Uiso   1.00
C1393  C     0.15739   0.59330   0.83316   0.00000  Uiso   1.00
C1394  C     0.05917   0.80947   0.83321   0.00000  Uiso   1.00
C1395  C     0.34315   0.90776   0.83237   0.00000  Uiso   1.00
C1396  C     0.46454   0.67309   0.70468   0.00000  Uiso   1.00
C1397  C     0.48528   0.63430   0.73074   0.00000  Uiso   1.00
C1398  C     0.47635   0.83269   0.95734   0.00000  Uiso   1.00
C1399  C     0.00703   0.86272   0.92943   0.00000  Uiso   1.00
C1400  C     0.02368   0.83269   0.70934   0.00000  Uiso   1.00
C1401  C     0.49299   0.86271   0.73724   0.00000  Uiso   1.00
C1402  C     0.03529   0.67299   0.96197   0.00000  Uiso   1.00
C1403  C     0.01447   0.63426   0.93589   0.00000  Uiso   1.00
C1404  C     0.21462   0.92305   0.70469   0.00000  Uiso   1.00
C1405  C     0.30924   0.94076   0.83303   0.00000  Uiso   1.00
C1406  C     0.23539   0.88428   0.73076   0.00000  Uiso   1.00
C1407  C     0.22633   0.58269   0.95733   0.00000  Uiso   1.00
C1408  C     0.25702   0.61272   0.92943   0.00000  Uiso   1.00
C1409  C     0.27366   0.58269   0.70933   0.00000  Uiso   1.00
C1410  C     0.24298   0.61272   0.73724   0.00000  Uiso   1.00
C1411  C     0.28537   0.92304   0.96198   0.00000  Uiso   1.00
C1412  C     0.26459   0.88428   0.93591   0.00000  Uiso   1.00
C1413  C     0.19083   0.55947   0.83345   0.00000  Uiso   1.00
C1414  C     0.19076   0.94076   0.83363   0.00000  Uiso   1.00
C1415  C     0.30917   0.55948   0.83321   0.00000  Uiso   1.00
C1416  C     0.49449   0.71100   0.69034   0.00000  Uiso   1.00
Cu1417 Cu   -0.00000   0.75000   0.88022   0.00000  Uiso   1.00
Cu1418 Cu   -0.00000   0.75000   0.78645   0.00000  Uiso   1.00
Cu1419 Cu    0.25000   0.50000   0.88022   0.00000  Uiso   1.00
Cu1420 Cu    0.25000   0.50000   0.78645   0.00000  Uiso   1.00
H1421  H     0.37795   0.68382   0.77311   0.00000  Uiso   1.00
H1422  H     0.37007   0.56873   0.89626   0.00000  Uiso   1.00
H1423  H     0.32163   0.62860   0.77313   0.00000  Uiso   1.00
H1424  H     0.17617   0.87571   0.89724   0.00000  Uiso   1.00
H1425  H     0.37203   0.93381   0.89357   0.00000  Uiso   1.00
H1426  H     0.12993   0.56873   0.77040   0.00000  Uiso   1.00
H1427  H     0.17836   0.62859   0.89355   0.00000  Uiso   1.00
H1428  H     0.32384   0.87572   0.76943   0.00000  Uiso   1.00
H1429  H     0.00860   0.61601   0.70879   0.00000  Uiso   1.00
H1430  H     0.00141   0.64624   0.76151   0.00000  Uiso   1.00
H1431  H     0.46032   0.60979   0.74163   0.00000  Uiso   1.00
H1432  H     0.12007   0.81873   0.89626   0.00000  Uiso   1.00
H1433  H     0.43617   0.68703   0.72214   0.00000  Uiso   1.00
H1434  H     0.45004   0.65778   0.67399   0.00000  Uiso   1.00
H1435  H     0.04076   0.85406   0.93581   0.00000  Uiso   1.00
H1436  H     0.00087   0.86047   0.89247   0.00000  Uiso   1.00
H1437  H     0.00232   0.89880   0.93905   0.00000  Uiso   1.00
H1438  H     0.44580   0.82519   0.94149   0.00000  Uiso   1.00
H1439  H     0.46430   0.85410   0.98572   0.00000  Uiso   1.00
H1440  H     0.45926   0.85404   0.73085   0.00000  Uiso   1.00
H1441  H     0.49915   0.86046   0.77419   0.00000  Uiso   1.00
H1442  H     0.49768   0.89879   0.72761   0.00000  Uiso   1.00
H1443  H     0.07164   0.87859   0.77313   0.00000  Uiso   1.00
H1444  H     0.05422   0.82519   0.72518   0.00000  Uiso   1.00
H1445  H     0.03572   0.85410   0.68095   0.00000  Uiso   1.00
H1446  H     0.49088   0.61623   0.95770   0.00000  Uiso   1.00
H1447  H     0.49866   0.64619   0.90493   0.00000  Uiso   1.00
H1448  H     0.03933   0.60952   0.92530   0.00000  Uiso   1.00
H1449  H     0.06372   0.68683   0.94453   0.00000  Uiso   1.00
H1450  H     0.04973   0.65762   0.99267   0.00000  Uiso   1.00
H1451  H     0.25880   0.86608   0.70885   0.00000  Uiso   1.00
H1452  H     0.25141   0.89624   0.76159   0.00000  Uiso   1.00
H1453  H     0.21047   0.85970   0.74156   0.00000  Uiso   1.00
H1454  H     0.42616   0.62572   0.89724   0.00000  Uiso   1.00
H1455  H     0.18621   0.93694   0.72214   0.00000  Uiso   1.00
H1456  H     0.20014   0.90771   0.67399   0.00000  Uiso   1.00
H1457  H     0.29075   0.60405   0.93582   0.00000  Uiso   1.00
H1458  H     0.25086   0.61046   0.89247   0.00000  Uiso   1.00
H1459  H     0.25231   0.64879   0.93905   0.00000  Uiso   1.00
H1460  H     0.19579   0.57518   0.94149   0.00000  Uiso   1.00
H1461  H     0.21429   0.60410   0.98572   0.00000  Uiso   1.00
H1462  H     0.20924   0.60405   0.73086   0.00000  Uiso   1.00
H1463  H     0.24913   0.61047   0.77419   0.00000  Uiso   1.00
H1464  H     0.24767   0.64879   0.72761   0.00000  Uiso   1.00
H1465  H     0.12203   0.68381   0.89358   0.00000  Uiso   1.00
H1466  H     0.30421   0.57519   0.72518   0.00000  Uiso   1.00
H1467  H     0.28571   0.60410   0.68095   0.00000  Uiso   1.00
H1468  H     0.24116   0.86610   0.95780   0.00000  Uiso   1.00
H1469  H     0.24860   0.89623   0.90505   0.00000  Uiso   1.00
H1470  H     0.28951   0.85967   0.92513   0.00000  Uiso   1.00
H1471  H     0.31378   0.93693   0.94453   0.00000  Uiso   1.00
H1472  H     0.29984   0.90769   0.99267   0.00000  Uiso   1.00
H1473  H     0.37993   0.81873   0.77040   0.00000  Uiso   1.00
H1474  H     0.42836   0.87859   0.89354   0.00000  Uiso   1.00
H1475  H     0.07383   0.62571   0.76943   0.00000  Uiso   1.00
H1476  H     0.12796   0.93381   0.77310   0.00000  Uiso   1.00
N1477  N     0.00000   0.75000   0.95069   0.00000  Uiso   1.00
N1478  N    -0.00000   0.75000   0.71598   0.00000  Uiso   1.00
N1479  N     0.25000   0.50000   0.95069   0.00000  Uiso   1.00
N1480  N     0.25000   0.50000   0.71598   0.00000  Uiso   1.00
O1481  O     0.04508   0.70491   0.87291   0.00000  Uiso   1.00
O1482  O     0.20491   0.54509   0.79375   0.00000  Uiso   1.00
O1483  O     0.20491   0.54509   0.87291   0.00000  Uiso   1.00
O1484  O     0.29508   0.95491   0.79375   0.00000  Uiso   1.00
O1485  O     0.20491   0.95491   0.79375   0.00000  Uiso   1.00
O1486  O     0.29508   0.54509   0.87291   0.00000  Uiso   1.00
O1487  O     0.29508   0.54509   0.79375   0.00000  Uiso   1.00
O1488  O     0.20491   0.95491   0.87291   0.00000  Uiso   1.00
O1489  O     0.45491   0.79509   0.79375   0.00000  Uiso   1.00
O1490  O     0.45491   0.79509   0.87291   0.00000  Uiso   1.00
O1491  O     0.04508   0.70491   0.79375   0.00000  Uiso   1.00
O1492  O     0.45491   0.70491   0.79375   0.00000  Uiso   1.00
O1493  O     0.04508   0.79509   0.87291   0.00000  Uiso   1.00
O1494  O     0.04508   0.79509   0.79375   0.00000  Uiso   1.00
O1495  O     0.45491   0.70491   0.87291   0.00000  Uiso   1.00
O1496  O     0.29508   0.95491   0.87291   0.00000  Uiso   1.00
C1497  C     0.55924   0.69076   0.83303   0.00000  Uiso   1.00
C1498  C     0.99568   0.78949   0.97607   0.00000  Uiso   1.00
C1499  C     0.50435   0.78949   0.69060   0.00000  Uiso   1.00
C1500  C     0.50545   0.71099   0.97632   0.00000  Uiso   1.00
C1501  C     0.74451   0.96100   0.69034   0.00000  Uiso   1.00
C1502  C     0.74566   0.53949   0.97607   0.00000  Uiso   1.00
C1503  C     0.75434   0.53949   0.69060   0.00000  Uiso   1.00
C1504  C     0.75548   0.96099   0.97632   0.00000  Uiso   1.00
C1505  C     0.87707   0.65818   0.79951   0.00000  Uiso   1.00
C1506  C     0.62177   0.84365   0.86915   0.00000  Uiso   1.00
C1507  C     0.59498   0.87626   0.79930   0.00000  Uiso   1.00
C1508  C     0.94083   0.80947   0.83345   0.00000  Uiso   1.00
C1509  C     0.90372   0.62599   0.86967   0.00000  Uiso   1.00
C1510  C     0.62292   0.65817   0.86717   0.00000  Uiso   1.00
C1511  C     0.87824   0.84365   0.79752   0.00000  Uiso   1.00
C1512  C     0.90502   0.87626   0.86737   0.00000  Uiso   1.00
C1513  C     0.59628   0.62599   0.79699   0.00000  Uiso   1.00
C1514  C     0.62707   0.90818   0.79951   0.00000  Uiso   1.00
C1515  C     0.87176   0.59365   0.86915   0.00000  Uiso   1.00
C1516  C     0.84497   0.62627   0.79930   0.00000  Uiso   1.00
C1517  C     0.65372   0.87599   0.86967   0.00000  Uiso   1.00
C1518  C     0.87293   0.90818   0.86716   0.00000  Uiso   1.00
C1519  C     0.94076   0.69076   0.83363   0.00000  Uiso   1.00
C1520  C     0.62823   0.59365   0.79752   0.00000  Uiso   1.00
C1521  C     0.65502   0.62626   0.86737   0.00000  Uiso   1.00
C1522  C     0.84628   0.87599   0.79699   0.00000  Uiso   1.00
C1523  C     0.59261   0.84330   0.83351   0.00000  Uiso   1.00
C1524  C     0.90685   0.65776   0.83430   0.00000  Uiso   1.00
C1525  C     0.90739   0.84330   0.83316   0.00000  Uiso   1.00
C1526  C     0.59314   0.65775   0.83237   0.00000  Uiso   1.00
C1527  C     0.84260   0.59330   0.83351   0.00000  Uiso   1.00
C1528  C     0.65686   0.90775   0.83429   0.00000  Uiso   1.00
C1529  C     0.65739   0.59330   0.83316   0.00000  Uiso   1.00
C1530  C     0.55917   0.80947   0.83321   0.00000  Uiso   1.00
C1531  C     0.84315   0.90776   0.83237   0.00000  Uiso   1.00
C1532  C     0.96454   0.67309   0.70468   0.00000  Uiso   1.00
C1533  C     0.98528   0.63430   0.73074   0.00000  Uiso   1.00
C1534  C     0.97635   0.83269   0.95734   0.00000  Uiso   1.00
C1535  C     0.50703   0.86272   0.92943   0.00000  Uiso   1.00
C1536  C     0.52368   0.83269   0.70934   0.00000  Uiso   1.00
C1537  C     0.99299   0.86271   0.73724   0.00000  Uiso   1.00
C1538  C     0.53529   0.67299   0.96197   0.00000  Uiso   1.00
C1539  C     0.51447   0.63426   0.93589   0.00000  Uiso   1.00
C1540  C     0.71462   0.92305   0.70469   0.00000  Uiso   1.00
C1541  C     0.80924   0.94076   0.83303   0.00000  Uiso   1.00
C1542  C     0.73539   0.88428   0.73076   0.00000  Uiso   1.00
C1543  C     0.72633   0.58269   0.95733   0.00000  Uiso   1.00
C1544  C     0.75702   0.61272   0.92943   0.00000  Uiso   1.00
C1545  C     0.77366   0.58269   0.70933   0.00000  Uiso   1.00
C1546  C     0.74298   0.61272   0.73724   0.00000  Uiso   1.00
C1547  C     0.78537   0.92304   0.96198   0.00000  Uiso   1.00
C1548  C     0.76459   0.88428   0.93591   0.00000  Uiso   1.00
C1549  C     0.69083   0.55947   0.83345   0.00000  Uiso   1.00
C1550  C     0.69076   0.94076   0.83363   0.00000  Uiso   1.00
C1551  C     0.80917   0.55948   0.83321   0.00000  Uiso   1.00
C1552  C     0.99449   0.71100   0.69034   0.00000  Uiso   1.00
Cu1553 Cu    0.50000   0.75000   0.88022   0.00000  Uiso   1.00
Cu1554 Cu    0.50000   0.75000   0.78645   0.00000  Uiso   1.00
Cu1555 Cu    0.75000   0.50000   0.88022   0.00000  Uiso   1.00
Cu1556 Cu    0.75000   0.50000   0.78645   0.00000  Uiso   1.00
H1557  H     0.87795   0.68382   0.77311   0.00000  Uiso   1.00
H1558  H     0.87007   0.56873   0.89626   0.00000  Uiso   1.00
H1559  H     0.82163   0.62860   0.77313   0.00000  Uiso   1.00
H1560  H     0.67617   0.87571   0.89724   0.00000  Uiso   1.00
H1561  H     0.87203   0.93381   0.89357   0.00000  Uiso   1.00
H1562  H     0.62993   0.56873   0.77040   0.00000  Uiso   1.00
H1563  H     0.67836   0.62859   0.89355   0.00000  Uiso   1.00
H1564  H     0.82384   0.87572   0.76943   0.00000  Uiso   1.00
H1565  H     0.50860   0.61601   0.70879   0.00000  Uiso   1.00
H1566  H     0.50141   0.64624   0.76151   0.00000  Uiso   1.00
H1567  H     0.96032   0.60979   0.74163   0.00000  Uiso   1.00
H1568  H     0.62007   0.81873   0.89626   0.00000  Uiso   1.00
H1569  H     0.93617   0.68703   0.72214   0.00000  Uiso   1.00
H1570  H     0.95004   0.65778   0.67399   0.00000  Uiso   1.00
H1571  H     0.54076   0.85406   0.93581   0.00000  Uiso   1.00
H1572  H     0.50087   0.86047   0.89247   0.00000  Uiso   1.00
H1573  H     0.50232   0.89880   0.93905   0.00000  Uiso   1.00
H1574  H     0.94580   0.82519   0.94149   0.00000  Uiso   1.00
H1575  H     0.96430   0.85410   0.98572   0.00000  Uiso   1.00
H1576  H     0.95926   0.85404   0.73085   0.00000  Uiso   1.00
H1577  H     0.99915   0.86046   0.77419   0.00000  Uiso   1.00
H1578  H     0.99768   0.89879   0.72761   0.00000  Uiso   1.00
H1579  H     0.57164   0.87859   0.77313   0.00000  Uiso   1.00
H1580  H     0.55422   0.82519   0.72518   0.00000  Uiso   1.00
H1581  H     0.53572   0.85410   0.68095   0.00000  Uiso   1.00
H1582  H     0.99088   0.61623   0.95770   0.00000  Uiso   1.00
H1583  H     0.99866   0.64619   0.90493   0.00000  Uiso   1.00
H1584  H     0.53933   0.60952   0.92530   0.00000  Uiso   1.00
H1585  H     0.56372   0.68683   0.94453   0.00000  Uiso   1.00
H1586  H     0.54973   0.65762   0.99267   0.00000  Uiso   1.00
H1587  H     0.75880   0.86608   0.70885   0.00000  Uiso   1.00
H1588  H     0.75141   0.89624   0.76159   0.00000  Uiso   1.00
H1589  H     0.71047   0.85970   0.74156   0.00000  Uiso   1.00
H1590  H     0.92616   0.62572   0.89724   0.00000  Uiso   1.00
H1591  H     0.68621   0.93694   0.72214   0.00000  Uiso   1.00
H1592  H     0.70014   0.90771   0.67399   0.00000  Uiso   1.00
H1593  H     0.79075   0.60405   0.93582   0.00000  Uiso   1.00
H1594  H     0.75086   0.61046   0.89247   0.00000  Uiso   1.00
H1595  H     0.75231   0.64879   0.93905   0.00000  Uiso   1.00
H1596  H     0.69579   0.57518   0.94149   0.00000  Uiso   1.00
H1597  H     0.71429   0.60410   0.98572   0.00000  Uiso   1.00
H1598  H     0.70924   0.60405   0.73086   0.00000  Uiso   1.00
H1599  H     0.74913   0.61047   0.77419   0.00000  Uiso   1.00
H1600  H     0.74767   0.64879   0.72761   0.00000  Uiso   1.00
H1601  H     0.62203   0.68381   0.89358   0.00000  Uiso   1.00
H1602  H     0.80421   0.57519   0.72518   0.00000  Uiso   1.00
H1603  H     0.78571   0.60410   0.68095   0.00000  Uiso   1.00
H1604  H     0.74116   0.86610   0.95780   0.00000  Uiso   1.00
H1605  H     0.74860   0.89623   0.90505   0.00000  Uiso   1.00
H1606  H     0.78951   0.85967   0.92513   0.00000  Uiso   1.00
H1607  H     0.81378   0.93693   0.94453   0.00000  Uiso   1.00
H1608  H     0.79984   0.90769   0.99267   0.00000  Uiso   1.00
H1609  H     0.87993   0.81873   0.77040   0.00000  Uiso   1.00
H1610  H     0.92836   0.87859   0.89354   0.00000  Uiso   1.00
H1611  H     0.57383   0.62571   0.76943   0.00000  Uiso   1.00
H1612  H     0.62796   0.93381   0.77310   0.00000  Uiso   1.00
N1613  N     0.50000   0.75000   0.95069   0.00000  Uiso   1.00
N1614  N     0.50000   0.75000   0.71598   0.00000  Uiso   1.00
N1615  N     0.75000   0.50000   0.95069   0.00000  Uiso   1.00
N1616  N     0.75000   0.50000   0.71598   0.00000  Uiso   1.00
O1617  O     0.54508   0.70491   0.87291   0.00000  Uiso   1.00
O1618  O     0.70491   0.54509   0.79375   0.00000  Uiso   1.00
O1619  O     0.70491   0.54509   0.87291   0.00000  Uiso   1.00
O1620  O     0.79508   0.95491   0.79375   0.00000  Uiso   1.00
O1621  O     0.70491   0.95491   0.79375   0.00000  Uiso   1.00
O1622  O     0.79508   0.54509   0.87291   0.00000  Uiso   1.00
O1623  O     0.79508   0.54509   0.79375   0.00000  Uiso   1.00
O1624  O     0.70491   0.95491   0.87291   0.00000  Uiso   1.00
O1625  O     0.95491   0.79509   0.79375   0.00000  Uiso   1.00
O1626  O     0.95491   0.79509   0.87291   0.00000  Uiso   1.00
O1627  O     0.54508   0.70491   0.79375   0.00000  Uiso   1.00
O1628  O     0.95491   0.70491   0.79375   0.00000  Uiso   1.00
O1629  O     0.54508   0.79509   0.87291   0.00000  Uiso   1.00
O1630  O     0.54508   0.79509   0.79375   0.00000  Uiso   1.00
O1631  O     0.95491   0.70491   0.87291   0.00000  Uiso   1.00
O1632  O     0.79508   0.95491   0.87291   0.00000  Uiso   1.00
loop_
_geom_bond_atom_site_label_1
_geom_bond_atom_site_label_2
_geom_bond_distance
_geom_bond_site_symmetry_2
_ccdc_geom_bond_type
C1     O131    1.309   .     A
C1     C30     1.444   .     S
C1     O121    1.312   .     A
C2     C38     1.519   .     S
C2     C683    1.433   .     S
C2     N253    1.388   .     S
C3     C40     1.519   .     S
C3     C1226   1.433   1_454 S
C3     N118    1.388   .     S
C4     N117    1.387   .     A
C4     C42     1.518   .     S
C4     C736    1.424   1_455 S
C5     N392    1.387   .     A
C5     C44     1.518   .     S
C5     C1096   1.424   1_554 S
C6     C47     1.519   .     S
C6     C551    1.433   .     S
C6     N119    1.388   .     S
C7     C49     1.519   .     S
C7     C1094   1.433   1_554 S
C7     N120    1.388   .     S
C8     C51     1.518   .     S
C8     N391    1.387   .     A
C8     C549    1.424   .     S
C9     H61     1.083   .     S
C9     C20     1.381   .     A
C9     C28     1.396   .     A
C10    C27     1.401   .     A
C10    C21     1.387   .     A
C10    H72     1.084   .     S
C11    C18     1.381   .     A
C11    C27     1.398   .     A
C11    H83     1.072   .     S
C12    C29     1.450   .     S
C12    O130    1.315   .     A
C12    O129    1.309   .     A
C13    C28     1.400   .     A
C13    C19     1.387   .     A
C13    H94     1.081   .     S
C14    H105    1.083   .     S
C14    C30     1.396   .     A
C14    C25     1.381   .     A
C15    H113    1.084   .     S
C15    C29     1.401   .     A
C15    C26     1.387   .     A
C16    C22     1.381   .     A
C16    H114    1.072   .     S
C16    C29     1.398   .     A
C17    C30     1.400   .     A
C17    C24     1.387   .     A
C17    H115    1.081   .     S
C18    H116    1.083   .     S
C18    C32     1.396   .     A
C19    C31     1.401   .     A
C19    H62     1.084   .     S
C20    H63     1.072   .     S
C20    C31     1.398   .     A
C21    H64     1.081   .     S
C21    C32     1.400   .     A
C22    C35     1.396   .     A
C22    H65     1.083   .     S
C23    C28     1.444   .     S
C23    O135    1.309   .     A
C23    O132    1.312   .     A
C24    H66     1.084   .     S
C24    C33     1.401   .     A
C25    H67     1.072   .     S
C25    C33     1.398   .     A
C26    H68     1.081   .     S
C26    C35     1.400   .     A
C27    C34     1.450   .     S
C31    C55     1.450   .     S
C32    C54     1.444   .     S
C33    C53     1.450   .     S
C34    O134    1.315   .     A
C34    O133    1.309   .     A
C35    C45     1.444   .     S
C36    H74     1.111   .     S
C36    C37     1.529   .     S
C36    H73     1.101   .     S
C36    C56     1.518   .     S
C37    H71     1.110   .     S
C37    H205    1.108   .     S
C37    H206    1.100   .     S
C38    H79     1.107   .     S
C38    H78     1.096   .     S
C38    C175    1.536   .     S
C39    H77     1.111   .     S
C39    H76     1.105   .     S
C39    H75     1.110   .     S
C39    C174    1.536   1_455 S
C40    H84     1.096   .     S
C40    H85     1.107   .     S
C40    C177    1.536   1_455 S
C41    H80     1.110   .     S
C41    H81     1.105   .     S
C41    H82     1.111   .     S
C41    C176    1.536   .     S
C42    H90     1.111   .     S
C42    C43     1.529   .     S
C42    H89     1.101   .     S
C43    H88     1.110   .     S
C43    H222    1.108   1_455 S
C43    H223    1.100   1_455 S
C44    C46     1.529   .     S
C44    H96     1.111   .     S
C44    H95     1.101   .     S
C45    O124    1.309   .     A
C45    O136    1.312   .     A
C46    H92     1.100   .     S
C46    H91     1.108   .     S
C46    H93     1.110   .     S
C47    H101    1.107   .     S
C47    H100    1.096   .     S
C47    C48     1.536   .     S
C48    H97     1.110   .     S
C48    H99     1.111   .     S
C48    H98     1.105   .     S
C49    H107    1.107   .     S
C49    H106    1.096   .     S
C49    C50     1.536   .     S
C50    H104    1.111   .     S
C50    H103    1.105   .     S
C50    H102    1.110   .     S
C51    H112    1.111   .     S
C51    H111    1.101   .     S
C51    C52     1.529   .     S
C52    H110    1.110   .     S
C52    H109    1.100   .     S
C52    H108    1.108   .     S
C53    O122    1.309   .     A
C53    O123    1.315   .     A
C54    O125    1.312   .     A
C54    O128    1.309   .     A
C55    O126    1.309   .     A
C55    O127    1.315   .     A
C56    N254    1.387   .     A
C56    C1228   1.424   1_554 S
Cu57   O266    1.959   1_455 S
Cu57   Cu58    2.748   .     S
Cu57   O271    1.959   1_455 S
Cu57   N117    2.065   .     S
Cu57   O121    1.954   .     S
Cu57   O133    1.954   .     S
Cu58   N118    2.065   .     S
Cu58   O268    1.954   1_455 S
Cu58   O265    1.954   1_455 S
Cu58   O131    1.959   .     S
Cu58   O134    1.959   .     S
Cu59   N119    2.065   .     S
Cu59   O408    1.954   1_545 S
Cu59   O400    1.959   1_545 S
Cu59   Cu60    2.748   .     S
Cu59   O123    1.959   .     S
Cu59   O126    1.954   .     S
Cu60   O397    1.954   1_545 S
Cu60   O396    1.959   1_545 S
Cu60   N120    2.065   .     S
Cu60   O122    1.954   .     S
Cu60   O127    1.959   .     S
H69    C173    1.108   1_455 S
H70    C173    1.100   1_455 S
H86    C179    1.108   .     S
H87    C179    1.100   .     S
N117   C138    1.388   1_455 S
N118   C192    1.387   1_455 A
N119   C280    1.387   1_545 A
N120   C277    1.387   1_545 A
O124   Cu332   1.959   .     S
O125   Cu332   1.954   .     S
O128   Cu331   1.959   .     S
O129   Cu194   1.954   .     S
O130   Cu193   1.959   .     S
O132   Cu194   1.954   .     S
O135   Cu193   1.959   .     S
O136   Cu331   1.954   .     S
C137   O267    1.309   .     A
C137   C166    1.444   .     S
C137   O257    1.312   .     A
C138   C174    1.519   .     S
C138   C547    1.433   1_655 S
C138   N117    1.388   1_655 S
C139   C176    1.519   .     S
C139   C1090   1.433   1_554 S
C139   N254    1.388   .     S
C140   N253    1.387   .     A
C140   C178    1.518   .     S
C140   C600    1.424   .     S
C141   N528    1.387   .     A
C141   C180    1.518   .     S
C141   C1232   1.424   1_554 S
C142   C183    1.519   .     S
C142   C687    1.433   .     S
C142   N255    1.388   .     S
C143   C185    1.519   .     S
C143   C1230   1.433   1_554 S
C143   N256    1.388   .     S
C144   C187    1.518   .     S
C144   N527    1.387   .     A
C144   C685    1.424   .     S
C145   H197    1.083   .     S
C145   C156    1.381   .     A
C145   C164    1.396   .     A
C146   C163    1.401   .     A
C146   C157    1.387   .     A
C146   H208    1.084   .     S
C147   C154    1.381   .     A
C147   C163    1.398   .     A
C147   H219    1.072   .     S
C148   C165    1.450   .     S
C148   O266    1.315   .     A
C148   O265    1.309   .     A
C149   C164    1.400   .     A
C149   C155    1.387   .     A
C149   H230    1.081   .     S
C150   H241    1.083   .     S
C150   C166    1.396   .     A
C150   C161    1.381   .     A
C151   H249    1.084   .     S
C151   C165    1.401   .     A
C151   C162    1.387   .     A
C152   C158    1.381   .     A
C152   H250    1.072   .     S
C152   C165    1.398   .     A
C153   C166    1.400   .     A
C153   C160    1.387   .     A
C153   H251    1.081   .     S
C154   H252    1.083   .     S
C154   C168    1.396   .     A
C155   C167    1.401   .     A
C155   H198    1.084   .     S
C156   H199    1.072   .     S
C156   C167    1.398   .     A
C157   H200    1.081   .     S
C157   C168    1.400   .     A
C158   C171    1.396   .     A
C158   H201    1.083   .     S
C159   C164    1.444   .     S
C159   O271    1.309   .     A
C159   O268    1.312   .     A
C160   H202    1.084   .     S
C160   C169    1.401   .     A
C161   H203    1.072   .     S
C161   C169    1.398   .     A
C162   H204    1.081   .     S
C162   C171    1.400   .     A
C163   C170    1.450   .     S
C167   C191    1.450   .     S
C168   C190    1.444   .     S
C169   C189    1.450   .     S
C170   O270    1.315   .     A
C170   O269    1.309   .     A
C171   C181    1.444   .     S
C172   H210    1.111   .     S
C172   C173    1.529   .     S
C172   H209    1.101   .     S
C172   C192    1.518   .     S
C173   H207    1.110   .     S
C173   H69     1.108   1_655 S
C173   H70     1.100   1_655 S
C174   H215    1.107   .     S
C174   H214    1.096   .     S
C174   C39     1.536   1_655 S
C175   H213    1.111   .     S
C175   H212    1.105   .     S
C175   H211    1.110   .     S
C176   H220    1.096   .     S
C176   H221    1.107   .     S
C177   H216    1.110   .     S
C177   H217    1.105   .     S
C177   H218    1.111   .     S
C177   C40     1.536   1_655 S
C178   H226    1.111   .     S
C178   C179    1.529   .     S
C178   H225    1.101   .     S
C179   H224    1.110   .     S
C180   C182    1.529   .     S
C180   H232    1.111   .     S
C180   H231    1.101   .     S
C181   O260    1.309   .     A
C181   O272    1.312   .     A
C182   H228    1.100   .     S
C182   H227    1.108   .     S
C182   H229    1.110   .     S
C183   H237    1.107   .     S
C183   H236    1.096   .     S
C183   C184    1.536   .     S
C184   H233    1.110   .     S
C184   H235    1.111   .     S
C184   H234    1.105   .     S
C185   H243    1.107   .     S
C185   H242    1.096   .     S
C185   C186    1.536   .     S
C186   H240    1.111   .     S
C186   H239    1.105   .     S
C186   H238    1.110   .     S
C187   H248    1.111   .     S
C187   H247    1.101   .     S
C187   C188    1.529   .     S
C188   H246    1.110   .     S
C188   H245    1.100   .     S
C188   H244    1.108   .     S
C189   O258    1.309   .     A
C189   O259    1.315   .     A
C190   O261    1.312   .     A
C190   O264    1.309   .     A
C191   O262    1.309   .     A
C191   O263    1.315   .     A
C192   N118    1.387   1_655 A
C192   C1092   1.424   1_654 S
Cu193  Cu194   2.748   .     S
Cu193  N253    2.065   .     S
Cu193  O257    1.954   .     S
Cu193  O269    1.954   .     S
Cu194  N254    2.065   .     S
Cu194  O267    1.959   .     S
Cu194  O270    1.959   .     S
Cu195  N255    2.065   .     S
Cu195  O544    1.954   1_545 S
Cu195  O536    1.959   1_545 S
Cu195  Cu196   2.748   .     S
Cu195  O259    1.959   .     S
Cu195  O262    1.954   .     S
Cu196  O533    1.954   1_545 S
Cu196  O532    1.959   1_545 S
Cu196  N256    2.065   .     S
Cu196  O258    1.954   .     S
Cu196  O263    1.959   .     S
H222   C43     1.108   1_655 S
H223   C43     1.100   1_655 S
N255   C416    1.387   1_545 A
N256   C413    1.387   1_545 A
O260   Cu468   1.959   .     S
O261   Cu468   1.954   .     S
O264   Cu467   1.959   .     S
O265   Cu58    1.954   1_655 S
O266   Cu57    1.959   1_655 S
O268   Cu58    1.954   1_655 S
O271   Cu57    1.959   1_655 S
O272   Cu467   1.954   .     S
C273   O403    1.309   .     A
C273   C302    1.444   .     S
C273   O393    1.312   .     A
C274   C310    1.519   .     S
C274   C955    1.433   .     S
C274   N525    1.388   .     S
C275   C312    1.519   .     S
C275   C1498   1.433   1_454 S
C275   N390    1.388   .     S
C276   N389    1.387   .     A
C276   C314    1.518   .     S
C276   C1008   1.424   1_455 S
C277   N120    1.387   1_565 A
C277   C316    1.518   .     S
C277   C1368   1.424   1_554 S
C278   C319    1.519   .     S
C278   C823    1.433   .     S
C278   N391    1.388   .     S
C279   C321    1.519   .     S
C279   C1366   1.433   1_554 S
C279   N392    1.388   .     S
C280   C323    1.518   .     S
C280   N119    1.387   1_565 A
C280   C821    1.424   .     S
C281   H333    1.083   .     S
C281   C292    1.381   .     A
C281   C300    1.396   .     A
C282   C299    1.401   .     A
C282   C293    1.387   .     A
C282   H344    1.084   .     S
C283   C290    1.381   .     A
C283   C299    1.398   .     A
C283   H355    1.072   .     S
C284   C301    1.450   .     S
C284   O402    1.315   .     A
C284   O401    1.309   .     A
C285   C300    1.400   .     A
C285   C291    1.387   .     A
C285   H366    1.081   .     S
C286   H377    1.083   .     S
C286   C302    1.396   .     A
C286   C297    1.381   .     A
C287   H385    1.084   .     S
C287   C301    1.401   .     A
C287   C298    1.387   .     A
C288   C294    1.381   .     A
C288   H386    1.072   .     S
C288   C301    1.398   .     A
C289   C302    1.400   .     A
C289   C296    1.387   .     A
C289   H387    1.081   .     S
C290   H388    1.083   .     S
C290   C304    1.396   .     A
C291   C303    1.401   .     A
C291   H334    1.084   .     S
C292   H335    1.072   .     S
C292   C303    1.398   .     A
C293   H336    1.081   .     S
C293   C304    1.400   .     A
C294   C307    1.396   .     A
C294   H337    1.083   .     S
C295   C300    1.444   .     S
C295   O407    1.309   .     A
C295   O404    1.312   .     A
C296   H338    1.084   .     S
C296   C305    1.401   .     A
C297   H339    1.072   .     S
C297   C305    1.398   .     A
C298   H340    1.081   .     S
C298   C307    1.400   .     A
C299   C306    1.450   .     S
C303   C327    1.450   .     S
C304   C326    1.444   .     S
C305   C325    1.450   .     S
C306   O406    1.315   .     A
C306   O405    1.309   .     A
C307   C317    1.444   .     S
C308   H346    1.111   .     S
C308   C309    1.529   .     S
C308   H345    1.101   .     S
C308   C328    1.518   .     S
C309   H343    1.110   .     S
C309   H477    1.108   .     S
C309   H478    1.100   .     S
C310   H351    1.107   .     S
C310   H350    1.096   .     S
C310   C447    1.536   .     S
C311   H349    1.111   .     S
C311   H348    1.105   .     S
C311   H347    1.110   .     S
C311   C446    1.536   1_455 S
C312   H356    1.096   .     S
C312   H357    1.107   .     S
C312   C449    1.536   1_455 S
C313   H352    1.110   .     S
C313   H353    1.105   .     S
C313   H354    1.111   .     S
C313   C448    1.536   .     S
C314   H362    1.111   .     S
C314   C315    1.529   .     S
C314   H361    1.101   .     S
C315   H360    1.110   .     S
C315   H494    1.108   1_455 S
C315   H495    1.100   1_455 S
C316   C318    1.529   .     S
C316   H368    1.111   .     S
C316   H367    1.101   .     S
C317   O396    1.309   .     A
C317   O408    1.312   .     A
C318   H364    1.100   .     S
C318   H363    1.108   .     S
C318   H365    1.110   .     S
C319   H373    1.107   .     S
C319   H372    1.096   .     S
C319   C320    1.536   .     S
C320   H369    1.110   .     S
C320   H371    1.111   .     S
C320   H370    1.105   .     S
C321   H379    1.107   .     S
C321   H378    1.096   .     S
C321   C322    1.536   .     S
C322   H376    1.111   .     S
C322   H375    1.105   .     S
C322   H374    1.110   .     S
C323   H384    1.111   .     S
C323   H383    1.101   .     S
C323   C324    1.529   .     S
C324   H382    1.110   .     S
C324   H381    1.100   .     S
C324   H380    1.108   .     S
C325   O394    1.309   .     A
C325   O395    1.315   .     A
C326   O397    1.312   .     A
C326   O400    1.309   .     A
C327   O398    1.309   .     A
C327   O399    1.315   .     A
C328   N526    1.387   .     A
C328   C1500   1.424   1_554 S
Cu329  O538    1.959   1_455 S
Cu329  Cu330   2.748   .     S
Cu329  O543    1.959   1_455 S
Cu329  N389    2.065   .     S
Cu329  O393    1.954   .     S
Cu329  O405    1.954   .     S
Cu330  N390    2.065   .     S
Cu330  O540    1.954   1_455 S
Cu330  O537    1.954   1_455 S
Cu330  O403    1.959   .     S
Cu330  O406    1.959   .     S
Cu331  N391    2.065   .     S
Cu331  Cu332   2.748   .     S
Cu331  O395    1.959   .     S
Cu331  O398    1.954   .     S
Cu332  N392    2.065   .     S
Cu332  O394    1.954   .     S
Cu332  O399    1.959   .     S
H341   C445    1.108   1_455 S
H342   C445    1.100   1_455 S
H358   C451    1.108   .     S
H359   C451    1.100   .     S
N389   C410    1.388   1_455 S
N390   C464    1.387   1_455 A
O396   Cu60    1.959   1_565 S
O397   Cu60    1.954   1_565 S
O400   Cu59    1.959   1_565 S
O401   Cu466   1.954   .     S
O402   Cu465   1.959   .     S
O404   Cu466   1.954   .     S
O407   Cu465   1.959   .     S
O408   Cu59    1.954   1_565 S
C409   O539    1.309   .     A
C409   C438    1.444   .     S
C409   O529    1.312   .     A
C410   C446    1.519   .     S
C410   C819    1.433   1_655 S
C410   N389    1.388   1_655 S
C411   C448    1.519   .     S
C411   C1362   1.433   1_554 S
C411   N526    1.388   .     S
C412   N525    1.387   .     A
C412   C450    1.518   .     S
C412   C872    1.424   .     S
C413   N256    1.387   1_565 A
C413   C452    1.518   .     S
C413   C1504   1.424   1_554 S
C414   C455    1.519   .     S
C414   C959    1.433   .     S
C414   N527    1.388   .     S
C415   C457    1.519   .     S
C415   C1502   1.433   1_554 S
C415   N528    1.388   .     S
C416   C459    1.518   .     S
C416   N255    1.387   1_565 A
C416   C957    1.424   .     S
C417   H469    1.083   .     S
C417   C428    1.381   .     A
C417   C436    1.396   .     A
C418   C435    1.401   .     A
C418   C429    1.387   .     A
C418   H480    1.084   .     S
C419   C426    1.381   .     A
C419   C435    1.398   .     A
C419   H491    1.072   .     S
C420   C437    1.450   .     S
C420   O538    1.315   .     A
C420   O537    1.309   .     A
C421   C436    1.400   .     A
C421   C427    1.387   .     A
C421   H502    1.081   .     S
C422   H513    1.083   .     S
C422   C438    1.396   .     A
C422   C433    1.381   .     A
C423   H521    1.084   .     S
C423   C437    1.401   .     A
C423   C434    1.387   .     A
C424   C430    1.381   .     A
C424   H522    1.072   .     S
C424   C437    1.398   .     A
C425   C438    1.400   .     A
C425   C432    1.387   .     A
C425   H523    1.081   .     S
C426   H524    1.083   .     S
C426   C440    1.396   .     A
C427   C439    1.401   .     A
C427   H470    1.084   .     S
C428   H471    1.072   .     S
C428   C439    1.398   .     A
C429   H472    1.081   .     S
C429   C440    1.400   .     A
C430   C443    1.396   .     A
C430   H473    1.083   .     S
C431   C436    1.444   .     S
C431   O543    1.309   .     A
C431   O540    1.312   .     A
C432   H474    1.084   .     S
C432   C441    1.401   .     A
C433   H475    1.072   .     S
C433   C441    1.398   .     A
C434   H476    1.081   .     S
C434   C443    1.400   .     A
C435   C442    1.450   .     S
C439   C463    1.450   .     S
C440   C462    1.444   .     S
C441   C461    1.450   .     S
C442   O542    1.315   .     A
C442   O541    1.309   .     A
C443   C453    1.444   .     S
C444   H482    1.111   .     S
C444   C445    1.529   .     S
C444   H481    1.101   .     S
C444   C464    1.518   .     S
C445   H479    1.110   .     S
C445   H341    1.108   1_655 S
C445   H342    1.100   1_655 S
C446   H487    1.107   .     S
C446   H486    1.096   .     S
C446   C311    1.536   1_655 S
C447   H485    1.111   .     S
C447   H484    1.105   .     S
C447   H483    1.110   .     S
C448   H492    1.096   .     S
C448   H493    1.107   .     S
C449   H488    1.110   .     S
C449   H489    1.105   .     S
C449   H490    1.111   .     S
C449   C312    1.536   1_655 S
C450   H498    1.111   .     S
C450   C451    1.529   .     S
C450   H497    1.101   .     S
C451   H496    1.110   .     S
C452   C454    1.529   .     S
C452   H504    1.111   .     S
C452   H503    1.101   .     S
C453   O532    1.309   .     A
C453   O544    1.312   .     A
C454   H500    1.100   .     S
C454   H499    1.108   .     S
C454   H501    1.110   .     S
C455   H509    1.107   .     S
C455   H508    1.096   .     S
C455   C456    1.536   .     S
C456   H505    1.110   .     S
C456   H507    1.111   .     S
C456   H506    1.105   .     S
C457   H515    1.107   .     S
C457   H514    1.096   .     S
C457   C458    1.536   .     S
C458   H512    1.111   .     S
C458   H511    1.105   .     S
C458   H510    1.110   .     S
C459   H520    1.111   .     S
C459   H519    1.101   .     S
C459   C460    1.529   .     S
C460   H518    1.110   .     S
C460   H517    1.100   .     S
C460   H516    1.108   .     S
C461   O530    1.309   .     A
C461   O531    1.315   .     A
C462   O533    1.312   .     A
C462   O536    1.309   .     A
C463   O534    1.309   .     A
C463   O535    1.315   .     A
C464   N390    1.387   1_655 A
C464   C1364   1.424   1_654 S
Cu465  Cu466   2.748   .     S
Cu465  N525    2.065   .     S
Cu465  O529    1.954   .     S
Cu465  O541    1.954   .     S
Cu466  N526    2.065   .     S
Cu466  O539    1.959   .     S
Cu466  O542    1.959   .     S
Cu467  N527    2.065   .     S
Cu467  Cu468   2.748   .     S
Cu467  O531    1.959   .     S
Cu467  O534    1.954   .     S
Cu468  N528    2.065   .     S
Cu468  O530    1.954   .     S
Cu468  O535    1.959   .     S
H494   C315    1.108   1_655 S
H495   C315    1.100   1_655 S
O532   Cu196   1.959   1_565 S
O533   Cu196   1.954   1_565 S
O536   Cu195   1.959   1_565 S
O537   Cu330   1.954   1_655 S
O538   Cu329   1.959   1_655 S
O540   Cu330   1.954   1_655 S
O543   Cu329   1.959   1_655 S
O544   Cu195   1.954   1_565 S
C545   O675    1.309   .     A
C545   C574    1.444   .     S
C545   O665    1.312   .     A
C546   C582    1.519   .     S
C546   C1227   1.433   .     S
C546   N797    1.388   .     S
C547   C584    1.519   .     S
C547   C138    1.433   1_455 S
C547   N662    1.388   .     S
C548   N661    1.387   .     A
C548   C586    1.518   .     S
C548   C1280   1.424   1_455 S
C549   N936    1.387   .     A
C549   C588    1.518   .     S
C550   C591    1.519   .     S
C550   C1095   1.433   .     S
C550   N663    1.388   .     S
C551   C593    1.519   .     S
C551   N664    1.388   .     S
C552   C595    1.518   .     S
C552   N935    1.387   .     A
C552   C1093   1.424   .     S
C553   H605    1.083   .     S
C553   C564    1.381   .     A
C553   C572    1.396   .     A
C554   C571    1.401   .     A
C554   C565    1.387   .     A
C554   H616    1.084   .     S
C555   C562    1.381   .     A
C555   C571    1.398   .     A
C555   H627    1.072   .     S
C556   C573    1.450   .     S
C556   O674    1.315   .     A
C556   O673    1.309   .     A
C557   C572    1.400   .     A
C557   C563    1.387   .     A
C557   H638    1.081   .     S
C558   H649    1.083   .     S
C558   C574    1.396   .     A
C558   C569    1.381   .     A
C559   H657    1.084   .     S
C559   C573    1.401   .     A
C559   C570    1.387   .     A
C560   C566    1.381   .     A
C560   H658    1.072   .     S
C560   C573    1.398   .     A
C561   C574    1.400   .     A
C561   C568    1.387   .     A
C561   H659    1.081   .     S
C562   H660    1.083   .     S
C562   C576    1.396   .     A
C563   C575    1.401   .     A
C563   H606    1.084   .     S
C564   H607    1.072   .     S
C564   C575    1.398   .     A
C565   H608    1.081   .     S
C565   C576    1.400   .     A
C566   C579    1.396   .     A
C566   H609    1.083   .     S
C567   C572    1.444   .     S
C567   O679    1.309   .     A
C567   O676    1.312   .     A
C568   H610    1.084   .     S
C568   C577    1.401   .     A
C569   H611    1.072   .     S
C569   C577    1.398   .     A
C570   H612    1.081   .     S
C570   C579    1.400   .     A
C571   C578    1.450   .     S
C575   C599    1.450   .     S
C576   C598    1.444   .     S
C577   C597    1.450   .     S
C578   O678    1.315   .     A
C578   O677    1.309   .     A
C579   C589    1.444   .     S
C580   H618    1.111   .     S
C580   C581    1.529   .     S
C580   H617    1.101   .     S
C580   C600    1.518   .     S
C581   H615    1.110   .     S
C581   H749    1.108   .     S
C581   H750    1.100   .     S
C582   H623    1.107   .     S
C582   H622    1.096   .     S
C582   C719    1.536   .     S
C583   H621    1.111   .     S
C583   H620    1.105   .     S
C583   H619    1.110   .     S
C583   C718    1.536   1_455 S
C584   H628    1.096   .     S
C584   H629    1.107   .     S
C584   C721    1.536   1_455 S
C585   H624    1.110   .     S
C585   H625    1.105   .     S
C585   H626    1.111   .     S
C585   C720    1.536   .     S
C586   H634    1.111   .     S
C586   C587    1.529   .     S
C586   H633    1.101   .     S
C587   H632    1.110   .     S
C587   H766    1.108   1_455 S
C587   H767    1.100   1_455 S
C588   C590    1.529   .     S
C588   H640    1.111   .     S
C588   H639    1.101   .     S
C589   O668    1.309   .     A
C589   O680    1.312   .     A
C590   H636    1.100   .     S
C590   H635    1.108   .     S
C590   H637    1.110   .     S
C591   H645    1.107   .     S
C591   H644    1.096   .     S
C591   C592    1.536   .     S
C592   H641    1.110   .     S
C592   H643    1.111   .     S
C592   H642    1.105   .     S
C593   H651    1.107   .     S
C593   H650    1.096   .     S
C593   C594    1.536   .     S
C594   H648    1.111   .     S
C594   H647    1.105   .     S
C594   H646    1.110   .     S
C595   H656    1.111   .     S
C595   H655    1.101   .     S
C595   C596    1.529   .     S
C596   H654    1.110   .     S
C596   H653    1.100   .     S
C596   H652    1.108   .     S
C597   O666    1.309   .     A
C597   O667    1.315   .     A
C598   O669    1.312   .     A
C598   O672    1.309   .     A
C599   O670    1.309   .     A
C599   O671    1.315   .     A
C600   N798    1.387   .     A
Cu601  O810    1.959   1_455 S
Cu601  Cu602   2.748   .     S
Cu601  O815    1.959   1_455 S
Cu601  N661    2.065   .     S
Cu601  O665    1.954   .     S
Cu601  O677    1.954   .     S
Cu602  N662    2.065   .     S
Cu602  O812    1.954   1_455 S
Cu602  O809    1.954   1_455 S
Cu602  O675    1.959   .     S
Cu602  O678    1.959   .     S
Cu603  N663    2.065   .     S
Cu603  O952    1.954   1_545 S
Cu603  O944    1.959   1_545 S
Cu603  Cu604   2.748   .     S
Cu603  O667    1.959   .     S
Cu603  O670    1.954   .     S
Cu604  O941    1.954   1_545 S
Cu604  O940    1.959   1_545 S
Cu604  N664    2.065   .     S
Cu604  O666    1.954   .     S
Cu604  O671    1.959   .     S
H613   C717    1.108   1_455 S
H614   C717    1.100   1_455 S
H630   C723    1.108   .     S
H631   C723    1.100   .     S
N661   C682    1.388   1_455 S
N662   C736    1.387   1_455 A
N663   C824    1.387   1_545 A
N664   C821    1.387   1_545 A
O668   Cu876   1.959   .     S
O669   Cu876   1.954   .     S
O672   Cu875   1.959   .     S
O673   Cu738   1.954   .     S
O674   Cu737   1.959   .     S
O676   Cu738   1.954   .     S
O679   Cu737   1.959   .     S
O680   Cu875   1.954   .     S
C681   O811    1.309   .     A
C681   C710    1.444   .     S
C681   O801    1.312   .     A
C682   C718    1.519   .     S
C682   C1091   1.433   1_655 S
C682   N661    1.388   1_655 S
C683   C720    1.519   .     S
C683   N798    1.388   .     S
C684   N797    1.387   .     A
C684   C722    1.518   .     S
C684   C1144   1.424   .     S
C685   N1072   1.387   .     A
C685   C724    1.518   .     S
C686   C727    1.519   .     S
C686   C1231   1.433   .     S
C686   N799    1.388   .     S
C687   C729    1.519   .     S
C687   N800    1.388   .     S
C688   C731    1.518   .     S
C688   N1071   1.387   .     A
C688   C1229   1.424   .     S
C689   H741    1.083   .     S
C689   C700    1.381   .     A
C689   C708    1.396   .     A
C690   C707    1.401   .     A
C690   C701    1.387   .     A
C690   H752    1.084   .     S
C691   C698    1.381   .     A
C691   C707    1.398   .     A
C691   H763    1.072   .     S
C692   C709    1.450   .     S
C692   O810    1.315   .     A
C692   O809    1.309   .     A
C693   C708    1.400   .     A
C693   C699    1.387   .     A
C693   H774    1.081   .     S
C694   H785    1.083   .     S
C694   C710    1.396   .     A
C694   C705    1.381   .     A
C695   H793    1.084   .     S
C695   C709    1.401   .     A
C695   C706    1.387   .     A
C696   C702    1.381   .     A
C696   H794    1.072   .     S
C696   C709    1.398   .     A
C697   C710    1.400   .     A
C697   C704    1.387   .     A
C697   H795    1.081   .     S
C698   H796    1.083   .     S
C698   C712    1.396   .     A
C699   C711    1.401   .     A
C699   H742    1.084   .     S
C700   H743    1.072   .     S
C700   C711    1.398   .     A
C701   H744    1.081   .     S
C701   C712    1.400   .     A
C702   C715    1.396   .     A
C702   H745    1.083   .     S
C703   C708    1.444   .     S
C703   O815    1.309   .     A
C703   O812    1.312   .     A
C704   H746    1.084   .     S
C704   C713    1.401   .     A
C705   H747    1.072   .     S
C705   C713    1.398   .     A
C706   H748    1.081   .     S
C706   C715    1.400   .     A
C707   C714    1.450   .     S
C711   C735    1.450   .     S
C712   C734    1.444   .     S
C713   C733    1.450   .     S
C714   O814    1.315   .     A
C714   O813    1.309   .     A
C715   C725    1.444   .     S
C716   H754    1.111   .     S
C716   C717    1.529   .     S
C716   H753    1.101   .     S
C716   C736    1.518   .     S
C717   H751    1.110   .     S
C717   H613    1.108   1_655 S
C717   H614    1.100   1_655 S
C718   H759    1.107   .     S
C718   H758    1.096   .     S
C718   C583    1.536   1_655 S
C719   H757    1.111   .     S
C719   H756    1.105   .     S
C719   H755    1.110   .     S
C720   H764    1.096   .     S
C720   H765    1.107   .     S
C721   H760    1.110   .     S
C721   H761    1.105   .     S
C721   H762    1.111   .     S
C721   C584    1.536   1_655 S
C722   H770    1.111   .     S
C722   C723    1.529   .     S
C722   H769    1.101   .     S
C723   H768    1.110   .     S
C724   C726    1.529   .     S
C724   H776    1.111   .     S
C724   H775    1.101   .     S
C725   O804    1.309   .     A
C725   O816    1.312   .     A
C726   H772    1.100   .     S
C726   H771    1.108   .     S
C726   H773    1.110   .     S
C727   H781    1.107   .     S
C727   H780    1.096   .     S
C727   C728    1.536   .     S
C728   H777    1.110   .     S
C728   H779    1.111   .     S
C728   H778    1.105   .     S
C729   H787    1.107   .     S
C729   H786    1.096   .     S
C729   C730    1.536   .     S
C730   H784    1.111   .     S
C730   H783    1.105   .     S
C730   H782    1.110   .     S
C731   H792    1.111   .     S
C731   H791    1.101   .     S
C731   C732    1.529   .     S
C732   H790    1.110   .     S
C732   H789    1.100   .     S
C732   H788    1.108   .     S
C733   O802    1.309   .     A
C733   O803    1.315   .     A
C734   O805    1.312   .     A
C734   O808    1.309   .     A
C735   O806    1.309   .     A
C735   O807    1.315   .     A
C736   N662    1.387   1_655 A
C736   C4      1.424   1_655 S
Cu737  Cu738   2.748   .     S
Cu737  N797    2.065   .     S
Cu737  O801    1.954   .     S
Cu737  O813    1.954   .     S
Cu738  N798    2.065   .     S
Cu738  O811    1.959   .     S
Cu738  O814    1.959   .     S
Cu739  N799    2.065   .     S
Cu739  O1088   1.954   1_545 S
Cu739  O1080   1.959   1_545 S
Cu739  Cu740   2.748   .     S
Cu739  O803    1.959   .     S
Cu739  O806    1.954   .     S
Cu740  O1077   1.954   1_545 S
Cu740  O1076   1.959   1_545 S
Cu740  N800    2.065   .     S
Cu740  O802    1.954   .     S
Cu740  O807    1.959   .     S
H766   C587    1.108   1_655 S
H767   C587    1.100   1_655 S
N799   C960    1.387   1_545 A
N800   C957    1.387   1_545 A
O804   Cu1012  1.959   .     S
O805   Cu1012  1.954   .     S
O808   Cu1011  1.959   .     S
O809   Cu602   1.954   1_655 S
O810   Cu601   1.959   1_655 S
O812   Cu602   1.954   1_655 S
O815   Cu601   1.959   1_655 S
O816   Cu1011  1.954   .     S
C817   O947    1.309   .     A
C817   C846    1.444   .     S
C817   O937    1.312   .     A
C818   C854    1.519   .     S
C818   C1499   1.433   .     S
C818   N1069   1.388   .     S
C819   C856    1.519   .     S
C819   C410    1.433   1_455 S
C819   N934    1.388   .     S
C820   N933    1.387   .     A
C820   C858    1.518   .     S
C820   C1552   1.424   1_455 S
C821   N664    1.387   1_565 A
C821   C860    1.518   .     S
C822   C863    1.519   .     S
C822   C1367   1.433   .     S
C822   N935    1.388   .     S
C823   C865    1.519   .     S
C823   N936    1.388   .     S
C824   C867    1.518   .     S
C824   N663    1.387   1_565 A
C824   C1365   1.424   .     S
C825   H877    1.083   .     S
C825   C836    1.381   .     A
C825   C844    1.396   .     A
C826   C843    1.401   .     A
C826   C837    1.387   .     A
C826   H888    1.084   .     S
C827   C834    1.381   .     A
C827   C843    1.398   .     A
C827   H899    1.072   .     S
C828   C845    1.450   .     S
C828   O946    1.315   .     A
C828   O945    1.309   .     A
C829   C844    1.400   .     A
C829   C835    1.387   .     A
C829   H910    1.081   .     S
C830   H921    1.083   .     S
C830   C846    1.396   .     A
C830   C841    1.381   .     A
C831   H929    1.084   .     S
C831   C845    1.401   .     A
C831   C842    1.387   .     A
C832   C838    1.381   .     A
C832   H930    1.072   .     S
C832   C845    1.398   .     A
C833   C846    1.400   .     A
C833   C840    1.387   .     A
C833   H931    1.081   .     S
C834   H932    1.083   .     S
C834   C848    1.396   .     A
C835   C847    1.401   .     A
C835   H878    1.084   .     S
C836   H879    1.072   .     S
C836   C847    1.398   .     A
C837   H880    1.081   .     S
C837   C848    1.400   .     A
C838   C851    1.396   .     A
C838   H881    1.083   .     S
C839   C844    1.444   .     S
C839   O951    1.309   .     A
C839   O948    1.312   .     A
C840   H882    1.084   .     S
C840   C849    1.401   .     A
C841   H883    1.072   .     S
C841   C849    1.398   .     A
C842   H884    1.081   .     S
C842   C851    1.400   .     A
C843   C850    1.450   .     S
C847   C871    1.450   .     S
C848   C870    1.444   .     S
C849   C869    1.450   .     S
C850   O950    1.315   .     A
C850   O949    1.309   .     A
C851   C861    1.444   .     S
C852   H890    1.111   .     S
C852   C853    1.529   .     S
C852   H889    1.101   .     S
C852   C872    1.518   .     S
C853   H887    1.110   .     S
C853   H1021   1.108   .     S
C853   H1022   1.100   .     S
C854   H895    1.107   .     S
C854   H894    1.096   .     S
C854   C991    1.536   .     S
C855   H893    1.111   .     S
C855   H892    1.105   .     S
C855   H891    1.110   .     S
C855   C990    1.536   1_455 S
C856   H900    1.096   .     S
C856   H901    1.107   .     S
C856   C993    1.536   1_455 S
C857   H896    1.110   .     S
C857   H897    1.105   .     S
C857   H898    1.111   .     S
C857   C992    1.536   .     S
C858   H906    1.111   .     S
C858   C859    1.529   .     S
C858   H905    1.101   .     S
C859   H904    1.110   .     S
C859   H1038   1.108   1_455 S
C859   H1039   1.100   1_455 S
C860   C862    1.529   .     S
C860   H912    1.111   .     S
C860   H911    1.101   .     S
C861   O940    1.309   .     A
C861   O952    1.312   .     A
C862   H908    1.100   .     S
C862   H907    1.108   .     S
C862   H909    1.110   .     S
C863   H917    1.107   .     S
C863   H916    1.096   .     S
C863   C864    1.536   .     S
C864   H913    1.110   .     S
C864   H915    1.111   .     S
C864   H914    1.105   .     S
C865   H923    1.107   .     S
C865   H922    1.096   .     S
C865   C866    1.536   .     S
C866   H920    1.111   .     S
C866   H919    1.105   .     S
C866   H918    1.110   .     S
C867   H928    1.111   .     S
C867   H927    1.101   .     S
C867   C868    1.529   .     S
C868   H926    1.110   .     S
C868   H925    1.100   .     S
C868   H924    1.108   .     S
C869   O938    1.309   .     A
C869   O939    1.315   .     A
C870   O941    1.312   .     A
C870   O944    1.309   .     A
C871   O942    1.309   .     A
C871   O943    1.315   .     A
C872   N1070   1.387   .     A
Cu873  O1082   1.959   1_455 S
Cu873  Cu874   2.748   .     S
Cu873  O1087   1.959   1_455 S
Cu873  N933    2.065   .     S
Cu873  O937    1.954   .     S
Cu873  O949    1.954   .     S
Cu874  N934    2.065   .     S
Cu874  O1084   1.954   1_455 S
Cu874  O1081   1.954   1_455 S
Cu874  O947    1.959   .     S
Cu874  O950    1.959   .     S
Cu875  N935    2.065   .     S
Cu875  Cu876   2.748   .     S
Cu875  O939    1.959   .     S
Cu875  O942    1.954   .     S
Cu876  N936    2.065   .     S
Cu876  O938    1.954   .     S
Cu876  O943    1.959   .     S
H885   C989    1.108   1_455 S
H886   C989    1.100   1_455 S
H902   C995    1.108   .     S
H903   C995    1.100   .     S
N933   C954    1.388   1_455 S
N934   C1008   1.387   1_455 A
O940   Cu604   1.959   1_565 S
O941   Cu604   1.954   1_565 S
O944   Cu603   1.959   1_565 S
O945   Cu1010  1.954   .     S
O946   Cu1009  1.959   .     S
O948   Cu1010  1.954   .     S
O951   Cu1009  1.959   .     S
O952   Cu603   1.954   1_565 S
C953   O1083   1.309   .     A
C953   C982    1.444   .     S
C953   O1073   1.312   .     A
C954   C990    1.519   .     S
C954   C1363   1.433   1_655 S
C954   N933    1.388   1_655 S
C955   C992    1.519   .     S
C955   N1070   1.388   .     S
C956   N1069   1.387   .     A
C956   C994    1.518   .     S
C956   C1416   1.424   .     S
C957   N800    1.387   1_565 A
C957   C996    1.518   .     S
C958   C999    1.519   .     S
C958   C1503   1.433   .     S
C958   N1071   1.388   .     S
C959   C1001   1.519   .     S
C959   N1072   1.388   .     S
C960   C1003   1.518   .     S
C960   N799    1.387   1_565 A
C960   C1501   1.424   .     S
C961   H1013   1.083   .     S
C961   C972    1.381   .     A
C961   C980    1.396   .     A
C962   C979    1.401   .     A
C962   C973    1.387   .     A
C962   H1024   1.084   .     S
C963   C970    1.381   .     A
C963   C979    1.398   .     A
C963   H1035   1.072   .     S
C964   C981    1.450   .     S
C964   O1082   1.315   .     A
C964   O1081   1.309   .     A
C965   C980    1.400   .     A
C965   C971    1.387   .     A
C965   H1046   1.081   .     S
C966   H1057   1.083   .     S
C966   C982    1.396   .     A
C966   C977    1.381   .     A
C967   H1065   1.084   .     S
C967   C981    1.401   .     A
C967   C978    1.387   .     A
C968   C974    1.381   .     A
C968   H1066   1.072   .     S
C968   C981    1.398   .     A
C969   C982    1.400   .     A
C969   C976    1.387   .     A
C969   H1067   1.081   .     S
C970   H1068   1.083   .     S
C970   C984    1.396   .     A
C971   C983    1.401   .     A
C971   H1014   1.084   .     S
C972   H1015   1.072   .     S
C972   C983    1.398   .     A
C973   H1016   1.081   .     S
C973   C984    1.400   .     A
C974   C987    1.396   .     A
C974   H1017   1.083   .     S
C975   C980    1.444   .     S
C975   O1087   1.309   .     A
C975   O1084   1.312   .     A
C976   H1018   1.084   .     S
C976   C985    1.401   .     A
C977   H1019   1.072   .     S
C977   C985    1.398   .     A
C978   H1020   1.081   .     S
C978   C987    1.400   .     A
C979   C986    1.450   .     S
C983   C1007   1.450   .     S
C984   C1006   1.444   .     S
C985   C1005   1.450   .     S
C986   O1086   1.315   .     A
C986   O1085   1.309   .     A
C987   C997    1.444   .     S
C988   H1026   1.111   .     S
C988   C989    1.529   .     S
C988   H1025   1.101   .     S
C988   C1008   1.518   .     S
C989   H1023   1.110   .     S
C989   H885    1.108   1_655 S
C989   H886    1.100   1_655 S
C990   H1031   1.107   .     S
C990   H1030   1.096   .     S
C990   C855    1.536   1_655 S
C991   H1029   1.111   .     S
C991   H1028   1.105   .     S
C991   H1027   1.110   .     S
C992   H1036   1.096   .     S
C992   H1037   1.107   .     S
C993   H1032   1.110   .     S
C993   H1033   1.105   .     S
C993   H1034   1.111   .     S
C993   C856    1.536   1_655 S
C994   H1042   1.111   .     S
C994   C995    1.529   .     S
C994   H1041   1.101   .     S
C995   H1040   1.110   .     S
C996   C998    1.529   .     S
C996   H1048   1.111   .     S
C996   H1047   1.101   .     S
C997   O1076   1.309   .     A
C997   O1088   1.312   .     A
C998   H1044   1.100   .     S
C998   H1043   1.108   .     S
C998   H1045   1.110   .     S
C999   H1053   1.107   .     S
C999   H1052   1.096   .     S
C999   C1000   1.536   .     S
C1000  H1049   1.110   .     S
C1000  H1051   1.111   .     S
C1000  H1050   1.105   .     S
C1001  H1059   1.107   .     S
C1001  H1058   1.096   .     S
C1001  C1002   1.536   .     S
C1002  H1056   1.111   .     S
C1002  H1055   1.105   .     S
C1002  H1054   1.110   .     S
C1003  H1064   1.111   .     S
C1003  H1063   1.101   .     S
C1003  C1004   1.529   .     S
C1004  H1062   1.110   .     S
C1004  H1061   1.100   .     S
C1004  H1060   1.108   .     S
C1005  O1074   1.309   .     A
C1005  O1075   1.315   .     A
C1006  O1077   1.312   .     A
C1006  O1080   1.309   .     A
C1007  O1078   1.309   .     A
C1007  O1079   1.315   .     A
C1008  N934    1.387   1_655 A
C1008  C276    1.424   1_655 S
Cu1009 Cu1010  2.748   .     S
Cu1009 N1069   2.065   .     S
Cu1009 O1073   1.954   .     S
Cu1009 O1085   1.954   .     S
Cu1010 N1070   2.065   .     S
Cu1010 O1083   1.959   .     S
Cu1010 O1086   1.959   .     S
Cu1011 N1071   2.065   .     S
Cu1011 Cu1012  2.748   .     S
Cu1011 O1075   1.959   .     S
Cu1011 O1078   1.954   .     S
Cu1012 N1072   2.065   .     S
Cu1012 O1074   1.954   .     S
Cu1012 O1079   1.959   .     S
H1038  C859    1.108   1_655 S
H1039  C859    1.100   1_655 S
O1076  Cu740   1.959   1_565 S
O1077  Cu740   1.954   1_565 S
O1080  Cu739   1.959   1_565 S
O1081  Cu874   1.954   1_655 S
O1082  Cu873   1.959   1_655 S
O1084  Cu874   1.954   1_655 S
O1087  Cu873   1.959   1_655 S
O1088  Cu739   1.954   1_565 S
C1089  O1219   1.309   .     A
C1089  C1118   1.444   .     S
C1089  O1209   1.312   .     A
C1090  C1126   1.519   .     S
C1090  C139    1.433   1_556 S
C1090  N1341   1.388   .     S
C1091  C1128   1.519   .     S
C1091  C682    1.433   1_455 S
C1091  N1206   1.388   .     S
C1092  N1205   1.387   .     A
C1092  C1130   1.518   .     S
C1092  C192    1.424   1_456 S
C1093  N1480   1.387   .     A
C1093  C1132   1.518   .     S
C1094  C1135   1.519   .     S
C1094  C7      1.433   1_556 S
C1094  N1207   1.388   .     S
C1095  C1137   1.519   .     S
C1095  N1208   1.388   .     S
C1096  C1139   1.518   .     S
C1096  N1479   1.387   .     A
C1096  C5      1.424   1_556 S
C1097  H1149   1.083   .     S
C1097  C1108   1.381   .     A
C1097  C1116   1.396   .     A
C1098  C1115   1.401   .     A
C1098  C1109   1.387   .     A
C1098  H1160   1.084   .     S
C1099  C1106   1.381   .     A
C1099  C1115   1.398   .     A
C1099  H1171   1.072   .     S
C1100  C1117   1.450   .     S
C1100  O1218   1.315   .     A
C1100  O1217   1.309   .     A
C1101  C1116   1.400   .     A
C1101  C1107   1.387   .     A
C1101  H1182   1.081   .     S
C1102  H1193   1.083   .     S
C1102  C1118   1.396   .     A
C1102  C1113   1.381   .     A
C1103  H1201   1.084   .     S
C1103  C1117   1.401   .     A
C1103  C1114   1.387   .     A
C1104  C1110   1.381   .     A
C1104  H1202   1.072   .     S
C1104  C1117   1.398   .     A
C1105  C1118   1.400   .     A
C1105  C1112   1.387   .     A
C1105  H1203   1.081   .     S
C1106  H1204   1.083   .     S
C1106  C1120   1.396   .     A
C1107  C1119   1.401   .     A
C1107  H1150   1.084   .     S
C1108  H1151   1.072   .     S
C1108  C1119   1.398   .     A
C1109  H1152   1.081   .     S
C1109  C1120   1.400   .     A
C1110  C1123   1.396   .     A
C1110  H1153   1.083   .     S
C1111  C1116   1.444   .     S
C1111  O1223   1.309   .     A
C1111  O1220   1.312   .     A
C1112  H1154   1.084   .     S
C1112  C1121   1.401   .     A
C1113  H1155   1.072   .     S
C1113  C1121   1.398   .     A
C1114  H1156   1.081   .     S
C1114  C1123   1.400   .     A
C1115  C1122   1.450   .     S
C1119  C1143   1.450   .     S
C1120  C1142   1.444   .     S
C1121  C1141   1.450   .     S
C1122  O1222   1.315   .     A
C1122  O1221   1.309   .     A
C1123  C1133   1.444   .     S
C1124  H1162   1.111   .     S
C1124  C1125   1.529   .     S
C1124  H1161   1.101   .     S
C1124  C1144   1.518   .     S
C1125  H1159   1.110   .     S
C1125  H1293   1.108   .     S
C1125  H1294   1.100   .     S
C1126  H1167   1.107   .     S
C1126  H1166   1.096   .     S
C1126  C1263   1.536   .     S
C1127  H1165   1.111   .     S
C1127  H1164   1.105   .     S
C1127  H1163   1.110   .     S
C1127  C1262   1.536   1_455 S
C1128  H1172   1.096   .     S
C1128  H1173   1.107   .     S
C1128  C1265   1.536   1_455 S
C1129  H1168   1.110   .     S
C1129  H1169   1.105   .     S
C1129  H1170   1.111   .     S
C1129  C1264   1.536   .     S
C1130  H1178   1.111   .     S
C1130  C1131   1.529   .     S
C1130  H1177   1.101   .     S
C1131  H1176   1.110   .     S
C1131  H1310   1.108   1_455 S
C1131  H1311   1.100   1_455 S
C1132  C1134   1.529   .     S
C1132  H1184   1.111   .     S
C1132  H1183   1.101   .     S
C1133  O1212   1.309   .     A
C1133  O1224   1.312   .     A
C1134  H1180   1.100   .     S
C1134  H1179   1.108   .     S
C1134  H1181   1.110   .     S
C1135  H1189   1.107   .     S
C1135  H1188   1.096   .     S
C1135  C1136   1.536   .     S
C1136  H1185   1.110   .     S
C1136  H1187   1.111   .     S
C1136  H1186   1.105   .     S
C1137  H1195   1.107   .     S
C1137  H1194   1.096   .     S
C1137  C1138   1.536   .     S
C1138  H1192   1.111   .     S
C1138  H1191   1.105   .     S
C1138  H1190   1.110   .     S
C1139  H1200   1.111   .     S
C1139  H1199   1.101   .     S
C1139  C1140   1.529   .     S
C1140  H1198   1.110   .     S
C1140  H1197   1.100   .     S
C1140  H1196   1.108   .     S
C1141  O1210   1.309   .     A
C1141  O1211   1.315   .     A
C1142  O1213   1.312   .     A
C1142  O1216   1.309   .     A
C1143  O1214   1.309   .     A
C1143  O1215   1.315   .     A
C1144  N1342   1.387   .     A
Cu1145 O1354   1.959   1_455 S
Cu1145 Cu1146  2.748   .     S
Cu1145 O1359   1.959   1_455 S
Cu1145 N1205   2.065   .     S
Cu1145 O1209   1.954   .     S
Cu1145 O1221   1.954   .     S
Cu1146 N1206   2.065   .     S
Cu1146 O1356   1.954   1_455 S
Cu1146 O1353   1.954   1_455 S
Cu1146 O1219   1.959   .     S
Cu1146 O1222   1.959   .     S
Cu1147 N1207   2.065   .     S
Cu1147 O1496   1.954   1_545 S
Cu1147 O1488   1.959   1_545 S
Cu1147 Cu1148  2.748   .     S
Cu1147 O1211   1.959   .     S
Cu1147 O1214   1.954   .     S
Cu1148 O1485   1.954   1_545 S
Cu1148 O1484   1.959   1_545 S
Cu1148 N1208   2.065   .     S
Cu1148 O1210   1.954   .     S
Cu1148 O1215   1.959   .     S
H1157  C1261   1.108   1_455 S
H1158  C1261   1.100   1_455 S
H1174  C1267   1.108   .     S
H1175  C1267   1.100   .     S
N1205  C1226   1.388   1_455 S
N1206  C1280   1.387   1_455 A
N1207  C1368   1.387   1_545 A
N1208  C1365   1.387   1_545 A
O1212  Cu1420  1.959   .     S
O1213  Cu1420  1.954   .     S
O1216  Cu1419  1.959   .     S
O1217  Cu1282  1.954   .     S
O1218  Cu1281  1.959   .     S
O1220  Cu1282  1.954   .     S
O1223  Cu1281  1.959   .     S
O1224  Cu1419  1.954   .     S
C1225  O1355   1.309   .     A
C1225  C1254   1.444   .     S
C1225  O1345   1.312   .     A
C1226  C1262   1.519   .     S
C1226  C3      1.433   1_656 S
C1226  N1205   1.388   1_655 S
C1227  C1264   1.519   .     S
C1227  N1342   1.388   .     S
C1228  N1341   1.387   .     A
C1228  C1266   1.518   .     S
C1228  C56     1.424   1_556 S
C1229  N1616   1.387   .     A
C1229  C1268   1.518   .     S
C1230  C1271   1.519   .     S
C1230  C143    1.433   1_556 S
C1230  N1343   1.388   .     S
C1231  C1273   1.519   .     S
C1231  N1344   1.388   .     S
C1232  C1275   1.518   .     S
C1232  N1615   1.387   .     A
C1232  C141    1.424   1_556 S
C1233  H1285   1.083   .     S
C1233  C1244   1.381   .     A
C1233  C1252   1.396   .     A
C1234  C1251   1.401   .     A
C1234  C1245   1.387   .     A
C1234  H1296   1.084   .     S
C1235  C1242   1.381   .     A
C1235  C1251   1.398   .     A
C1235  H1307   1.072   .     S
C1236  C1253   1.450   .     S
C1236  O1354   1.315   .     A
C1236  O1353   1.309   .     A
C1237  C1252   1.400   .     A
C1237  C1243   1.387   .     A
C1237  H1318   1.081   .     S
C1238  H1329   1.083   .     S
C1238  C1254   1.396   .     A
C1238  C1249   1.381   .     A
C1239  H1337   1.084   .     S
C1239  C1253   1.401   .     A
C1239  C1250   1.387   .     A
C1240  C1246   1.381   .     A
C1240  H1338   1.072   .     S
C1240  C1253   1.398   .     A
C1241  C1254   1.400   .     A
C1241  C1248   1.387   .     A
C1241  H1339   1.081   .     S
C1242  H1340   1.083   .     S
C1242  C1256   1.396   .     A
C1243  C1255   1.401   .     A
C1243  H1286   1.084   .     S
C1244  H1287   1.072   .     S
C1244  C1255   1.398   .     A
C1245  H1288   1.081   .     S
C1245  C1256   1.400   .     A
C1246  C1259   1.396   .     A
C1246  H1289   1.083   .     S
C1247  C1252   1.444   .     S
C1247  O1359   1.309   .     A
C1247  O1356   1.312   .     A
C1248  H1290   1.084   .     S
C1248  C1257   1.401   .     A
C1249  H1291   1.072   .     S
C1249  C1257   1.398   .     A
C1250  H1292   1.081   .     S
C1250  C1259   1.400   .     A
C1251  C1258   1.450   .     S
C1255  C1279   1.450   .     S
C1256  C1278   1.444   .     S
C1257  C1277   1.450   .     S
C1258  O1358   1.315   .     A
C1258  O1357   1.309   .     A
C1259  C1269   1.444   .     S
C1260  H1298   1.111   .     S
C1260  C1261   1.529   .     S
C1260  H1297   1.101   .     S
C1260  C1280   1.518   .     S
C1261  H1295   1.110   .     S
C1261  H1157   1.108   1_655 S
C1261  H1158   1.100   1_655 S
C1262  H1303   1.107   .     S
C1262  H1302   1.096   .     S
C1262  C1127   1.536   1_655 S
C1263  H1301   1.111   .     S
C1263  H1300   1.105   .     S
C1263  H1299   1.110   .     S
C1264  H1308   1.096   .     S
C1264  H1309   1.107   .     S
C1265  H1304   1.110   .     S
C1265  H1305   1.105   .     S
C1265  H1306   1.111   .     S
C1265  C1128   1.536   1_655 S
C1266  H1314   1.111   .     S
C1266  C1267   1.529   .     S
C1266  H1313   1.101   .     S
C1267  H1312   1.110   .     S
C1268  C1270   1.529   .     S
C1268  H1320   1.111   .     S
C1268  H1319   1.101   .     S
C1269  O1348   1.309   .     A
C1269  O1360   1.312   .     A
C1270  H1316   1.100   .     S
C1270  H1315   1.108   .     S
C1270  H1317   1.110   .     S
C1271  H1325   1.107   .     S
C1271  H1324   1.096   .     S
C1271  C1272   1.536   .     S
C1272  H1321   1.110   .     S
C1272  H1323   1.111   .     S
C1272  H1322   1.105   .     S
C1273  H1331   1.107   .     S
C1273  H1330   1.096   .     S
C1273  C1274   1.536   .     S
C1274  H1328   1.111   .     S
C1274  H1327   1.105   .     S
C1274  H1326   1.110   .     S
C1275  H1336   1.111   .     S
C1275  H1335   1.101   .     S
C1275  C1276   1.529   .     S
C1276  H1334   1.110   .     S
C1276  H1333   1.100   .     S
C1276  H1332   1.108   .     S
C1277  O1346   1.309   .     A
C1277  O1347   1.315   .     A
C1278  O1349   1.312   .     A
C1278  O1352   1.309   .     A
C1279  O1350   1.309   .     A
C1279  O1351   1.315   .     A
C1280  N1206   1.387   1_655 A
C1280  C548    1.424   1_655 S
Cu1281 Cu1282  2.748   .     S
Cu1281 N1341   2.065   .     S
Cu1281 O1345   1.954   .     S
Cu1281 O1357   1.954   .     S
Cu1282 N1342   2.065   .     S
Cu1282 O1355   1.959   .     S
Cu1282 O1358   1.959   .     S
Cu1283 N1343   2.065   .     S
Cu1283 O1632   1.954   1_545 S
Cu1283 O1624   1.959   1_545 S
Cu1283 Cu1284  2.748   .     S
Cu1283 O1347   1.959   .     S
Cu1283 O1350   1.954   .     S
Cu1284 O1621   1.954   1_545 S
Cu1284 O1620   1.959   1_545 S
Cu1284 N1344   2.065   .     S
Cu1284 O1346   1.954   .     S
Cu1284 O1351   1.959   .     S
H1310  C1131   1.108   1_655 S
H1311  C1131   1.100   1_655 S
N1343  C1504   1.387   1_545 A
N1344  C1501   1.387   1_545 A
O1348  Cu1556  1.959   .     S
O1349  Cu1556  1.954   .     S
O1352  Cu1555  1.959   .     S
O1353  Cu1146  1.954   1_655 S
O1354  Cu1145  1.959   1_655 S
O1356  Cu1146  1.954   1_655 S
O1359  Cu1145  1.959   1_655 S
O1360  Cu1555  1.954   .     S
C1361  O1491   1.309   .     A
C1361  C1390   1.444   .     S
C1361  O1481   1.312   .     A
C1362  C1398   1.519   .     S
C1362  C411    1.433   1_556 S
C1362  N1613   1.388   .     S
C1363  C1400   1.519   .     S
C1363  C954    1.433   1_455 S
C1363  N1478   1.388   .     S
C1364  N1477   1.387   .     A
C1364  C1402   1.518   .     S
C1364  C464    1.424   1_456 S
C1365  N1208   1.387   1_565 A
C1365  C1404   1.518   .     S
C1366  C1407   1.519   .     S
C1366  C279    1.433   1_556 S
C1366  N1479   1.388   .     S
C1367  C1409   1.519   .     S
C1367  N1480   1.388   .     S
C1368  C1411   1.518   .     S
C1368  N1207   1.387   1_565 A
C1368  C277    1.424   1_556 S
C1369  H1421   1.083   .     S
C1369  C1380   1.381   .     A
C1369  C1388   1.396   .     A
C1370  C1387   1.401   .     A
C1370  C1381   1.387   .     A
C1370  H1432   1.084   .     S
C1371  C1378   1.381   .     A
C1371  C1387   1.398   .     A
C1371  H1443   1.072   .     S
C1372  C1389   1.450   .     S
C1372  O1490   1.315   .     A
C1372  O1489   1.309   .     A
C1373  C1388   1.400   .     A
C1373  C1379   1.387   .     A
C1373  H1454   1.081   .     S
C1374  H1465   1.083   .     S
C1374  C1390   1.396   .     A
C1374  C1385   1.381   .     A
C1375  H1473   1.084   .     S
C1375  C1389   1.401   .     A
C1375  C1386   1.387   .     A
C1376  C1382   1.381   .     A
C1376  H1474   1.072   .     S
C1376  C1389   1.398   .     A
C1377  C1390   1.400   .     A
C1377  C1384   1.387   .     A
C1377  H1475   1.081   .     S
C1378  H1476   1.083   .     S
C1378  C1392   1.396   .     A
C1379  C1391   1.401   .     A
C1379  H1422   1.084   .     S
C1380  H1423   1.072   .     S
C1380  C1391   1.398   .     A
C1381  H1424   1.081   .     S
C1381  C1392   1.400   .     A
C1382  C1395   1.396   .     A
C1382  H1425   1.083   .     S
C1383  C1388   1.444   .     S
C1383  O1495   1.309   .     A
C1383  O1492   1.312   .     A
C1384  H1426   1.084   .     S
C1384  C1393   1.401   .     A
C1385  H1427   1.072   .     S
C1385  C1393   1.398   .     A
C1386  H1428   1.081   .     S
C1386  C1395   1.400   .     A
C1387  C1394   1.450   .     S
C1391  C1415   1.450   .     S
C1392  C1414   1.444   .     S
C1393  C1413   1.450   .     S
C1394  O1494   1.315   .     A
C1394  O1493   1.309   .     A
C1395  C1405   1.444   .     S
C1396  H1434   1.111   .     S
C1396  C1397   1.529   .     S
C1396  H1433   1.101   .     S
C1396  C1416   1.518   .     S
C1397  H1431   1.110   .     S
C1397  H1565   1.108   .     S
C1397  H1566   1.100   .     S
C1398  H1439   1.107   .     S
C1398  H1438   1.096   .     S
C1398  C1535   1.536   .     S
C1399  H1437   1.111   .     S
C1399  H1436   1.105   .     S
C1399  H1435   1.110   .     S
C1399  C1534   1.536   1_455 S
C1400  H1444   1.096   .     S
C1400  H1445   1.107   .     S
C1400  C1537   1.536   1_455 S
C1401  H1440   1.110   .     S
C1401  H1441   1.105   .     S
C1401  H1442   1.111   .     S
C1401  C1536   1.536   .     S
C1402  H1450   1.111   .     S
C1402  C1403   1.529   .     S
C1402  H1449   1.101   .     S
C1403  H1448   1.110   .     S
C1403  H1582   1.108   1_455 S
C1403  H1583   1.100   1_455 S
C1404  C1406   1.529   .     S
C1404  H1456   1.111   .     S
C1404  H1455   1.101   .     S
C1405  O1484   1.309   .     A
C1405  O1496   1.312   .     A
C1406  H1452   1.100   .     S
C1406  H1451   1.108   .     S
C1406  H1453   1.110   .     S
C1407  H1461   1.107   .     S
C1407  H1460   1.096   .     S
C1407  C1408   1.536   .     S
C1408  H1457   1.110   .     S
C1408  H1459   1.111   .     S
C1408  H1458   1.105   .     S
C1409  H1467   1.107   .     S
C1409  H1466   1.096   .     S
C1409  C1410   1.536   .     S
C1410  H1464   1.111   .     S
C1410  H1463   1.105   .     S
C1410  H1462   1.110   .     S
C1411  H1472   1.111   .     S
C1411  H1471   1.101   .     S
C1411  C1412   1.529   .     S
C1412  H1470   1.110   .     S
C1412  H1469   1.100   .     S
C1412  H1468   1.108   .     S
C1413  O1482   1.309   .     A
C1413  O1483   1.315   .     A
C1414  O1485   1.312   .     A
C1414  O1488   1.309   .     A
C1415  O1486   1.309   .     A
C1415  O1487   1.315   .     A
C1416  N1614   1.387   .     A
Cu1417 O1626   1.959   1_455 S
Cu1417 Cu1418  2.748   .     S
Cu1417 O1631   1.959   1_455 S
Cu1417 N1477   2.065   .     S
Cu1417 O1481   1.954   .     S
Cu1417 O1493   1.954   .     S
Cu1418 N1478   2.065   .     S
Cu1418 O1628   1.954   1_455 S
Cu1418 O1625   1.954   1_455 S
Cu1418 O1491   1.959   .     S
Cu1418 O1494   1.959   .     S
Cu1419 N1479   2.065   .     S
Cu1419 Cu1420  2.748   .     S
Cu1419 O1483   1.959   .     S
Cu1419 O1486   1.954   .     S
Cu1420 N1480   2.065   .     S
Cu1420 O1482   1.954   .     S
Cu1420 O1487   1.959   .     S
H1429  C1533   1.108   1_455 S
H1430  C1533   1.100   1_455 S
H1446  C1539   1.108   .     S
H1447  C1539   1.100   .     S
N1477  C1498   1.388   1_455 S
N1478  C1552   1.387   1_455 A
O1484  Cu1148  1.959   1_565 S
O1485  Cu1148  1.954   1_565 S
O1488  Cu1147  1.959   1_565 S
O1489  Cu1554  1.954   .     S
O1490  Cu1553  1.959   .     S
O1492  Cu1554  1.954   .     S
O1495  Cu1553  1.959   .     S
O1496  Cu1147  1.954   1_565 S
C1497  O1627   1.309   .     A
C1497  C1526   1.444   .     S
C1497  O1617   1.312   .     A
C1498  C1534   1.519   .     S
C1498  C275    1.433   1_656 S
C1498  N1477   1.388   1_655 S
C1499  C1536   1.519   .     S
C1499  N1614   1.388   .     S
C1500  N1613   1.387   .     A
C1500  C1538   1.518   .     S
C1500  C328    1.424   1_556 S
C1501  N1344   1.387   1_565 A
C1501  C1540   1.518   .     S
C1502  C1543   1.519   .     S
C1502  C415    1.433   1_556 S
C1502  N1615   1.388   .     S
C1503  C1545   1.519   .     S
C1503  N1616   1.388   .     S
C1504  C1547   1.518   .     S
C1504  N1343   1.387   1_565 A
C1504  C413    1.424   1_556 S
C1505  H1557   1.083   .     S
C1505  C1516   1.381   .     A
C1505  C1524   1.396   .     A
C1506  C1523   1.401   .     A
C1506  C1517   1.387   .     A
C1506  H1568   1.084   .     S
C1507  C1514   1.381   .     A
C1507  C1523   1.398   .     A
C1507  H1579   1.072   .     S
C1508  C1525   1.450   .     S
C1508  O1626   1.315   .     A
C1508  O1625   1.309   .     A
C1509  C1524   1.400   .     A
C1509  C1515   1.387   .     A
C1509  H1590   1.081   .     S
C1510  H1601   1.083   .     S
C1510  C1526   1.396   .     A
C1510  C1521   1.381   .     A
C1511  H1609   1.084   .     S
C1511  C1525   1.401   .     A
C1511  C1522   1.387   .     A
C1512  C1518   1.381   .     A
C1512  H1610   1.072   .     S
C1512  C1525   1.398   .     A
C1513  C1526   1.400   .     A
C1513  C1520   1.387   .     A
C1513  H1611   1.081   .     S
C1514  H1612   1.083   .     S
C1514  C1528   1.396   .     A
C1515  C1527   1.401   .     A
C1515  H1558   1.084   .     S
C1516  H1559   1.072   .     S
C1516  C1527   1.398   .     A
C1517  H1560   1.081   .     S
C1517  C1528   1.400   .     A
C1518  C1531   1.396   .     A
C1518  H1561   1.083   .     S
C1519  C1524   1.444   .     S
C1519  O1631   1.309   .     A
C1519  O1628   1.312   .     A
C1520  H1562   1.084   .     S
C1520  C1529   1.401   .     A
C1521  H1563   1.072   .     S
C1521  C1529   1.398   .     A
C1522  H1564   1.081   .     S
C1522  C1531   1.400   .     A
C1523  C1530   1.450   .     S
C1527  C1551   1.450   .     S
C1528  C1550   1.444   .     S
C1529  C1549   1.450   .     S
C1530  O1630   1.315   .     A
C1530  O1629   1.309   .     A
C1531  C1541   1.444   .     S
C1532  H1570   1.111   .     S
C1532  C1533   1.529   .     S
C1532  H1569   1.101   .     S
C1532  C1552   1.518   .     S
C1533  H1567   1.110   .     S
C1533  H1429   1.108   1_655 S
C1533  H1430   1.100   1_655 S
C1534  H1575   1.107   .     S
C1534  H1574   1.096   .     S
C1534  C1399   1.536   1_655 S
C1535  H1573   1.111   .     S
C1535  H1572   1.105   .     S
C1535  H1571   1.110   .     S
C1536  H1580   1.096   .     S
C1536  H1581   1.107   .     S
C1537  H1576   1.110   .     S
C1537  H1577   1.105   .     S
C1537  H1578   1.111   .     S
C1537  C1400   1.536   1_655 S
C1538  H1586   1.111   .     S
C1538  C1539   1.529   .     S
C1538  H1585   1.101   .     S
C1539  H1584   1.110   .     S
C1540  C1542   1.529   .     S
C1540  H1592   1.111   .     S
C1540  H1591   1.101   .     S
C1541  O1620   1.309   .     A
C1541  O1632   1.312   .     A
C1542  H1588   1.100   .     S
C1542  H1587   1.108   .     S
C1542  H1589   1.110   .     S
C1543  H1597   1.107   .     S
C1543  H1596   1.096   .     S
C1543  C1544   1.536   .     S
C1544  H1593   1.110   .     S
C1544  H1595   1.111   .     S
C1544  H1594   1.105   .     S
C1545  H1603   1.107   .     S
C1545  H1602   1.096   .     S
C1545  C1546   1.536   .     S
C1546  H1600   1.111   .     S
C1546  H1599   1.105   .     S
C1546  H1598   1.110   .     S
C1547  H1608   1.111   .     S
C1547  H1607   1.101   .     S
C1547  C1548   1.529   .     S
C1548  H1606   1.110   .     S
C1548  H1605   1.100   .     S
C1548  H1604   1.108   .     S
C1549  O1618   1.309   .     A
C1549  O1619   1.315   .     A
C1550  O1621   1.312   .     A
C1550  O1624   1.309   .     A
C1551  O1622   1.309   .     A
C1551  O1623   1.315   .     A
C1552  N1478   1.387   1_655 A
C1552  C820    1.424   1_655 S
Cu1553 Cu1554  2.748   .     S
Cu1553 N1613   2.065   .     S
Cu1553 O1617   1.954   .     S
Cu1553 O1629   1.954   .     S
Cu1554 N1614   2.065   .     S
Cu1554 O1627   1.959   .     S
Cu1554 O1630   1.959   .     S
Cu1555 N1615   2.065   .     S
Cu1555 Cu1556  2.748   .     S
Cu1555 O1619   1.959   .     S
Cu1555 O1622   1.954   .     S
Cu1556 N1616   2.065   .     S
Cu1556 O1618   1.954   .     S
Cu1556 O1623   1.959   .     S
H1582  C1403   1.108   1_655 S
H1583  C1403   1.100   1_655 S
O1620  Cu1284  1.959   1_565 S
O1621  Cu1284  1.954   1_565 S
O1624  Cu1283  1.959   1_565 S
O1625  Cu1418  1.954   1_655 S
O1626  Cu1417  1.959   1_655 S
O1628  Cu1418  1.954   1_655 S
O1631  Cu1417  1.959   1_655 S
O1632  Cu1283  1.954   1_565 S
