data_str_m2_o1_o10_pcu_sym.127
_audit_creation_date              2020-01-03
_audit_creation_method            'Materials Studio'
_symmetry_space_group_name_H-M    'P1'
_symmetry_Int_Tables_number       1
_symmetry_cell_setting            triclinic
loop_
_symmetry_equiv_pos_as_xyz
  x,y,z
_cell_length_a                    26.2075
_cell_length_b                    32.5917
_cell_length_c                    29.0240
_cell_angle_alpha                 90.0686
_cell_angle_beta                  97.9627
_cell_angle_gamma                 93.1861
loop_
_atom_site_label
_atom_site_type_symbol
_atom_site_fract_x
_atom_site_fract_y
_atom_site_fract_z
_atom_site_U_iso_or_equiv
_atom_site_adp_type
_atom_site_occupancy
C1     C     0.16781   0.08760   0.16687   0.00000  Uiso   1.00
C2     C     0.16552   0.24574   0.16647   0.00000  Uiso   1.00
C3     C     0.06812   0.16479   0.15500   0.00000  Uiso   1.00
C4     C     0.26521   0.16854   0.17834   0.00000  Uiso   1.00
C5     C     0.01285   0.15706   0.15156   0.00000  Uiso   1.00
C6     C     0.32049   0.17628   0.18177   0.00000  Uiso   1.00
C7     C     0.15243   0.02115   0.12570   0.00000  Uiso   1.00
C8     C     0.18090   0.31218   0.20764   0.00000  Uiso   1.00
C9     C     0.14925   0.31183   0.12487   0.00000  Uiso   1.00
C10    C     0.18408   0.02150   0.20847   0.00000  Uiso   1.00
C11    C     0.16467   0.29041   0.16612   0.00000  Uiso   1.00
C12    C     0.16866   0.04292   0.16721   0.00000  Uiso   1.00
C13    C     0.12839   0.14565   0.01953   0.00000  Uiso   1.00
C14    C     0.20494   0.18768   0.31380   0.00000  Uiso   1.00
C15    C     0.12907   0.14484   0.30372   0.00000  Uiso   1.00
C16    C     0.20426   0.18850   0.02961   0.00000  Uiso   1.00
Cu17   Cu    0.16667   0.16667   0.21355   0.00000  Uiso   1.00
Cu18   Cu    0.16667   0.16666   0.11978   0.00000  Uiso   1.00
H19    H     0.14157   0.03699   0.09357   0.00000  Uiso   1.00
H20    H     0.19176   0.29634   0.23976   0.00000  Uiso   1.00
N21    N     0.16668   0.16668   0.28403   0.00000  Uiso   1.00
N22    N     0.16665   0.16666   0.04931   0.00000  Uiso   1.00
O23    O     0.16666   0.10655   0.20625   0.00000  Uiso   1.00
O24    O     0.16667   0.22678   0.12709   0.00000  Uiso   1.00
O25    O     0.16666   0.10654   0.12706   0.00000  Uiso   1.00
O26    O     0.16667   0.22679   0.20628   0.00000  Uiso   1.00
O27    O     0.09161   0.16667   0.19712   0.00000  Uiso   1.00
O28    O     0.24172   0.16666   0.13621   0.00000  Uiso   1.00
O29    O     0.09161   0.16666   0.11793   0.00000  Uiso   1.00
O30    O     0.24172   0.16667   0.21540   0.00000  Uiso   1.00
N31    N     0.32186   0.12292   0.12389   0.00000  Uiso   1.00
H32    H     0.32201   0.12985   0.08894   0.00000  Uiso   1.00
H33    H     0.01005   0.09716   0.13181   0.00000  Uiso   1.00
N34    N     0.01147   0.21041   0.20945   0.00000  Uiso   1.00
H35    H     0.01131   0.20348   0.24440   0.00000  Uiso   1.00
H36    H     0.32329   0.23617   0.20152   0.00000  Uiso   1.00
N37    N     0.12845   0.29068   0.08247   0.00000  Uiso   1.00
H38    H     0.14999   0.30056   0.05641   0.00000  Uiso   1.00
H39    H     0.09068   0.29942   0.07293   0.00000  Uiso   1.00
N40    N     0.20487   0.04266   0.25086   0.00000  Uiso   1.00
H41    H     0.18333   0.03277   0.27692   0.00000  Uiso   1.00
H42    H     0.24264   0.03391   0.26041   0.00000  Uiso   1.00
C43    C     0.08304   0.12600   0.03683   0.00000  Uiso   1.00
O44    O     0.04167   0.14189   0.02852   0.00000  Uiso   1.00
O45    O     0.08604   0.08799   0.05855   0.00000  Uiso   1.00
H46    H     0.05142   0.07651   0.06598   0.00000  Uiso   1.00
C47    C     0.25029   0.20734   0.29651   0.00000  Uiso   1.00
O48    O     0.29166   0.19145   0.30483   0.00000  Uiso   1.00
O49    O     0.24729   0.24534   0.27477   0.00000  Uiso   1.00
H50    H     0.28191   0.25681   0.26734   0.00000  Uiso   1.00
C51    C     0.08977   0.11811   0.27469   0.00000  Uiso   1.00
O52    O     0.04588   0.12927   0.26483   0.00000  Uiso   1.00
O53    O     0.10133   0.07849   0.26293   0.00000  Uiso   1.00
H54    H     0.07100   0.06278   0.24404   0.00000  Uiso   1.00
C55    C     0.24357   0.21523   0.05864   0.00000  Uiso   1.00
O56    O     0.28745   0.20406   0.06850   0.00000  Uiso   1.00
O57    O     0.23200   0.25484   0.07040   0.00000  Uiso   1.00
H58    H     0.26233   0.27055   0.08929   0.00000  Uiso   1.00
C59    C     0.50114   0.08760   0.16687   0.00000  Uiso   1.00
C60    C     0.49886   0.24574   0.16647   0.00000  Uiso   1.00
C61    C     0.40146   0.16479   0.15500   0.00000  Uiso   1.00
C62    C     0.59854   0.16854   0.17834   0.00000  Uiso   1.00
C63    C     0.34618   0.15706   0.15156   0.00000  Uiso   1.00
C64    C     0.65382   0.17628   0.18177   0.00000  Uiso   1.00
C65    C     0.48576   0.02115   0.12570   0.00000  Uiso   1.00
C66    C     0.51424   0.31218   0.20764   0.00000  Uiso   1.00
C67    C     0.48258   0.31183   0.12487   0.00000  Uiso   1.00
C68    C     0.51742   0.02150   0.20847   0.00000  Uiso   1.00
C69    C     0.49800   0.29041   0.16612   0.00000  Uiso   1.00
C70    C     0.50199   0.04292   0.16721   0.00000  Uiso   1.00
C71    C     0.46173   0.14565   0.01953   0.00000  Uiso   1.00
C72    C     0.53827   0.18768   0.31380   0.00000  Uiso   1.00
C73    C     0.46241   0.14484   0.30372   0.00000  Uiso   1.00
C74    C     0.53759   0.18850   0.02961   0.00000  Uiso   1.00
Cu75   Cu    0.50000   0.16667   0.21355   0.00000  Uiso   1.00
Cu76   Cu    0.50000   0.16666   0.11978   0.00000  Uiso   1.00
H77    H     0.47490   0.03699   0.09357   0.00000  Uiso   1.00
H78    H     0.52509   0.29634   0.23976   0.00000  Uiso   1.00
N79    N     0.50001   0.16668   0.28403   0.00000  Uiso   1.00
N80    N     0.49999   0.16666   0.04931   0.00000  Uiso   1.00
O81    O     0.50000   0.10655   0.20625   0.00000  Uiso   1.00
O82    O     0.50000   0.22678   0.12709   0.00000  Uiso   1.00
O83    O     0.50000   0.10654   0.12706   0.00000  Uiso   1.00
O84    O     0.50000   0.22679   0.20628   0.00000  Uiso   1.00
O85    O     0.42495   0.16667   0.19712   0.00000  Uiso   1.00
O86    O     0.57505   0.16666   0.13621   0.00000  Uiso   1.00
O87    O     0.42494   0.16666   0.11793   0.00000  Uiso   1.00
O88    O     0.57506   0.16667   0.21540   0.00000  Uiso   1.00
N89    N     0.65520   0.12292   0.12389   0.00000  Uiso   1.00
H90    H     0.65534   0.12985   0.08894   0.00000  Uiso   1.00
H91    H     0.34338   0.09716   0.13181   0.00000  Uiso   1.00
N92    N     0.34480   0.21041   0.20945   0.00000  Uiso   1.00
H93    H     0.34465   0.20348   0.24440   0.00000  Uiso   1.00
H94    H     0.65663   0.23617   0.20152   0.00000  Uiso   1.00
N95    N     0.46179   0.29068   0.08247   0.00000  Uiso   1.00
H96    H     0.48333   0.30056   0.05641   0.00000  Uiso   1.00
H97    H     0.42401   0.29942   0.07293   0.00000  Uiso   1.00
N98    N     0.53821   0.04266   0.25086   0.00000  Uiso   1.00
H99    H     0.51666   0.03277   0.27692   0.00000  Uiso   1.00
H100   H     0.57598   0.03391   0.26041   0.00000  Uiso   1.00
C101   C     0.41638   0.12600   0.03683   0.00000  Uiso   1.00
O102   O     0.37501   0.14189   0.02852   0.00000  Uiso   1.00
O103   O     0.41937   0.08799   0.05855   0.00000  Uiso   1.00
H104   H     0.38475   0.07651   0.06598   0.00000  Uiso   1.00
C105   C     0.58362   0.20734   0.29651   0.00000  Uiso   1.00
O106   O     0.62500   0.19145   0.30483   0.00000  Uiso   1.00
O107   O     0.58063   0.24534   0.27477   0.00000  Uiso   1.00
H108   H     0.61524   0.25681   0.26734   0.00000  Uiso   1.00
C109   C     0.42310   0.11811   0.27469   0.00000  Uiso   1.00
O110   O     0.37921   0.12927   0.26483   0.00000  Uiso   1.00
O111   O     0.43466   0.07849   0.26293   0.00000  Uiso   1.00
H112   H     0.40433   0.06278   0.24404   0.00000  Uiso   1.00
C113   C     0.57690   0.21523   0.05864   0.00000  Uiso   1.00
O114   O     0.62078   0.20406   0.06850   0.00000  Uiso   1.00
O115   O     0.56533   0.25484   0.07040   0.00000  Uiso   1.00
H116   H     0.59566   0.27055   0.08929   0.00000  Uiso   1.00
C117   C     0.83448   0.08760   0.16687   0.00000  Uiso   1.00
C118   C     0.83219   0.24574   0.16647   0.00000  Uiso   1.00
C119   C     0.73479   0.16479   0.15500   0.00000  Uiso   1.00
C120   C     0.93188   0.16854   0.17834   0.00000  Uiso   1.00
C121   C     0.67951   0.15706   0.15156   0.00000  Uiso   1.00
C122   C     0.98715   0.17628   0.18177   0.00000  Uiso   1.00
C123   C     0.81909   0.02115   0.12570   0.00000  Uiso   1.00
C124   C     0.84757   0.31218   0.20764   0.00000  Uiso   1.00
C125   C     0.81591   0.31183   0.12487   0.00000  Uiso   1.00
C126   C     0.85075   0.02150   0.20847   0.00000  Uiso   1.00
C127   C     0.83134   0.29041   0.16612   0.00000  Uiso   1.00
C128   C     0.83533   0.04292   0.16721   0.00000  Uiso   1.00
C129   C     0.79506   0.14565   0.01953   0.00000  Uiso   1.00
C130   C     0.87161   0.18768   0.31380   0.00000  Uiso   1.00
C131   C     0.79574   0.14484   0.30372   0.00000  Uiso   1.00
C132   C     0.87093   0.18850   0.02961   0.00000  Uiso   1.00
Cu133  Cu    0.83333   0.16667   0.21355   0.00000  Uiso   1.00
Cu134  Cu    0.83333   0.16666   0.11978   0.00000  Uiso   1.00
H135   H     0.80824   0.03699   0.09357   0.00000  Uiso   1.00
H136   H     0.85843   0.29634   0.23976   0.00000  Uiso   1.00
N137   N     0.83335   0.16668   0.28403   0.00000  Uiso   1.00
N138   N     0.83332   0.16666   0.04931   0.00000  Uiso   1.00
O139   O     0.83333   0.10655   0.20625   0.00000  Uiso   1.00
O140   O     0.83334   0.22678   0.12709   0.00000  Uiso   1.00
O141   O     0.83333   0.10654   0.12706   0.00000  Uiso   1.00
O142   O     0.83334   0.22679   0.20628   0.00000  Uiso   1.00
O143   O     0.75828   0.16667   0.19712   0.00000  Uiso   1.00
O144   O     0.90839   0.16666   0.13621   0.00000  Uiso   1.00
O145   O     0.75828   0.16666   0.11793   0.00000  Uiso   1.00
O146   O     0.90839   0.16667   0.21540   0.00000  Uiso   1.00
N147   N     0.98853   0.12292   0.12389   0.00000  Uiso   1.00
H148   H     0.98868   0.12985   0.08894   0.00000  Uiso   1.00
H149   H     0.67672   0.09716   0.13181   0.00000  Uiso   1.00
N150   N     0.67814   0.21041   0.20945   0.00000  Uiso   1.00
H151   H     0.67798   0.20348   0.24440   0.00000  Uiso   1.00
H152   H     0.98996   0.23617   0.20152   0.00000  Uiso   1.00
N153   N     0.79512   0.29068   0.08247   0.00000  Uiso   1.00
H154   H     0.81666   0.30056   0.05641   0.00000  Uiso   1.00
H155   H     0.75735   0.29942   0.07293   0.00000  Uiso   1.00
N156   N     0.87154   0.04266   0.25086   0.00000  Uiso   1.00
H157   H     0.85000   0.03277   0.27692   0.00000  Uiso   1.00
H158   H     0.90931   0.03391   0.26041   0.00000  Uiso   1.00
C159   C     0.74971   0.12600   0.03683   0.00000  Uiso   1.00
O160   O     0.70834   0.14189   0.02852   0.00000  Uiso   1.00
O161   O     0.75271   0.08799   0.05855   0.00000  Uiso   1.00
H162   H     0.71809   0.07651   0.06598   0.00000  Uiso   1.00
C163   C     0.91696   0.20734   0.29651   0.00000  Uiso   1.00
O164   O     0.95833   0.19145   0.30483   0.00000  Uiso   1.00
O165   O     0.91396   0.24534   0.27477   0.00000  Uiso   1.00
H166   H     0.94858   0.25681   0.26734   0.00000  Uiso   1.00
C167   C     0.75643   0.11811   0.27469   0.00000  Uiso   1.00
O168   O     0.71255   0.12927   0.26483   0.00000  Uiso   1.00
O169   O     0.76800   0.07849   0.26293   0.00000  Uiso   1.00
H170   H     0.73766   0.06278   0.24404   0.00000  Uiso   1.00
C171   C     0.91023   0.21523   0.05864   0.00000  Uiso   1.00
O172   O     0.95412   0.20406   0.06850   0.00000  Uiso   1.00
O173   O     0.89867   0.25484   0.07040   0.00000  Uiso   1.00
H174   H     0.92900   0.27055   0.08929   0.00000  Uiso   1.00
C175   C     0.16781   0.42093   0.16687   0.00000  Uiso   1.00
C176   C     0.16552   0.57907   0.16647   0.00000  Uiso   1.00
C177   C     0.06812   0.49812   0.15500   0.00000  Uiso   1.00
C178   C     0.26521   0.50188   0.17834   0.00000  Uiso   1.00
C179   C     0.01285   0.49039   0.15156   0.00000  Uiso   1.00
C180   C     0.32049   0.50961   0.18177   0.00000  Uiso   1.00
C181   C     0.15243   0.35449   0.12570   0.00000  Uiso   1.00
C182   C     0.18090   0.64551   0.20764   0.00000  Uiso   1.00
C183   C     0.14925   0.64517   0.12487   0.00000  Uiso   1.00
C184   C     0.18408   0.35483   0.20847   0.00000  Uiso   1.00
C185   C     0.16467   0.62375   0.16612   0.00000  Uiso   1.00
C186   C     0.16866   0.37625   0.16721   0.00000  Uiso   1.00
C187   C     0.12839   0.47899   0.01953   0.00000  Uiso   1.00
C188   C     0.20494   0.52101   0.31380   0.00000  Uiso   1.00
C189   C     0.12907   0.47817   0.30372   0.00000  Uiso   1.00
C190   C     0.20426   0.52183   0.02961   0.00000  Uiso   1.00
Cu191  Cu    0.16667   0.50001   0.21355   0.00000  Uiso   1.00
Cu192  Cu    0.16667   0.49999   0.11978   0.00000  Uiso   1.00
H193   H     0.14157   0.37032   0.09357   0.00000  Uiso   1.00
H194   H     0.19176   0.62968   0.23976   0.00000  Uiso   1.00
N195   N     0.16668   0.50001   0.28403   0.00000  Uiso   1.00
N196   N     0.16665   0.49999   0.04931   0.00000  Uiso   1.00
O197   O     0.16666   0.43989   0.20625   0.00000  Uiso   1.00
O198   O     0.16667   0.56011   0.12709   0.00000  Uiso   1.00
O199   O     0.16666   0.43988   0.12706   0.00000  Uiso   1.00
O200   O     0.16667   0.56012   0.20628   0.00000  Uiso   1.00
O201   O     0.09161   0.50000   0.19712   0.00000  Uiso   1.00
O202   O     0.24172   0.50000   0.13621   0.00000  Uiso   1.00
O203   O     0.09161   0.49999   0.11793   0.00000  Uiso   1.00
O204   O     0.24172   0.50001   0.21540   0.00000  Uiso   1.00
N205   N     0.32186   0.45625   0.12389   0.00000  Uiso   1.00
H206   H     0.32201   0.46318   0.08894   0.00000  Uiso   1.00
H207   H     0.01005   0.43049   0.13181   0.00000  Uiso   1.00
N208   N     0.01147   0.54375   0.20945   0.00000  Uiso   1.00
H209   H     0.01131   0.53681   0.24440   0.00000  Uiso   1.00
H210   H     0.32329   0.56951   0.20152   0.00000  Uiso   1.00
N211   N     0.12845   0.62401   0.08247   0.00000  Uiso   1.00
H212   H     0.14999   0.63390   0.05641   0.00000  Uiso   1.00
H213   H     0.09068   0.63275   0.07293   0.00000  Uiso   1.00
N214   N     0.20487   0.37599   0.25086   0.00000  Uiso   1.00
H215   H     0.18333   0.36610   0.27692   0.00000  Uiso   1.00
H216   H     0.24264   0.36725   0.26041   0.00000  Uiso   1.00
C217   C     0.08304   0.45933   0.03683   0.00000  Uiso   1.00
O218   O     0.04167   0.47522   0.02852   0.00000  Uiso   1.00
O219   O     0.08604   0.42132   0.05855   0.00000  Uiso   1.00
H220   H     0.05142   0.40985   0.06598   0.00000  Uiso   1.00
C221   C     0.25029   0.54067   0.29651   0.00000  Uiso   1.00
O222   O     0.29166   0.52478   0.30483   0.00000  Uiso   1.00
O223   O     0.24729   0.57867   0.27477   0.00000  Uiso   1.00
H224   H     0.28191   0.59015   0.26734   0.00000  Uiso   1.00
C225   C     0.08977   0.45144   0.27469   0.00000  Uiso   1.00
O226   O     0.04588   0.46261   0.26483   0.00000  Uiso   1.00
O227   O     0.10133   0.41183   0.26293   0.00000  Uiso   1.00
H228   H     0.07100   0.39612   0.24404   0.00000  Uiso   1.00
C229   C     0.24357   0.54856   0.05864   0.00000  Uiso   1.00
O230   O     0.28745   0.53740   0.06850   0.00000  Uiso   1.00
O231   O     0.23200   0.58818   0.07040   0.00000  Uiso   1.00
H232   H     0.26233   0.60389   0.08929   0.00000  Uiso   1.00
C233   C     0.50114   0.42093   0.16687   0.00000  Uiso   1.00
C234   C     0.49886   0.57907   0.16647   0.00000  Uiso   1.00
C235   C     0.40146   0.49812   0.15500   0.00000  Uiso   1.00
C236   C     0.59854   0.50188   0.17834   0.00000  Uiso   1.00
C237   C     0.34618   0.49039   0.15156   0.00000  Uiso   1.00
C238   C     0.65382   0.50961   0.18177   0.00000  Uiso   1.00
C239   C     0.48576   0.35449   0.12570   0.00000  Uiso   1.00
C240   C     0.51424   0.64551   0.20764   0.00000  Uiso   1.00
C241   C     0.48258   0.64517   0.12487   0.00000  Uiso   1.00
C242   C     0.51742   0.35483   0.20847   0.00000  Uiso   1.00
C243   C     0.49800   0.62375   0.16612   0.00000  Uiso   1.00
C244   C     0.50199   0.37625   0.16721   0.00000  Uiso   1.00
C245   C     0.46173   0.47899   0.01953   0.00000  Uiso   1.00
C246   C     0.53827   0.52101   0.31380   0.00000  Uiso   1.00
C247   C     0.46241   0.47817   0.30372   0.00000  Uiso   1.00
C248   C     0.53759   0.52183   0.02961   0.00000  Uiso   1.00
Cu249  Cu    0.50000   0.50001   0.21355   0.00000  Uiso   1.00
Cu250  Cu    0.50000   0.49999   0.11978   0.00000  Uiso   1.00
H251   H     0.47490   0.37032   0.09357   0.00000  Uiso   1.00
H252   H     0.52509   0.62968   0.23976   0.00000  Uiso   1.00
N253   N     0.50001   0.50001   0.28403   0.00000  Uiso   1.00
N254   N     0.49999   0.49999   0.04931   0.00000  Uiso   1.00
O255   O     0.50000   0.43989   0.20625   0.00000  Uiso   1.00
O256   O     0.50000   0.56011   0.12709   0.00000  Uiso   1.00
O257   O     0.50000   0.43988   0.12706   0.00000  Uiso   1.00
O258   O     0.50000   0.56012   0.20628   0.00000  Uiso   1.00
O259   O     0.42495   0.50000   0.19712   0.00000  Uiso   1.00
O260   O     0.57505   0.50000   0.13621   0.00000  Uiso   1.00
O261   O     0.42494   0.49999   0.11793   0.00000  Uiso   1.00
O262   O     0.57506   0.50001   0.21540   0.00000  Uiso   1.00
N263   N     0.65520   0.45625   0.12389   0.00000  Uiso   1.00
H264   H     0.65534   0.46318   0.08894   0.00000  Uiso   1.00
H265   H     0.34338   0.43049   0.13181   0.00000  Uiso   1.00
N266   N     0.34480   0.54375   0.20945   0.00000  Uiso   1.00
H267   H     0.34465   0.53681   0.24440   0.00000  Uiso   1.00
H268   H     0.65663   0.56951   0.20152   0.00000  Uiso   1.00
N269   N     0.46179   0.62401   0.08247   0.00000  Uiso   1.00
H270   H     0.48333   0.63390   0.05641   0.00000  Uiso   1.00
H271   H     0.42401   0.63275   0.07293   0.00000  Uiso   1.00
N272   N     0.53821   0.37599   0.25086   0.00000  Uiso   1.00
H273   H     0.51666   0.36610   0.27692   0.00000  Uiso   1.00
H274   H     0.57598   0.36725   0.26041   0.00000  Uiso   1.00
C275   C     0.41638   0.45933   0.03683   0.00000  Uiso   1.00
O276   O     0.37501   0.47522   0.02852   0.00000  Uiso   1.00
O277   O     0.41937   0.42132   0.05855   0.00000  Uiso   1.00
H278   H     0.38475   0.40985   0.06598   0.00000  Uiso   1.00
C279   C     0.58362   0.54067   0.29651   0.00000  Uiso   1.00
O280   O     0.62500   0.52478   0.30483   0.00000  Uiso   1.00
O281   O     0.58063   0.57867   0.27477   0.00000  Uiso   1.00
H282   H     0.61524   0.59015   0.26734   0.00000  Uiso   1.00
C283   C     0.42310   0.45144   0.27469   0.00000  Uiso   1.00
O284   O     0.37921   0.46261   0.26483   0.00000  Uiso   1.00
O285   O     0.43466   0.41183   0.26293   0.00000  Uiso   1.00
H286   H     0.40433   0.39612   0.24404   0.00000  Uiso   1.00
C287   C     0.57690   0.54856   0.05864   0.00000  Uiso   1.00
O288   O     0.62078   0.53740   0.06850   0.00000  Uiso   1.00
O289   O     0.56533   0.58818   0.07040   0.00000  Uiso   1.00
H290   H     0.59566   0.60389   0.08929   0.00000  Uiso   1.00
C291   C     0.83448   0.42093   0.16687   0.00000  Uiso   1.00
C292   C     0.83219   0.57907   0.16647   0.00000  Uiso   1.00
C293   C     0.73479   0.49812   0.15500   0.00000  Uiso   1.00
C294   C     0.93188   0.50188   0.17834   0.00000  Uiso   1.00
C295   C     0.67951   0.49039   0.15156   0.00000  Uiso   1.00
C296   C     0.98715   0.50961   0.18177   0.00000  Uiso   1.00
C297   C     0.81909   0.35449   0.12570   0.00000  Uiso   1.00
C298   C     0.84757   0.64551   0.20764   0.00000  Uiso   1.00
C299   C     0.81591   0.64517   0.12487   0.00000  Uiso   1.00
C300   C     0.85075   0.35483   0.20847   0.00000  Uiso   1.00
C301   C     0.83134   0.62375   0.16612   0.00000  Uiso   1.00
C302   C     0.83533   0.37625   0.16721   0.00000  Uiso   1.00
C303   C     0.79506   0.47899   0.01953   0.00000  Uiso   1.00
C304   C     0.87161   0.52101   0.31380   0.00000  Uiso   1.00
C305   C     0.79574   0.47817   0.30372   0.00000  Uiso   1.00
C306   C     0.87093   0.52183   0.02961   0.00000  Uiso   1.00
Cu307  Cu    0.83333   0.50001   0.21355   0.00000  Uiso   1.00
Cu308  Cu    0.83333   0.49999   0.11978   0.00000  Uiso   1.00
H309   H     0.80824   0.37032   0.09357   0.00000  Uiso   1.00
H310   H     0.85843   0.62968   0.23976   0.00000  Uiso   1.00
N311   N     0.83335   0.50001   0.28403   0.00000  Uiso   1.00
N312   N     0.83332   0.49999   0.04931   0.00000  Uiso   1.00
O313   O     0.83333   0.43989   0.20625   0.00000  Uiso   1.00
O314   O     0.83334   0.56011   0.12709   0.00000  Uiso   1.00
O315   O     0.83333   0.43988   0.12706   0.00000  Uiso   1.00
O316   O     0.83334   0.56012   0.20628   0.00000  Uiso   1.00
O317   O     0.75828   0.50000   0.19712   0.00000  Uiso   1.00
O318   O     0.90839   0.50000   0.13621   0.00000  Uiso   1.00
O319   O     0.75828   0.49999   0.11793   0.00000  Uiso   1.00
O320   O     0.90839   0.50001   0.21540   0.00000  Uiso   1.00
N321   N     0.98853   0.45625   0.12389   0.00000  Uiso   1.00
H322   H     0.98868   0.46318   0.08894   0.00000  Uiso   1.00
H323   H     0.67672   0.43049   0.13181   0.00000  Uiso   1.00
N324   N     0.67814   0.54375   0.20945   0.00000  Uiso   1.00
H325   H     0.67798   0.53681   0.24440   0.00000  Uiso   1.00
H326   H     0.98996   0.56951   0.20152   0.00000  Uiso   1.00
N327   N     0.79512   0.62401   0.08247   0.00000  Uiso   1.00
H328   H     0.81666   0.63390   0.05641   0.00000  Uiso   1.00
H329   H     0.75735   0.63275   0.07293   0.00000  Uiso   1.00
N330   N     0.87154   0.37599   0.25086   0.00000  Uiso   1.00
H331   H     0.85000   0.36610   0.27692   0.00000  Uiso   1.00
H332   H     0.90931   0.36725   0.26041   0.00000  Uiso   1.00
C333   C     0.74971   0.45933   0.03683   0.00000  Uiso   1.00
O334   O     0.70834   0.47522   0.02852   0.00000  Uiso   1.00
O335   O     0.75271   0.42132   0.05855   0.00000  Uiso   1.00
H336   H     0.71809   0.40985   0.06598   0.00000  Uiso   1.00
C337   C     0.91696   0.54067   0.29651   0.00000  Uiso   1.00
O338   O     0.95833   0.52478   0.30483   0.00000  Uiso   1.00
O339   O     0.91396   0.57867   0.27477   0.00000  Uiso   1.00
H340   H     0.94858   0.59015   0.26734   0.00000  Uiso   1.00
C341   C     0.75643   0.45144   0.27469   0.00000  Uiso   1.00
O342   O     0.71255   0.46261   0.26483   0.00000  Uiso   1.00
O343   O     0.76800   0.41183   0.26293   0.00000  Uiso   1.00
H344   H     0.73766   0.39612   0.24404   0.00000  Uiso   1.00
C345   C     0.91023   0.54856   0.05864   0.00000  Uiso   1.00
O346   O     0.95412   0.53740   0.06850   0.00000  Uiso   1.00
O347   O     0.89867   0.58818   0.07040   0.00000  Uiso   1.00
H348   H     0.92900   0.60389   0.08929   0.00000  Uiso   1.00
C349   C     0.16781   0.75426   0.16687   0.00000  Uiso   1.00
C350   C     0.16552   0.91241   0.16647   0.00000  Uiso   1.00
C351   C     0.06812   0.83146   0.15500   0.00000  Uiso   1.00
C352   C     0.26521   0.83521   0.17834   0.00000  Uiso   1.00
C353   C     0.01285   0.82372   0.15156   0.00000  Uiso   1.00
C354   C     0.32049   0.84294   0.18177   0.00000  Uiso   1.00
C355   C     0.15243   0.68782   0.12570   0.00000  Uiso   1.00
C356   C     0.18090   0.97885   0.20764   0.00000  Uiso   1.00
C357   C     0.14925   0.97850   0.12487   0.00000  Uiso   1.00
C358   C     0.18408   0.68817   0.20847   0.00000  Uiso   1.00
C359   C     0.16467   0.95708   0.16612   0.00000  Uiso   1.00
C360   C     0.16866   0.70959   0.16721   0.00000  Uiso   1.00
C361   C     0.12839   0.81232   0.01953   0.00000  Uiso   1.00
C362   C     0.20494   0.85435   0.31380   0.00000  Uiso   1.00
C363   C     0.12907   0.81150   0.30372   0.00000  Uiso   1.00
C364   C     0.20426   0.85516   0.02961   0.00000  Uiso   1.00
Cu365  Cu    0.16667   0.83334   0.21355   0.00000  Uiso   1.00
Cu366  Cu    0.16667   0.83333   0.11978   0.00000  Uiso   1.00
H367   H     0.14157   0.70366   0.09357   0.00000  Uiso   1.00
H368   H     0.19176   0.96301   0.23976   0.00000  Uiso   1.00
N369   N     0.16668   0.83334   0.28403   0.00000  Uiso   1.00
N370   N     0.16665   0.83332   0.04931   0.00000  Uiso   1.00
O371   O     0.16666   0.77322   0.20625   0.00000  Uiso   1.00
O372   O     0.16667   0.89345   0.12709   0.00000  Uiso   1.00
O373   O     0.16666   0.77321   0.12706   0.00000  Uiso   1.00
O374   O     0.16667   0.89346   0.20628   0.00000  Uiso   1.00
O375   O     0.09161   0.83334   0.19712   0.00000  Uiso   1.00
O376   O     0.24172   0.83333   0.13621   0.00000  Uiso   1.00
O377   O     0.09161   0.83333   0.11793   0.00000  Uiso   1.00
O378   O     0.24172   0.83334   0.21540   0.00000  Uiso   1.00
N379   N     0.32186   0.78958   0.12389   0.00000  Uiso   1.00
H380   H     0.32201   0.79652   0.08894   0.00000  Uiso   1.00
H381   H     0.01005   0.76382   0.13181   0.00000  Uiso   1.00
N382   N     0.01147   0.87708   0.20945   0.00000  Uiso   1.00
H383   H     0.01131   0.87014   0.24440   0.00000  Uiso   1.00
H384   H     0.32329   0.90284   0.20152   0.00000  Uiso   1.00
N385   N     0.12845   0.95734   0.08247   0.00000  Uiso   1.00
H386   H     0.14999   0.96723   0.05641   0.00000  Uiso   1.00
H387   H     0.09068   0.96609   0.07293   0.00000  Uiso   1.00
N388   N     0.20487   0.70932   0.25086   0.00000  Uiso   1.00
H389   H     0.18333   0.69944   0.27692   0.00000  Uiso   1.00
H390   H     0.24264   0.70058   0.26041   0.00000  Uiso   1.00
C391   C     0.08304   0.79266   0.03683   0.00000  Uiso   1.00
O392   O     0.04167   0.80856   0.02852   0.00000  Uiso   1.00
O393   O     0.08604   0.75466   0.05855   0.00000  Uiso   1.00
H394   H     0.05142   0.74318   0.06598   0.00000  Uiso   1.00
C395   C     0.25029   0.87400   0.29651   0.00000  Uiso   1.00
O396   O     0.29166   0.85812   0.30483   0.00000  Uiso   1.00
O397   O     0.24729   0.91200   0.27477   0.00000  Uiso   1.00
H398   H     0.28191   0.92348   0.26734   0.00000  Uiso   1.00
C399   C     0.08977   0.78477   0.27469   0.00000  Uiso   1.00
O400   O     0.04588   0.79594   0.26483   0.00000  Uiso   1.00
O401   O     0.10133   0.74516   0.26293   0.00000  Uiso   1.00
H402   H     0.07100   0.72945   0.24404   0.00000  Uiso   1.00
C403   C     0.24357   0.88190   0.05864   0.00000  Uiso   1.00
O404   O     0.28745   0.87073   0.06850   0.00000  Uiso   1.00
O405   O     0.23200   0.92151   0.07040   0.00000  Uiso   1.00
H406   H     0.26233   0.93722   0.08929   0.00000  Uiso   1.00
C407   C     0.50114   0.75426   0.16687   0.00000  Uiso   1.00
C408   C     0.49886   0.91241   0.16647   0.00000  Uiso   1.00
C409   C     0.40146   0.83146   0.15500   0.00000  Uiso   1.00
C410   C     0.59854   0.83521   0.17834   0.00000  Uiso   1.00
C411   C     0.34618   0.82372   0.15156   0.00000  Uiso   1.00
C412   C     0.65382   0.84294   0.18177   0.00000  Uiso   1.00
C413   C     0.48576   0.68782   0.12570   0.00000  Uiso   1.00
C414   C     0.51424   0.97885   0.20764   0.00000  Uiso   1.00
C415   C     0.48258   0.97850   0.12487   0.00000  Uiso   1.00
C416   C     0.51742   0.68817   0.20847   0.00000  Uiso   1.00
C417   C     0.49800   0.95708   0.16612   0.00000  Uiso   1.00
C418   C     0.50199   0.70959   0.16721   0.00000  Uiso   1.00
C419   C     0.46173   0.81232   0.01953   0.00000  Uiso   1.00
C420   C     0.53827   0.85435   0.31380   0.00000  Uiso   1.00
C421   C     0.46241   0.81150   0.30372   0.00000  Uiso   1.00
C422   C     0.53759   0.85516   0.02961   0.00000  Uiso   1.00
Cu423  Cu    0.50000   0.83334   0.21355   0.00000  Uiso   1.00
Cu424  Cu    0.50000   0.83333   0.11978   0.00000  Uiso   1.00
H425   H     0.47490   0.70366   0.09357   0.00000  Uiso   1.00
H426   H     0.52509   0.96301   0.23976   0.00000  Uiso   1.00
N427   N     0.50001   0.83334   0.28403   0.00000  Uiso   1.00
N428   N     0.49999   0.83332   0.04931   0.00000  Uiso   1.00
O429   O     0.50000   0.77322   0.20625   0.00000  Uiso   1.00
O430   O     0.50000   0.89345   0.12709   0.00000  Uiso   1.00
O431   O     0.50000   0.77321   0.12706   0.00000  Uiso   1.00
O432   O     0.50000   0.89346   0.20628   0.00000  Uiso   1.00
O433   O     0.42495   0.83334   0.19712   0.00000  Uiso   1.00
O434   O     0.57505   0.83333   0.13621   0.00000  Uiso   1.00
O435   O     0.42494   0.83333   0.11793   0.00000  Uiso   1.00
O436   O     0.57506   0.83334   0.21540   0.00000  Uiso   1.00
N437   N     0.65520   0.78958   0.12389   0.00000  Uiso   1.00
H438   H     0.65534   0.79652   0.08894   0.00000  Uiso   1.00
H439   H     0.34338   0.76382   0.13181   0.00000  Uiso   1.00
N440   N     0.34480   0.87708   0.20945   0.00000  Uiso   1.00
H441   H     0.34465   0.87014   0.24440   0.00000  Uiso   1.00
H442   H     0.65663   0.90284   0.20152   0.00000  Uiso   1.00
N443   N     0.46179   0.95734   0.08247   0.00000  Uiso   1.00
H444   H     0.48333   0.96723   0.05641   0.00000  Uiso   1.00
H445   H     0.42401   0.96609   0.07293   0.00000  Uiso   1.00
N446   N     0.53821   0.70932   0.25086   0.00000  Uiso   1.00
H447   H     0.51666   0.69944   0.27692   0.00000  Uiso   1.00
H448   H     0.57598   0.70058   0.26041   0.00000  Uiso   1.00
C449   C     0.41638   0.79266   0.03683   0.00000  Uiso   1.00
O450   O     0.37501   0.80856   0.02852   0.00000  Uiso   1.00
O451   O     0.41937   0.75466   0.05855   0.00000  Uiso   1.00
H452   H     0.38475   0.74318   0.06598   0.00000  Uiso   1.00
C453   C     0.58362   0.87400   0.29651   0.00000  Uiso   1.00
O454   O     0.62500   0.85812   0.30483   0.00000  Uiso   1.00
O455   O     0.58063   0.91200   0.27477   0.00000  Uiso   1.00
H456   H     0.61524   0.92348   0.26734   0.00000  Uiso   1.00
C457   C     0.42310   0.78477   0.27469   0.00000  Uiso   1.00
O458   O     0.37921   0.79594   0.26483   0.00000  Uiso   1.00
O459   O     0.43466   0.74516   0.26293   0.00000  Uiso   1.00
H460   H     0.40433   0.72945   0.24404   0.00000  Uiso   1.00
C461   C     0.57690   0.88190   0.05864   0.00000  Uiso   1.00
O462   O     0.62078   0.87073   0.06850   0.00000  Uiso   1.00
O463   O     0.56533   0.92151   0.07040   0.00000  Uiso   1.00
H464   H     0.59566   0.93722   0.08929   0.00000  Uiso   1.00
C465   C     0.83448   0.75426   0.16687   0.00000  Uiso   1.00
C466   C     0.83219   0.91241   0.16647   0.00000  Uiso   1.00
C467   C     0.73479   0.83146   0.15500   0.00000  Uiso   1.00
C468   C     0.93188   0.83521   0.17834   0.00000  Uiso   1.00
C469   C     0.67951   0.82372   0.15156   0.00000  Uiso   1.00
C470   C     0.98715   0.84294   0.18177   0.00000  Uiso   1.00
C471   C     0.81909   0.68782   0.12570   0.00000  Uiso   1.00
C472   C     0.84757   0.97885   0.20764   0.00000  Uiso   1.00
C473   C     0.81591   0.97850   0.12487   0.00000  Uiso   1.00
C474   C     0.85075   0.68817   0.20847   0.00000  Uiso   1.00
C475   C     0.83134   0.95708   0.16612   0.00000  Uiso   1.00
C476   C     0.83533   0.70959   0.16721   0.00000  Uiso   1.00
C477   C     0.79506   0.81232   0.01953   0.00000  Uiso   1.00
C478   C     0.87161   0.85435   0.31380   0.00000  Uiso   1.00
C479   C     0.79574   0.81150   0.30372   0.00000  Uiso   1.00
C480   C     0.87093   0.85516   0.02961   0.00000  Uiso   1.00
Cu481  Cu    0.83333   0.83334   0.21355   0.00000  Uiso   1.00
Cu482  Cu    0.83333   0.83333   0.11978   0.00000  Uiso   1.00
H483   H     0.80824   0.70366   0.09357   0.00000  Uiso   1.00
H484   H     0.85843   0.96301   0.23976   0.00000  Uiso   1.00
N485   N     0.83335   0.83334   0.28403   0.00000  Uiso   1.00
N486   N     0.83332   0.83332   0.04931   0.00000  Uiso   1.00
O487   O     0.83333   0.77322   0.20625   0.00000  Uiso   1.00
O488   O     0.83334   0.89345   0.12709   0.00000  Uiso   1.00
O489   O     0.83333   0.77321   0.12706   0.00000  Uiso   1.00
O490   O     0.83334   0.89346   0.20628   0.00000  Uiso   1.00
O491   O     0.75828   0.83334   0.19712   0.00000  Uiso   1.00
O492   O     0.90839   0.83333   0.13621   0.00000  Uiso   1.00
O493   O     0.75828   0.83333   0.11793   0.00000  Uiso   1.00
O494   O     0.90839   0.83334   0.21540   0.00000  Uiso   1.00
N495   N     0.98853   0.78958   0.12389   0.00000  Uiso   1.00
H496   H     0.98868   0.79652   0.08894   0.00000  Uiso   1.00
H497   H     0.67672   0.76382   0.13181   0.00000  Uiso   1.00
N498   N     0.67814   0.87708   0.20945   0.00000  Uiso   1.00
H499   H     0.67798   0.87014   0.24440   0.00000  Uiso   1.00
H500   H     0.98996   0.90284   0.20152   0.00000  Uiso   1.00
N501   N     0.79512   0.95734   0.08247   0.00000  Uiso   1.00
H502   H     0.81666   0.96723   0.05641   0.00000  Uiso   1.00
H503   H     0.75735   0.96609   0.07293   0.00000  Uiso   1.00
N504   N     0.87154   0.70932   0.25086   0.00000  Uiso   1.00
H505   H     0.85000   0.69944   0.27692   0.00000  Uiso   1.00
H506   H     0.90931   0.70058   0.26041   0.00000  Uiso   1.00
C507   C     0.74971   0.79266   0.03683   0.00000  Uiso   1.00
O508   O     0.70834   0.80856   0.02852   0.00000  Uiso   1.00
O509   O     0.75271   0.75466   0.05855   0.00000  Uiso   1.00
H510   H     0.71809   0.74318   0.06598   0.00000  Uiso   1.00
C511   C     0.91696   0.87400   0.29651   0.00000  Uiso   1.00
O512   O     0.95833   0.85812   0.30483   0.00000  Uiso   1.00
O513   O     0.91396   0.91200   0.27477   0.00000  Uiso   1.00
H514   H     0.94858   0.92348   0.26734   0.00000  Uiso   1.00
C515   C     0.75643   0.78477   0.27469   0.00000  Uiso   1.00
O516   O     0.71255   0.79594   0.26483   0.00000  Uiso   1.00
O517   O     0.76800   0.74516   0.26293   0.00000  Uiso   1.00
H518   H     0.73766   0.72945   0.24404   0.00000  Uiso   1.00
C519   C     0.91023   0.88190   0.05864   0.00000  Uiso   1.00
O520   O     0.95412   0.87073   0.06850   0.00000  Uiso   1.00
O521   O     0.89867   0.92151   0.07040   0.00000  Uiso   1.00
H522   H     0.92900   0.93722   0.08929   0.00000  Uiso   1.00
C523   C     0.16781   0.08760   0.50020   0.00000  Uiso   1.00
C524   C     0.16552   0.24574   0.49980   0.00000  Uiso   1.00
C525   C     0.06812   0.16479   0.48833   0.00000  Uiso   1.00
C526   C     0.26521   0.16854   0.51167   0.00000  Uiso   1.00
C527   C     0.01285   0.15706   0.48490   0.00000  Uiso   1.00
C528   C     0.32049   0.17628   0.51510   0.00000  Uiso   1.00
C529   C     0.15243   0.02115   0.45903   0.00000  Uiso   1.00
C530   C     0.18090   0.31218   0.54097   0.00000  Uiso   1.00
C531   C     0.14925   0.31183   0.45820   0.00000  Uiso   1.00
C532   C     0.18408   0.02150   0.54180   0.00000  Uiso   1.00
C533   C     0.16467   0.29041   0.49946   0.00000  Uiso   1.00
C534   C     0.16866   0.04292   0.50054   0.00000  Uiso   1.00
C535   C     0.12839   0.14565   0.35286   0.00000  Uiso   1.00
C536   C     0.20494   0.18768   0.64714   0.00000  Uiso   1.00
C537   C     0.12907   0.14484   0.63706   0.00000  Uiso   1.00
C538   C     0.20426   0.18850   0.36294   0.00000  Uiso   1.00
Cu539  Cu    0.16667   0.16667   0.54689   0.00000  Uiso   1.00
Cu540  Cu    0.16667   0.16666   0.45311   0.00000  Uiso   1.00
H541   H     0.14157   0.03699   0.42690   0.00000  Uiso   1.00
H542   H     0.19176   0.29634   0.57310   0.00000  Uiso   1.00
N543   N     0.16668   0.16668   0.61736   0.00000  Uiso   1.00
N544   N     0.16665   0.16666   0.38264   0.00000  Uiso   1.00
O545   O     0.16666   0.10655   0.53958   0.00000  Uiso   1.00
O546   O     0.16667   0.22678   0.46042   0.00000  Uiso   1.00
O547   O     0.16666   0.10654   0.46039   0.00000  Uiso   1.00
O548   O     0.16667   0.22679   0.53961   0.00000  Uiso   1.00
O549   O     0.09161   0.16667   0.53046   0.00000  Uiso   1.00
O550   O     0.24172   0.16666   0.46954   0.00000  Uiso   1.00
O551   O     0.09161   0.16666   0.45127   0.00000  Uiso   1.00
O552   O     0.24172   0.16667   0.54873   0.00000  Uiso   1.00
N553   N     0.32186   0.12292   0.45722   0.00000  Uiso   1.00
H554   H     0.32201   0.12985   0.42227   0.00000  Uiso   1.00
H555   H     0.01005   0.09716   0.46515   0.00000  Uiso   1.00
N556   N     0.01147   0.21041   0.54278   0.00000  Uiso   1.00
H557   H     0.01131   0.20348   0.57773   0.00000  Uiso   1.00
H558   H     0.32329   0.23617   0.53485   0.00000  Uiso   1.00
N559   N     0.12845   0.29068   0.41581   0.00000  Uiso   1.00
H560   H     0.14999   0.30056   0.38975   0.00000  Uiso   1.00
H561   H     0.09068   0.29942   0.40626   0.00000  Uiso   1.00
N562   N     0.20487   0.04266   0.58419   0.00000  Uiso   1.00
H563   H     0.18333   0.03277   0.61025   0.00000  Uiso   1.00
H564   H     0.24264   0.03391   0.59374   0.00000  Uiso   1.00
C565   C     0.08304   0.12600   0.37016   0.00000  Uiso   1.00
O566   O     0.04167   0.14189   0.36185   0.00000  Uiso   1.00
O567   O     0.08604   0.08799   0.39188   0.00000  Uiso   1.00
H568   H     0.05142   0.07651   0.39931   0.00000  Uiso   1.00
C569   C     0.25029   0.20734   0.62984   0.00000  Uiso   1.00
O570   O     0.29166   0.19145   0.63816   0.00000  Uiso   1.00
O571   O     0.24729   0.24534   0.60810   0.00000  Uiso   1.00
H572   H     0.28191   0.25681   0.60068   0.00000  Uiso   1.00
C573   C     0.08977   0.11811   0.60803   0.00000  Uiso   1.00
O574   O     0.04588   0.12927   0.59817   0.00000  Uiso   1.00
O575   O     0.10133   0.07849   0.59626   0.00000  Uiso   1.00
H576   H     0.07100   0.06278   0.57737   0.00000  Uiso   1.00
C577   C     0.24357   0.21523   0.39197   0.00000  Uiso   1.00
O578   O     0.28745   0.20406   0.40184   0.00000  Uiso   1.00
O579   O     0.23200   0.25484   0.40374   0.00000  Uiso   1.00
H580   H     0.26233   0.27055   0.42263   0.00000  Uiso   1.00
C581   C     0.50114   0.08760   0.50020   0.00000  Uiso   1.00
C582   C     0.49886   0.24574   0.49980   0.00000  Uiso   1.00
C583   C     0.40146   0.16479   0.48833   0.00000  Uiso   1.00
C584   C     0.59854   0.16854   0.51167   0.00000  Uiso   1.00
C585   C     0.34618   0.15706   0.48490   0.00000  Uiso   1.00
C586   C     0.65382   0.17628   0.51510   0.00000  Uiso   1.00
C587   C     0.48576   0.02115   0.45903   0.00000  Uiso   1.00
C588   C     0.51424   0.31218   0.54097   0.00000  Uiso   1.00
C589   C     0.48258   0.31183   0.45820   0.00000  Uiso   1.00
C590   C     0.51742   0.02150   0.54180   0.00000  Uiso   1.00
C591   C     0.49800   0.29041   0.49946   0.00000  Uiso   1.00
C592   C     0.50199   0.04292   0.50054   0.00000  Uiso   1.00
C593   C     0.46173   0.14565   0.35286   0.00000  Uiso   1.00
C594   C     0.53827   0.18768   0.64714   0.00000  Uiso   1.00
C595   C     0.46241   0.14484   0.63706   0.00000  Uiso   1.00
C596   C     0.53759   0.18850   0.36294   0.00000  Uiso   1.00
Cu597  Cu    0.50000   0.16667   0.54689   0.00000  Uiso   1.00
Cu598  Cu    0.50000   0.16666   0.45311   0.00000  Uiso   1.00
H599   H     0.47490   0.03699   0.42690   0.00000  Uiso   1.00
H600   H     0.52509   0.29634   0.57310   0.00000  Uiso   1.00
N601   N     0.50001   0.16668   0.61736   0.00000  Uiso   1.00
N602   N     0.49999   0.16666   0.38264   0.00000  Uiso   1.00
O603   O     0.50000   0.10655   0.53958   0.00000  Uiso   1.00
O604   O     0.50000   0.22678   0.46042   0.00000  Uiso   1.00
O605   O     0.50000   0.10654   0.46039   0.00000  Uiso   1.00
O606   O     0.50000   0.22679   0.53961   0.00000  Uiso   1.00
O607   O     0.42495   0.16667   0.53046   0.00000  Uiso   1.00
O608   O     0.57505   0.16666   0.46954   0.00000  Uiso   1.00
O609   O     0.42494   0.16666   0.45127   0.00000  Uiso   1.00
O610   O     0.57506   0.16667   0.54873   0.00000  Uiso   1.00
N611   N     0.65520   0.12292   0.45722   0.00000  Uiso   1.00
H612   H     0.65534   0.12985   0.42227   0.00000  Uiso   1.00
H613   H     0.34338   0.09716   0.46515   0.00000  Uiso   1.00
N614   N     0.34480   0.21041   0.54278   0.00000  Uiso   1.00
H615   H     0.34465   0.20348   0.57773   0.00000  Uiso   1.00
H616   H     0.65663   0.23617   0.53485   0.00000  Uiso   1.00
N617   N     0.46179   0.29068   0.41581   0.00000  Uiso   1.00
H618   H     0.48333   0.30056   0.38975   0.00000  Uiso   1.00
H619   H     0.42401   0.29942   0.40626   0.00000  Uiso   1.00
N620   N     0.53821   0.04266   0.58419   0.00000  Uiso   1.00
H621   H     0.51666   0.03277   0.61025   0.00000  Uiso   1.00
H622   H     0.57598   0.03391   0.59374   0.00000  Uiso   1.00
C623   C     0.41638   0.12600   0.37016   0.00000  Uiso   1.00
O624   O     0.37501   0.14189   0.36185   0.00000  Uiso   1.00
O625   O     0.41937   0.08799   0.39188   0.00000  Uiso   1.00
H626   H     0.38475   0.07651   0.39931   0.00000  Uiso   1.00
C627   C     0.58362   0.20734   0.62984   0.00000  Uiso   1.00
O628   O     0.62500   0.19145   0.63816   0.00000  Uiso   1.00
O629   O     0.58063   0.24534   0.60810   0.00000  Uiso   1.00
H630   H     0.61524   0.25681   0.60068   0.00000  Uiso   1.00
C631   C     0.42310   0.11811   0.60803   0.00000  Uiso   1.00
O632   O     0.37921   0.12927   0.59817   0.00000  Uiso   1.00
O633   O     0.43466   0.07849   0.59626   0.00000  Uiso   1.00
H634   H     0.40433   0.06278   0.57737   0.00000  Uiso   1.00
C635   C     0.57690   0.21523   0.39197   0.00000  Uiso   1.00
O636   O     0.62078   0.20406   0.40184   0.00000  Uiso   1.00
O637   O     0.56533   0.25484   0.40374   0.00000  Uiso   1.00
H638   H     0.59566   0.27055   0.42263   0.00000  Uiso   1.00
C639   C     0.83448   0.08760   0.50020   0.00000  Uiso   1.00
C640   C     0.83219   0.24574   0.49980   0.00000  Uiso   1.00
C641   C     0.73479   0.16479   0.48833   0.00000  Uiso   1.00
C642   C     0.93188   0.16854   0.51167   0.00000  Uiso   1.00
C643   C     0.67951   0.15706   0.48490   0.00000  Uiso   1.00
C644   C     0.98715   0.17628   0.51510   0.00000  Uiso   1.00
C645   C     0.81909   0.02115   0.45903   0.00000  Uiso   1.00
C646   C     0.84757   0.31218   0.54097   0.00000  Uiso   1.00
C647   C     0.81591   0.31183   0.45820   0.00000  Uiso   1.00
C648   C     0.85075   0.02150   0.54180   0.00000  Uiso   1.00
C649   C     0.83134   0.29041   0.49946   0.00000  Uiso   1.00
C650   C     0.83533   0.04292   0.50054   0.00000  Uiso   1.00
C651   C     0.79506   0.14565   0.35286   0.00000  Uiso   1.00
C652   C     0.87161   0.18768   0.64714   0.00000  Uiso   1.00
C653   C     0.79574   0.14484   0.63706   0.00000  Uiso   1.00
C654   C     0.87093   0.18850   0.36294   0.00000  Uiso   1.00
Cu655  Cu    0.83333   0.16667   0.54689   0.00000  Uiso   1.00
Cu656  Cu    0.83333   0.16666   0.45311   0.00000  Uiso   1.00
H657   H     0.80824   0.03699   0.42690   0.00000  Uiso   1.00
H658   H     0.85843   0.29634   0.57310   0.00000  Uiso   1.00
N659   N     0.83335   0.16668   0.61736   0.00000  Uiso   1.00
N660   N     0.83332   0.16666   0.38264   0.00000  Uiso   1.00
O661   O     0.83333   0.10655   0.53958   0.00000  Uiso   1.00
O662   O     0.83334   0.22678   0.46042   0.00000  Uiso   1.00
O663   O     0.83333   0.10654   0.46039   0.00000  Uiso   1.00
O664   O     0.83334   0.22679   0.53961   0.00000  Uiso   1.00
O665   O     0.75828   0.16667   0.53046   0.00000  Uiso   1.00
O666   O     0.90839   0.16666   0.46954   0.00000  Uiso   1.00
O667   O     0.75828   0.16666   0.45127   0.00000  Uiso   1.00
O668   O     0.90839   0.16667   0.54873   0.00000  Uiso   1.00
N669   N     0.98853   0.12292   0.45722   0.00000  Uiso   1.00
H670   H     0.98868   0.12985   0.42227   0.00000  Uiso   1.00
H671   H     0.67672   0.09716   0.46515   0.00000  Uiso   1.00
N672   N     0.67814   0.21041   0.54278   0.00000  Uiso   1.00
H673   H     0.67798   0.20348   0.57773   0.00000  Uiso   1.00
H674   H     0.98996   0.23617   0.53485   0.00000  Uiso   1.00
N675   N     0.79512   0.29068   0.41581   0.00000  Uiso   1.00
H676   H     0.81666   0.30056   0.38975   0.00000  Uiso   1.00
H677   H     0.75735   0.29942   0.40626   0.00000  Uiso   1.00
N678   N     0.87154   0.04266   0.58419   0.00000  Uiso   1.00
H679   H     0.85000   0.03277   0.61025   0.00000  Uiso   1.00
H680   H     0.90931   0.03391   0.59374   0.00000  Uiso   1.00
C681   C     0.74971   0.12600   0.37016   0.00000  Uiso   1.00
O682   O     0.70834   0.14189   0.36185   0.00000  Uiso   1.00
O683   O     0.75271   0.08799   0.39188   0.00000  Uiso   1.00
H684   H     0.71809   0.07651   0.39931   0.00000  Uiso   1.00
C685   C     0.91696   0.20734   0.62984   0.00000  Uiso   1.00
O686   O     0.95833   0.19145   0.63816   0.00000  Uiso   1.00
O687   O     0.91396   0.24534   0.60810   0.00000  Uiso   1.00
H688   H     0.94858   0.25681   0.60068   0.00000  Uiso   1.00
C689   C     0.75643   0.11811   0.60803   0.00000  Uiso   1.00
O690   O     0.71255   0.12927   0.59817   0.00000  Uiso   1.00
O691   O     0.76800   0.07849   0.59626   0.00000  Uiso   1.00
H692   H     0.73766   0.06278   0.57737   0.00000  Uiso   1.00
C693   C     0.91023   0.21523   0.39197   0.00000  Uiso   1.00
O694   O     0.95412   0.20406   0.40184   0.00000  Uiso   1.00
O695   O     0.89867   0.25484   0.40374   0.00000  Uiso   1.00
H696   H     0.92900   0.27055   0.42263   0.00000  Uiso   1.00
C697   C     0.16781   0.42093   0.50020   0.00000  Uiso   1.00
C698   C     0.16552   0.57907   0.49980   0.00000  Uiso   1.00
C699   C     0.06812   0.49812   0.48833   0.00000  Uiso   1.00
C700   C     0.26521   0.50188   0.51167   0.00000  Uiso   1.00
C701   C     0.01285   0.49039   0.48490   0.00000  Uiso   1.00
C702   C     0.32049   0.50961   0.51510   0.00000  Uiso   1.00
C703   C     0.15243   0.35449   0.45903   0.00000  Uiso   1.00
C704   C     0.18090   0.64551   0.54097   0.00000  Uiso   1.00
C705   C     0.14925   0.64517   0.45820   0.00000  Uiso   1.00
C706   C     0.18408   0.35483   0.54180   0.00000  Uiso   1.00
C707   C     0.16467   0.62375   0.49946   0.00000  Uiso   1.00
C708   C     0.16866   0.37625   0.50054   0.00000  Uiso   1.00
C709   C     0.12839   0.47899   0.35286   0.00000  Uiso   1.00
C710   C     0.20494   0.52101   0.64714   0.00000  Uiso   1.00
C711   C     0.12907   0.47817   0.63706   0.00000  Uiso   1.00
C712   C     0.20426   0.52183   0.36294   0.00000  Uiso   1.00
Cu713  Cu    0.16667   0.50001   0.54689   0.00000  Uiso   1.00
Cu714  Cu    0.16667   0.49999   0.45311   0.00000  Uiso   1.00
H715   H     0.14157   0.37032   0.42690   0.00000  Uiso   1.00
H716   H     0.19176   0.62968   0.57310   0.00000  Uiso   1.00
N717   N     0.16668   0.50001   0.61736   0.00000  Uiso   1.00
N718   N     0.16665   0.49999   0.38264   0.00000  Uiso   1.00
O719   O     0.16666   0.43989   0.53958   0.00000  Uiso   1.00
O720   O     0.16667   0.56011   0.46042   0.00000  Uiso   1.00
O721   O     0.16666   0.43988   0.46039   0.00000  Uiso   1.00
O722   O     0.16667   0.56012   0.53961   0.00000  Uiso   1.00
O723   O     0.09161   0.50000   0.53046   0.00000  Uiso   1.00
O724   O     0.24172   0.50000   0.46954   0.00000  Uiso   1.00
O725   O     0.09161   0.49999   0.45127   0.00000  Uiso   1.00
O726   O     0.24172   0.50001   0.54873   0.00000  Uiso   1.00
N727   N     0.32186   0.45625   0.45722   0.00000  Uiso   1.00
H728   H     0.32201   0.46318   0.42227   0.00000  Uiso   1.00
H729   H     0.01005   0.43049   0.46515   0.00000  Uiso   1.00
N730   N     0.01147   0.54375   0.54278   0.00000  Uiso   1.00
H731   H     0.01131   0.53681   0.57773   0.00000  Uiso   1.00
H732   H     0.32329   0.56951   0.53485   0.00000  Uiso   1.00
N733   N     0.12845   0.62401   0.41581   0.00000  Uiso   1.00
H734   H     0.14999   0.63390   0.38975   0.00000  Uiso   1.00
H735   H     0.09068   0.63275   0.40626   0.00000  Uiso   1.00
N736   N     0.20487   0.37599   0.58419   0.00000  Uiso   1.00
H737   H     0.18333   0.36610   0.61025   0.00000  Uiso   1.00
H738   H     0.24264   0.36725   0.59374   0.00000  Uiso   1.00
C739   C     0.08304   0.45933   0.37016   0.00000  Uiso   1.00
O740   O     0.04167   0.47522   0.36185   0.00000  Uiso   1.00
O741   O     0.08604   0.42132   0.39188   0.00000  Uiso   1.00
H742   H     0.05142   0.40985   0.39931   0.00000  Uiso   1.00
C743   C     0.25029   0.54067   0.62984   0.00000  Uiso   1.00
O744   O     0.29166   0.52478   0.63816   0.00000  Uiso   1.00
O745   O     0.24729   0.57867   0.60810   0.00000  Uiso   1.00
H746   H     0.28191   0.59015   0.60068   0.00000  Uiso   1.00
C747   C     0.08977   0.45144   0.60803   0.00000  Uiso   1.00
O748   O     0.04588   0.46261   0.59817   0.00000  Uiso   1.00
O749   O     0.10133   0.41183   0.59626   0.00000  Uiso   1.00
H750   H     0.07100   0.39612   0.57737   0.00000  Uiso   1.00
C751   C     0.24357   0.54856   0.39197   0.00000  Uiso   1.00
O752   O     0.28745   0.53740   0.40184   0.00000  Uiso   1.00
O753   O     0.23200   0.58818   0.40374   0.00000  Uiso   1.00
H754   H     0.26233   0.60389   0.42263   0.00000  Uiso   1.00
C755   C     0.50114   0.42093   0.50020   0.00000  Uiso   1.00
C756   C     0.49886   0.57907   0.49980   0.00000  Uiso   1.00
C757   C     0.40146   0.49812   0.48833   0.00000  Uiso   1.00
C758   C     0.59854   0.50188   0.51167   0.00000  Uiso   1.00
C759   C     0.34618   0.49039   0.48490   0.00000  Uiso   1.00
C760   C     0.65382   0.50961   0.51510   0.00000  Uiso   1.00
C761   C     0.48576   0.35449   0.45903   0.00000  Uiso   1.00
C762   C     0.51424   0.64551   0.54097   0.00000  Uiso   1.00
C763   C     0.48258   0.64517   0.45820   0.00000  Uiso   1.00
C764   C     0.51742   0.35483   0.54180   0.00000  Uiso   1.00
C765   C     0.49800   0.62375   0.49946   0.00000  Uiso   1.00
C766   C     0.50199   0.37625   0.50054   0.00000  Uiso   1.00
C767   C     0.46173   0.47899   0.35286   0.00000  Uiso   1.00
C768   C     0.53827   0.52101   0.64714   0.00000  Uiso   1.00
C769   C     0.46241   0.47817   0.63706   0.00000  Uiso   1.00
C770   C     0.53759   0.52183   0.36294   0.00000  Uiso   1.00
Cu771  Cu    0.50000   0.50001   0.54689   0.00000  Uiso   1.00
Cu772  Cu    0.50000   0.49999   0.45311   0.00000  Uiso   1.00
H773   H     0.47490   0.37032   0.42690   0.00000  Uiso   1.00
H774   H     0.52509   0.62968   0.57310   0.00000  Uiso   1.00
N775   N     0.50001   0.50001   0.61736   0.00000  Uiso   1.00
N776   N     0.49999   0.49999   0.38264   0.00000  Uiso   1.00
O777   O     0.50000   0.43989   0.53958   0.00000  Uiso   1.00
O778   O     0.50000   0.56011   0.46042   0.00000  Uiso   1.00
O779   O     0.50000   0.43988   0.46039   0.00000  Uiso   1.00
O780   O     0.50000   0.56012   0.53961   0.00000  Uiso   1.00
O781   O     0.42495   0.50000   0.53046   0.00000  Uiso   1.00
O782   O     0.57505   0.50000   0.46954   0.00000  Uiso   1.00
O783   O     0.42494   0.49999   0.45127   0.00000  Uiso   1.00
O784   O     0.57506   0.50001   0.54873   0.00000  Uiso   1.00
N785   N     0.65520   0.45625   0.45722   0.00000  Uiso   1.00
H786   H     0.65534   0.46318   0.42227   0.00000  Uiso   1.00
H787   H     0.34338   0.43049   0.46515   0.00000  Uiso   1.00
N788   N     0.34480   0.54375   0.54278   0.00000  Uiso   1.00
H789   H     0.34465   0.53681   0.57773   0.00000  Uiso   1.00
H790   H     0.65663   0.56951   0.53485   0.00000  Uiso   1.00
N791   N     0.46179   0.62401   0.41581   0.00000  Uiso   1.00
H792   H     0.48333   0.63390   0.38975   0.00000  Uiso   1.00
H793   H     0.42401   0.63275   0.40626   0.00000  Uiso   1.00
N794   N     0.53821   0.37599   0.58419   0.00000  Uiso   1.00
H795   H     0.51666   0.36610   0.61025   0.00000  Uiso   1.00
H796   H     0.57598   0.36725   0.59374   0.00000  Uiso   1.00
C797   C     0.41638   0.45933   0.37016   0.00000  Uiso   1.00
O798   O     0.37501   0.47522   0.36185   0.00000  Uiso   1.00
O799   O     0.41937   0.42132   0.39188   0.00000  Uiso   1.00
H800   H     0.38475   0.40985   0.39931   0.00000  Uiso   1.00
C801   C     0.58362   0.54067   0.62984   0.00000  Uiso   1.00
O802   O     0.62500   0.52478   0.63816   0.00000  Uiso   1.00
O803   O     0.58063   0.57867   0.60810   0.00000  Uiso   1.00
H804   H     0.61524   0.59015   0.60068   0.00000  Uiso   1.00
C805   C     0.42310   0.45144   0.60803   0.00000  Uiso   1.00
O806   O     0.37921   0.46261   0.59817   0.00000  Uiso   1.00
O807   O     0.43466   0.41183   0.59626   0.00000  Uiso   1.00
H808   H     0.40433   0.39612   0.57737   0.00000  Uiso   1.00
C809   C     0.57690   0.54856   0.39197   0.00000  Uiso   1.00
O810   O     0.62078   0.53740   0.40184   0.00000  Uiso   1.00
O811   O     0.56533   0.58818   0.40374   0.00000  Uiso   1.00
H812   H     0.59566   0.60389   0.42263   0.00000  Uiso   1.00
C813   C     0.83448   0.42093   0.50020   0.00000  Uiso   1.00
C814   C     0.83219   0.57907   0.49980   0.00000  Uiso   1.00
C815   C     0.73479   0.49812   0.48833   0.00000  Uiso   1.00
C816   C     0.93188   0.50188   0.51167   0.00000  Uiso   1.00
C817   C     0.67951   0.49039   0.48490   0.00000  Uiso   1.00
C818   C     0.98715   0.50961   0.51510   0.00000  Uiso   1.00
C819   C     0.81909   0.35449   0.45903   0.00000  Uiso   1.00
C820   C     0.84757   0.64551   0.54097   0.00000  Uiso   1.00
C821   C     0.81591   0.64517   0.45820   0.00000  Uiso   1.00
C822   C     0.85075   0.35483   0.54180   0.00000  Uiso   1.00
C823   C     0.83134   0.62375   0.49946   0.00000  Uiso   1.00
C824   C     0.83533   0.37625   0.50054   0.00000  Uiso   1.00
C825   C     0.79506   0.47899   0.35286   0.00000  Uiso   1.00
C826   C     0.87161   0.52101   0.64714   0.00000  Uiso   1.00
C827   C     0.79574   0.47817   0.63706   0.00000  Uiso   1.00
C828   C     0.87093   0.52183   0.36294   0.00000  Uiso   1.00
Cu829  Cu    0.83333   0.50001   0.54689   0.00000  Uiso   1.00
Cu830  Cu    0.83333   0.49999   0.45311   0.00000  Uiso   1.00
H831   H     0.80824   0.37032   0.42690   0.00000  Uiso   1.00
H832   H     0.85843   0.62968   0.57310   0.00000  Uiso   1.00
N833   N     0.83335   0.50001   0.61736   0.00000  Uiso   1.00
N834   N     0.83332   0.49999   0.38264   0.00000  Uiso   1.00
O835   O     0.83333   0.43989   0.53958   0.00000  Uiso   1.00
O836   O     0.83334   0.56011   0.46042   0.00000  Uiso   1.00
O837   O     0.83333   0.43988   0.46039   0.00000  Uiso   1.00
O838   O     0.83334   0.56012   0.53961   0.00000  Uiso   1.00
O839   O     0.75828   0.50000   0.53046   0.00000  Uiso   1.00
O840   O     0.90839   0.50000   0.46954   0.00000  Uiso   1.00
O841   O     0.75828   0.49999   0.45127   0.00000  Uiso   1.00
O842   O     0.90839   0.50001   0.54873   0.00000  Uiso   1.00
N843   N     0.98853   0.45625   0.45722   0.00000  Uiso   1.00
H844   H     0.98868   0.46318   0.42227   0.00000  Uiso   1.00
H845   H     0.67672   0.43049   0.46515   0.00000  Uiso   1.00
N846   N     0.67814   0.54375   0.54278   0.00000  Uiso   1.00
H847   H     0.67798   0.53681   0.57773   0.00000  Uiso   1.00
H848   H     0.98996   0.56951   0.53485   0.00000  Uiso   1.00
N849   N     0.79512   0.62401   0.41581   0.00000  Uiso   1.00
H850   H     0.81666   0.63390   0.38975   0.00000  Uiso   1.00
H851   H     0.75735   0.63275   0.40626   0.00000  Uiso   1.00
N852   N     0.87154   0.37599   0.58419   0.00000  Uiso   1.00
H853   H     0.85000   0.36610   0.61025   0.00000  Uiso   1.00
H854   H     0.90931   0.36725   0.59374   0.00000  Uiso   1.00
C855   C     0.74971   0.45933   0.37016   0.00000  Uiso   1.00
O856   O     0.70834   0.47522   0.36185   0.00000  Uiso   1.00
O857   O     0.75271   0.42132   0.39188   0.00000  Uiso   1.00
H858   H     0.71809   0.40985   0.39931   0.00000  Uiso   1.00
C859   C     0.91696   0.54067   0.62984   0.00000  Uiso   1.00
O860   O     0.95833   0.52478   0.63816   0.00000  Uiso   1.00
O861   O     0.91396   0.57867   0.60810   0.00000  Uiso   1.00
H862   H     0.94858   0.59015   0.60068   0.00000  Uiso   1.00
C863   C     0.75643   0.45144   0.60803   0.00000  Uiso   1.00
O864   O     0.71255   0.46261   0.59817   0.00000  Uiso   1.00
O865   O     0.76800   0.41183   0.59626   0.00000  Uiso   1.00
H866   H     0.73766   0.39612   0.57737   0.00000  Uiso   1.00
C867   C     0.91023   0.54856   0.39197   0.00000  Uiso   1.00
O868   O     0.95412   0.53740   0.40184   0.00000  Uiso   1.00
O869   O     0.89867   0.58818   0.40374   0.00000  Uiso   1.00
H870   H     0.92900   0.60389   0.42263   0.00000  Uiso   1.00
C871   C     0.16781   0.75426   0.50020   0.00000  Uiso   1.00
C872   C     0.16552   0.91241   0.49980   0.00000  Uiso   1.00
C873   C     0.06812   0.83146   0.48833   0.00000  Uiso   1.00
C874   C     0.26521   0.83521   0.51167   0.00000  Uiso   1.00
C875   C     0.01285   0.82372   0.48490   0.00000  Uiso   1.00
C876   C     0.32049   0.84294   0.51510   0.00000  Uiso   1.00
C877   C     0.15243   0.68782   0.45903   0.00000  Uiso   1.00
C878   C     0.18090   0.97885   0.54097   0.00000  Uiso   1.00
C879   C     0.14925   0.97850   0.45820   0.00000  Uiso   1.00
C880   C     0.18408   0.68817   0.54180   0.00000  Uiso   1.00
C881   C     0.16467   0.95708   0.49946   0.00000  Uiso   1.00
C882   C     0.16866   0.70959   0.50054   0.00000  Uiso   1.00
C883   C     0.12839   0.81232   0.35286   0.00000  Uiso   1.00
C884   C     0.20494   0.85435   0.64714   0.00000  Uiso   1.00
C885   C     0.12907   0.81150   0.63706   0.00000  Uiso   1.00
C886   C     0.20426   0.85516   0.36294   0.00000  Uiso   1.00
Cu887  Cu    0.16667   0.83334   0.54689   0.00000  Uiso   1.00
Cu888  Cu    0.16667   0.83333   0.45311   0.00000  Uiso   1.00
H889   H     0.14157   0.70366   0.42690   0.00000  Uiso   1.00
H890   H     0.19176   0.96301   0.57310   0.00000  Uiso   1.00
N891   N     0.16668   0.83334   0.61736   0.00000  Uiso   1.00
N892   N     0.16665   0.83332   0.38264   0.00000  Uiso   1.00
O893   O     0.16666   0.77322   0.53958   0.00000  Uiso   1.00
O894   O     0.16667   0.89345   0.46042   0.00000  Uiso   1.00
O895   O     0.16666   0.77321   0.46039   0.00000  Uiso   1.00
O896   O     0.16667   0.89346   0.53961   0.00000  Uiso   1.00
O897   O     0.09161   0.83334   0.53046   0.00000  Uiso   1.00
O898   O     0.24172   0.83333   0.46954   0.00000  Uiso   1.00
O899   O     0.09161   0.83333   0.45127   0.00000  Uiso   1.00
O900   O     0.24172   0.83334   0.54873   0.00000  Uiso   1.00
N901   N     0.32186   0.78958   0.45722   0.00000  Uiso   1.00
H902   H     0.32201   0.79652   0.42227   0.00000  Uiso   1.00
H903   H     0.01005   0.76382   0.46515   0.00000  Uiso   1.00
N904   N     0.01147   0.87708   0.54278   0.00000  Uiso   1.00
H905   H     0.01131   0.87014   0.57773   0.00000  Uiso   1.00
H906   H     0.32329   0.90284   0.53485   0.00000  Uiso   1.00
N907   N     0.12845   0.95734   0.41581   0.00000  Uiso   1.00
H908   H     0.14999   0.96723   0.38975   0.00000  Uiso   1.00
H909   H     0.09068   0.96609   0.40626   0.00000  Uiso   1.00
N910   N     0.20487   0.70932   0.58419   0.00000  Uiso   1.00
H911   H     0.18333   0.69944   0.61025   0.00000  Uiso   1.00
H912   H     0.24264   0.70058   0.59374   0.00000  Uiso   1.00
C913   C     0.08304   0.79266   0.37016   0.00000  Uiso   1.00
O914   O     0.04167   0.80856   0.36185   0.00000  Uiso   1.00
O915   O     0.08604   0.75466   0.39188   0.00000  Uiso   1.00
H916   H     0.05142   0.74318   0.39931   0.00000  Uiso   1.00
C917   C     0.25029   0.87400   0.62984   0.00000  Uiso   1.00
O918   O     0.29166   0.85812   0.63816   0.00000  Uiso   1.00
O919   O     0.24729   0.91200   0.60810   0.00000  Uiso   1.00
H920   H     0.28191   0.92348   0.60068   0.00000  Uiso   1.00
C921   C     0.08977   0.78477   0.60803   0.00000  Uiso   1.00
O922   O     0.04588   0.79594   0.59817   0.00000  Uiso   1.00
O923   O     0.10133   0.74516   0.59626   0.00000  Uiso   1.00
H924   H     0.07100   0.72945   0.57737   0.00000  Uiso   1.00
C925   C     0.24357   0.88190   0.39197   0.00000  Uiso   1.00
O926   O     0.28745   0.87073   0.40184   0.00000  Uiso   1.00
O927   O     0.23200   0.92151   0.40374   0.00000  Uiso   1.00
H928   H     0.26233   0.93722   0.42263   0.00000  Uiso   1.00
C929   C     0.50114   0.75426   0.50020   0.00000  Uiso   1.00
C930   C     0.49886   0.91241   0.49980   0.00000  Uiso   1.00
C931   C     0.40146   0.83146   0.48833   0.00000  Uiso   1.00
C932   C     0.59854   0.83521   0.51167   0.00000  Uiso   1.00
C933   C     0.34618   0.82372   0.48490   0.00000  Uiso   1.00
C934   C     0.65382   0.84294   0.51510   0.00000  Uiso   1.00
C935   C     0.48576   0.68782   0.45903   0.00000  Uiso   1.00
C936   C     0.51424   0.97885   0.54097   0.00000  Uiso   1.00
C937   C     0.48258   0.97850   0.45820   0.00000  Uiso   1.00
C938   C     0.51742   0.68817   0.54180   0.00000  Uiso   1.00
C939   C     0.49800   0.95708   0.49946   0.00000  Uiso   1.00
C940   C     0.50199   0.70959   0.50054   0.00000  Uiso   1.00
C941   C     0.46173   0.81232   0.35286   0.00000  Uiso   1.00
C942   C     0.53827   0.85435   0.64714   0.00000  Uiso   1.00
C943   C     0.46241   0.81150   0.63706   0.00000  Uiso   1.00
C944   C     0.53759   0.85516   0.36294   0.00000  Uiso   1.00
Cu945  Cu    0.50000   0.83334   0.54689   0.00000  Uiso   1.00
Cu946  Cu    0.50000   0.83333   0.45311   0.00000  Uiso   1.00
H947   H     0.47490   0.70366   0.42690   0.00000  Uiso   1.00
H948   H     0.52509   0.96301   0.57310   0.00000  Uiso   1.00
N949   N     0.50001   0.83334   0.61736   0.00000  Uiso   1.00
N950   N     0.49999   0.83332   0.38264   0.00000  Uiso   1.00
O951   O     0.50000   0.77322   0.53958   0.00000  Uiso   1.00
O952   O     0.50000   0.89345   0.46042   0.00000  Uiso   1.00
O953   O     0.50000   0.77321   0.46039   0.00000  Uiso   1.00
O954   O     0.50000   0.89346   0.53961   0.00000  Uiso   1.00
O955   O     0.42495   0.83334   0.53046   0.00000  Uiso   1.00
O956   O     0.57505   0.83333   0.46954   0.00000  Uiso   1.00
O957   O     0.42494   0.83333   0.45127   0.00000  Uiso   1.00
O958   O     0.57506   0.83334   0.54873   0.00000  Uiso   1.00
N959   N     0.65520   0.78958   0.45722   0.00000  Uiso   1.00
H960   H     0.65534   0.79652   0.42227   0.00000  Uiso   1.00
H961   H     0.34338   0.76382   0.46515   0.00000  Uiso   1.00
N962   N     0.34480   0.87708   0.54278   0.00000  Uiso   1.00
H963   H     0.34465   0.87014   0.57773   0.00000  Uiso   1.00
H964   H     0.65663   0.90284   0.53485   0.00000  Uiso   1.00
N965   N     0.46179   0.95734   0.41581   0.00000  Uiso   1.00
H966   H     0.48333   0.96723   0.38975   0.00000  Uiso   1.00
H967   H     0.42401   0.96609   0.40626   0.00000  Uiso   1.00
N968   N     0.53821   0.70932   0.58419   0.00000  Uiso   1.00
H969   H     0.51666   0.69944   0.61025   0.00000  Uiso   1.00
H970   H     0.57598   0.70058   0.59374   0.00000  Uiso   1.00
C971   C     0.41638   0.79266   0.37016   0.00000  Uiso   1.00
O972   O     0.37501   0.80856   0.36185   0.00000  Uiso   1.00
O973   O     0.41937   0.75466   0.39188   0.00000  Uiso   1.00
H974   H     0.38475   0.74318   0.39931   0.00000  Uiso   1.00
C975   C     0.58362   0.87400   0.62984   0.00000  Uiso   1.00
O976   O     0.62500   0.85812   0.63816   0.00000  Uiso   1.00
O977   O     0.58063   0.91200   0.60810   0.00000  Uiso   1.00
H978   H     0.61524   0.92348   0.60068   0.00000  Uiso   1.00
C979   C     0.42310   0.78477   0.60803   0.00000  Uiso   1.00
O980   O     0.37921   0.79594   0.59817   0.00000  Uiso   1.00
O981   O     0.43466   0.74516   0.59626   0.00000  Uiso   1.00
H982   H     0.40433   0.72945   0.57737   0.00000  Uiso   1.00
C983   C     0.57690   0.88190   0.39197   0.00000  Uiso   1.00
O984   O     0.62078   0.87073   0.40184   0.00000  Uiso   1.00
O985   O     0.56533   0.92151   0.40374   0.00000  Uiso   1.00
H986   H     0.59566   0.93722   0.42263   0.00000  Uiso   1.00
C987   C     0.83448   0.75426   0.50020   0.00000  Uiso   1.00
C988   C     0.83219   0.91241   0.49980   0.00000  Uiso   1.00
C989   C     0.73479   0.83146   0.48833   0.00000  Uiso   1.00
C990   C     0.93188   0.83521   0.51167   0.00000  Uiso   1.00
C991   C     0.67951   0.82372   0.48490   0.00000  Uiso   1.00
C992   C     0.98715   0.84294   0.51510   0.00000  Uiso   1.00
C993   C     0.81909   0.68782   0.45903   0.00000  Uiso   1.00
C994   C     0.84757   0.97885   0.54097   0.00000  Uiso   1.00
C995   C     0.81591   0.97850   0.45820   0.00000  Uiso   1.00
C996   C     0.85075   0.68817   0.54180   0.00000  Uiso   1.00
C997   C     0.83134   0.95708   0.49946   0.00000  Uiso   1.00
C998   C     0.83533   0.70959   0.50054   0.00000  Uiso   1.00
C999   C     0.79506   0.81232   0.35286   0.00000  Uiso   1.00
C1000  C     0.87161   0.85435   0.64714   0.00000  Uiso   1.00
C1001  C     0.79574   0.81150   0.63706   0.00000  Uiso   1.00
C1002  C     0.87093   0.85516   0.36294   0.00000  Uiso   1.00
Cu1003 Cu    0.83333   0.83334   0.54689   0.00000  Uiso   1.00
Cu1004 Cu    0.83333   0.83333   0.45311   0.00000  Uiso   1.00
H1005  H     0.80824   0.70366   0.42690   0.00000  Uiso   1.00
H1006  H     0.85843   0.96301   0.57310   0.00000  Uiso   1.00
N1007  N     0.83335   0.83334   0.61736   0.00000  Uiso   1.00
N1008  N     0.83332   0.83332   0.38264   0.00000  Uiso   1.00
O1009  O     0.83333   0.77322   0.53958   0.00000  Uiso   1.00
O1010  O     0.83334   0.89345   0.46042   0.00000  Uiso   1.00
O1011  O     0.83333   0.77321   0.46039   0.00000  Uiso   1.00
O1012  O     0.83334   0.89346   0.53961   0.00000  Uiso   1.00
O1013  O     0.75828   0.83334   0.53046   0.00000  Uiso   1.00
O1014  O     0.90839   0.83333   0.46954   0.00000  Uiso   1.00
O1015  O     0.75828   0.83333   0.45127   0.00000  Uiso   1.00
O1016  O     0.90839   0.83334   0.54873   0.00000  Uiso   1.00
N1017  N     0.98853   0.78958   0.45722   0.00000  Uiso   1.00
H1018  H     0.98868   0.79652   0.42227   0.00000  Uiso   1.00
H1019  H     0.67672   0.76382   0.46515   0.00000  Uiso   1.00
N1020  N     0.67814   0.87708   0.54278   0.00000  Uiso   1.00
H1021  H     0.67798   0.87014   0.57773   0.00000  Uiso   1.00
H1022  H     0.98996   0.90284   0.53485   0.00000  Uiso   1.00
N1023  N     0.79512   0.95734   0.41581   0.00000  Uiso   1.00
H1024  H     0.81666   0.96723   0.38975   0.00000  Uiso   1.00
H1025  H     0.75735   0.96609   0.40626   0.00000  Uiso   1.00
N1026  N     0.87154   0.70932   0.58419   0.00000  Uiso   1.00
H1027  H     0.85000   0.69944   0.61025   0.00000  Uiso   1.00
H1028  H     0.90931   0.70058   0.59374   0.00000  Uiso   1.00
C1029  C     0.74971   0.79266   0.37016   0.00000  Uiso   1.00
O1030  O     0.70834   0.80856   0.36185   0.00000  Uiso   1.00
O1031  O     0.75271   0.75466   0.39188   0.00000  Uiso   1.00
H1032  H     0.71809   0.74318   0.39931   0.00000  Uiso   1.00
C1033  C     0.91696   0.87400   0.62984   0.00000  Uiso   1.00
O1034  O     0.95833   0.85812   0.63816   0.00000  Uiso   1.00
O1035  O     0.91396   0.91200   0.60810   0.00000  Uiso   1.00
H1036  H     0.94858   0.92348   0.60068   0.00000  Uiso   1.00
C1037  C     0.75643   0.78477   0.60803   0.00000  Uiso   1.00
O1038  O     0.71255   0.79594   0.59817   0.00000  Uiso   1.00
O1039  O     0.76800   0.74516   0.59626   0.00000  Uiso   1.00
H1040  H     0.73766   0.72945   0.57737   0.00000  Uiso   1.00
C1041  C     0.91023   0.88190   0.39197   0.00000  Uiso   1.00
O1042  O     0.95412   0.87073   0.40184   0.00000  Uiso   1.00
O1043  O     0.89867   0.92151   0.40374   0.00000  Uiso   1.00
H1044  H     0.92900   0.93722   0.42263   0.00000  Uiso   1.00
C1045  C     0.16781   0.08760   0.83353   0.00000  Uiso   1.00
C1046  C     0.16552   0.24574   0.83314   0.00000  Uiso   1.00
C1047  C     0.06812   0.16479   0.82166   0.00000  Uiso   1.00
C1048  C     0.26521   0.16854   0.84500   0.00000  Uiso   1.00
C1049  C     0.01285   0.15706   0.81823   0.00000  Uiso   1.00
C1050  C     0.32049   0.17628   0.84844   0.00000  Uiso   1.00
C1051  C     0.15243   0.02115   0.79237   0.00000  Uiso   1.00
C1052  C     0.18090   0.31218   0.87430   0.00000  Uiso   1.00
C1053  C     0.14925   0.31183   0.79153   0.00000  Uiso   1.00
C1054  C     0.18408   0.02150   0.87513   0.00000  Uiso   1.00
C1055  C     0.16467   0.29041   0.83279   0.00000  Uiso   1.00
C1056  C     0.16866   0.04292   0.83388   0.00000  Uiso   1.00
C1057  C     0.12839   0.14565   0.68620   0.00000  Uiso   1.00
C1058  C     0.20494   0.18768   0.98047   0.00000  Uiso   1.00
C1059  C     0.12907   0.14484   0.97039   0.00000  Uiso   1.00
C1060  C     0.20426   0.18850   0.69628   0.00000  Uiso   1.00
Cu1061 Cu    0.16667   0.16667   0.88022   0.00000  Uiso   1.00
Cu1062 Cu    0.16667   0.16666   0.78645   0.00000  Uiso   1.00
H1063  H     0.14157   0.03699   0.76024   0.00000  Uiso   1.00
H1064  H     0.19176   0.29634   0.90643   0.00000  Uiso   1.00
N1065  N     0.16668   0.16668   0.95069   0.00000  Uiso   1.00
N1066  N     0.16665   0.16666   0.71597   0.00000  Uiso   1.00
O1067  O     0.16666   0.10655   0.87291   0.00000  Uiso   1.00
O1068  O     0.16667   0.22678   0.79375   0.00000  Uiso   1.00
O1069  O     0.16666   0.10654   0.79372   0.00000  Uiso   1.00
O1070  O     0.16667   0.22679   0.87294   0.00000  Uiso   1.00
O1071  O     0.09161   0.16667   0.86379   0.00000  Uiso   1.00
O1072  O     0.24172   0.16666   0.80288   0.00000  Uiso   1.00
O1073  O     0.09161   0.16666   0.78460   0.00000  Uiso   1.00
O1074  O     0.24172   0.16667   0.88207   0.00000  Uiso   1.00
N1075  N     0.32186   0.12292   0.79055   0.00000  Uiso   1.00
H1076  H     0.32201   0.12985   0.75560   0.00000  Uiso   1.00
H1077  H     0.01005   0.09716   0.79848   0.00000  Uiso   1.00
N1078  N     0.01147   0.21041   0.87612   0.00000  Uiso   1.00
H1079  H     0.01131   0.20348   0.91107   0.00000  Uiso   1.00
H1080  H     0.32329   0.23617   0.86818   0.00000  Uiso   1.00
N1081  N     0.12845   0.29068   0.74914   0.00000  Uiso   1.00
H1082  H     0.14999   0.30056   0.72308   0.00000  Uiso   1.00
H1083  H     0.09068   0.29942   0.73960   0.00000  Uiso   1.00
N1084  N     0.20487   0.04266   0.91753   0.00000  Uiso   1.00
H1085  H     0.18333   0.03277   0.94359   0.00000  Uiso   1.00
H1086  H     0.24264   0.03391   0.92707   0.00000  Uiso   1.00
C1087  C     0.08304   0.12600   0.70350   0.00000  Uiso   1.00
O1088  O     0.04167   0.14189   0.69518   0.00000  Uiso   1.00
O1089  O     0.08604   0.08799   0.72521   0.00000  Uiso   1.00
H1090  H     0.05142   0.07651   0.73265   0.00000  Uiso   1.00
C1091  C     0.25029   0.20734   0.96317   0.00000  Uiso   1.00
O1092  O     0.29166   0.19145   0.97150   0.00000  Uiso   1.00
O1093  O     0.24729   0.24534   0.94144   0.00000  Uiso   1.00
H1094  H     0.28191   0.25681   0.93401   0.00000  Uiso   1.00
C1095  C     0.08977   0.11811   0.94136   0.00000  Uiso   1.00
O1096  O     0.04588   0.12927   0.93150   0.00000  Uiso   1.00
O1097  O     0.10133   0.07849   0.92959   0.00000  Uiso   1.00
H1098  H     0.07100   0.06278   0.91070   0.00000  Uiso   1.00
C1099  C     0.24357   0.21523   0.72531   0.00000  Uiso   1.00
O1100  O     0.28745   0.20406   0.73517   0.00000  Uiso   1.00
O1101  O     0.23200   0.25484   0.73707   0.00000  Uiso   1.00
H1102  H     0.26233   0.27055   0.75596   0.00000  Uiso   1.00
C1103  C     0.50114   0.08760   0.83353   0.00000  Uiso   1.00
C1104  C     0.49886   0.24574   0.83314   0.00000  Uiso   1.00
C1105  C     0.40146   0.16479   0.82166   0.00000  Uiso   1.00
C1106  C     0.59854   0.16854   0.84500   0.00000  Uiso   1.00
C1107  C     0.34618   0.15706   0.81823   0.00000  Uiso   1.00
C1108  C     0.65382   0.17628   0.84844   0.00000  Uiso   1.00
C1109  C     0.48576   0.02115   0.79237   0.00000  Uiso   1.00
C1110  C     0.51424   0.31218   0.87430   0.00000  Uiso   1.00
C1111  C     0.48258   0.31183   0.79153   0.00000  Uiso   1.00
C1112  C     0.51742   0.02150   0.87513   0.00000  Uiso   1.00
C1113  C     0.49800   0.29041   0.83279   0.00000  Uiso   1.00
C1114  C     0.50199   0.04292   0.83388   0.00000  Uiso   1.00
C1115  C     0.46173   0.14565   0.68620   0.00000  Uiso   1.00
C1116  C     0.53827   0.18768   0.98047   0.00000  Uiso   1.00
C1117  C     0.46241   0.14484   0.97039   0.00000  Uiso   1.00
C1118  C     0.53759   0.18850   0.69628   0.00000  Uiso   1.00
Cu1119 Cu    0.50000   0.16667   0.88022   0.00000  Uiso   1.00
Cu1120 Cu    0.50000   0.16666   0.78645   0.00000  Uiso   1.00
H1121  H     0.47490   0.03699   0.76024   0.00000  Uiso   1.00
H1122  H     0.52509   0.29634   0.90643   0.00000  Uiso   1.00
N1123  N     0.50001   0.16668   0.95069   0.00000  Uiso   1.00
N1124  N     0.49999   0.16666   0.71597   0.00000  Uiso   1.00
O1125  O     0.50000   0.10655   0.87291   0.00000  Uiso   1.00
O1126  O     0.50000   0.22678   0.79375   0.00000  Uiso   1.00
O1127  O     0.50000   0.10654   0.79372   0.00000  Uiso   1.00
O1128  O     0.50000   0.22679   0.87294   0.00000  Uiso   1.00
O1129  O     0.42495   0.16667   0.86379   0.00000  Uiso   1.00
O1130  O     0.57505   0.16666   0.80288   0.00000  Uiso   1.00
O1131  O     0.42494   0.16666   0.78460   0.00000  Uiso   1.00
O1132  O     0.57506   0.16667   0.88207   0.00000  Uiso   1.00
N1133  N     0.65520   0.12292   0.79055   0.00000  Uiso   1.00
H1134  H     0.65534   0.12985   0.75560   0.00000  Uiso   1.00
H1135  H     0.34338   0.09716   0.79848   0.00000  Uiso   1.00
N1136  N     0.34480   0.21041   0.87612   0.00000  Uiso   1.00
H1137  H     0.34465   0.20348   0.91107   0.00000  Uiso   1.00
H1138  H     0.65663   0.23617   0.86818   0.00000  Uiso   1.00
N1139  N     0.46179   0.29068   0.74914   0.00000  Uiso   1.00
H1140  H     0.48333   0.30056   0.72308   0.00000  Uiso   1.00
H1141  H     0.42401   0.29942   0.73960   0.00000  Uiso   1.00
N1142  N     0.53821   0.04266   0.91753   0.00000  Uiso   1.00
H1143  H     0.51666   0.03277   0.94359   0.00000  Uiso   1.00
H1144  H     0.57598   0.03391   0.92707   0.00000  Uiso   1.00
C1145  C     0.41638   0.12600   0.70350   0.00000  Uiso   1.00
O1146  O     0.37501   0.14189   0.69518   0.00000  Uiso   1.00
O1147  O     0.41937   0.08799   0.72521   0.00000  Uiso   1.00
H1148  H     0.38475   0.07651   0.73265   0.00000  Uiso   1.00
C1149  C     0.58362   0.20734   0.96317   0.00000  Uiso   1.00
O1150  O     0.62500   0.19145   0.97150   0.00000  Uiso   1.00
O1151  O     0.58063   0.24534   0.94144   0.00000  Uiso   1.00
H1152  H     0.61524   0.25681   0.93401   0.00000  Uiso   1.00
C1153  C     0.42310   0.11811   0.94136   0.00000  Uiso   1.00
O1154  O     0.37921   0.12927   0.93150   0.00000  Uiso   1.00
O1155  O     0.43466   0.07849   0.92959   0.00000  Uiso   1.00
H1156  H     0.40433   0.06278   0.91070   0.00000  Uiso   1.00
C1157  C     0.57690   0.21523   0.72531   0.00000  Uiso   1.00
O1158  O     0.62078   0.20406   0.73517   0.00000  Uiso   1.00
O1159  O     0.56533   0.25484   0.73707   0.00000  Uiso   1.00
H1160  H     0.59566   0.27055   0.75596   0.00000  Uiso   1.00
C1161  C     0.83448   0.08760   0.83353   0.00000  Uiso   1.00
C1162  C     0.83219   0.24574   0.83314   0.00000  Uiso   1.00
C1163  C     0.73479   0.16479   0.82166   0.00000  Uiso   1.00
C1164  C     0.93188   0.16854   0.84500   0.00000  Uiso   1.00
C1165  C     0.67951   0.15706   0.81823   0.00000  Uiso   1.00
C1166  C     0.98715   0.17628   0.84844   0.00000  Uiso   1.00
C1167  C     0.81909   0.02115   0.79237   0.00000  Uiso   1.00
C1168  C     0.84757   0.31218   0.87430   0.00000  Uiso   1.00
C1169  C     0.81591   0.31183   0.79153   0.00000  Uiso   1.00
C1170  C     0.85075   0.02150   0.87513   0.00000  Uiso   1.00
C1171  C     0.83134   0.29041   0.83279   0.00000  Uiso   1.00
C1172  C     0.83533   0.04292   0.83388   0.00000  Uiso   1.00
C1173  C     0.79506   0.14565   0.68620   0.00000  Uiso   1.00
C1174  C     0.87161   0.18768   0.98047   0.00000  Uiso   1.00
C1175  C     0.79574   0.14484   0.97039   0.00000  Uiso   1.00
C1176  C     0.87093   0.18850   0.69628   0.00000  Uiso   1.00
Cu1177 Cu    0.83333   0.16667   0.88022   0.00000  Uiso   1.00
Cu1178 Cu    0.83333   0.16666   0.78645   0.00000  Uiso   1.00
H1179  H     0.80824   0.03699   0.76024   0.00000  Uiso   1.00
H1180  H     0.85843   0.29634   0.90643   0.00000  Uiso   1.00
N1181  N     0.83335   0.16668   0.95069   0.00000  Uiso   1.00
N1182  N     0.83332   0.16666   0.71597   0.00000  Uiso   1.00
O1183  O     0.83333   0.10655   0.87291   0.00000  Uiso   1.00
O1184  O     0.83334   0.22678   0.79375   0.00000  Uiso   1.00
O1185  O     0.83333   0.10654   0.79372   0.00000  Uiso   1.00
O1186  O     0.83334   0.22679   0.87294   0.00000  Uiso   1.00
O1187  O     0.75828   0.16667   0.86379   0.00000  Uiso   1.00
O1188  O     0.90839   0.16666   0.80288   0.00000  Uiso   1.00
O1189  O     0.75828   0.16666   0.78460   0.00000  Uiso   1.00
O1190  O     0.90839   0.16667   0.88207   0.00000  Uiso   1.00
N1191  N     0.98853   0.12292   0.79055   0.00000  Uiso   1.00
H1192  H     0.98868   0.12985   0.75560   0.00000  Uiso   1.00
H1193  H     0.67672   0.09716   0.79848   0.00000  Uiso   1.00
N1194  N     0.67814   0.21041   0.87612   0.00000  Uiso   1.00
H1195  H     0.67798   0.20348   0.91107   0.00000  Uiso   1.00
H1196  H     0.98996   0.23617   0.86818   0.00000  Uiso   1.00
N1197  N     0.79512   0.29068   0.74914   0.00000  Uiso   1.00
H1198  H     0.81666   0.30056   0.72308   0.00000  Uiso   1.00
H1199  H     0.75735   0.29942   0.73960   0.00000  Uiso   1.00
N1200  N     0.87154   0.04266   0.91753   0.00000  Uiso   1.00
H1201  H     0.85000   0.03277   0.94359   0.00000  Uiso   1.00
H1202  H     0.90931   0.03391   0.92707   0.00000  Uiso   1.00
C1203  C     0.74971   0.12600   0.70350   0.00000  Uiso   1.00
O1204  O     0.70834   0.14189   0.69518   0.00000  Uiso   1.00
O1205  O     0.75271   0.08799   0.72521   0.00000  Uiso   1.00
H1206  H     0.71809   0.07651   0.73265   0.00000  Uiso   1.00
C1207  C     0.91696   0.20734   0.96317   0.00000  Uiso   1.00
O1208  O     0.95833   0.19145   0.97150   0.00000  Uiso   1.00
O1209  O     0.91396   0.24534   0.94144   0.00000  Uiso   1.00
H1210  H     0.94858   0.25681   0.93401   0.00000  Uiso   1.00
C1211  C     0.75643   0.11811   0.94136   0.00000  Uiso   1.00
O1212  O     0.71255   0.12927   0.93150   0.00000  Uiso   1.00
O1213  O     0.76800   0.07849   0.92959   0.00000  Uiso   1.00
H1214  H     0.73766   0.06278   0.91070   0.00000  Uiso   1.00
C1215  C     0.91023   0.21523   0.72531   0.00000  Uiso   1.00
O1216  O     0.95412   0.20406   0.73517   0.00000  Uiso   1.00
O1217  O     0.89867   0.25484   0.73707   0.00000  Uiso   1.00
H1218  H     0.92900   0.27055   0.75596   0.00000  Uiso   1.00
C1219  C     0.16781   0.42093   0.83353   0.00000  Uiso   1.00
C1220  C     0.16552   0.57907   0.83314   0.00000  Uiso   1.00
C1221  C     0.06812   0.49812   0.82166   0.00000  Uiso   1.00
C1222  C     0.26521   0.50188   0.84500   0.00000  Uiso   1.00
C1223  C     0.01285   0.49039   0.81823   0.00000  Uiso   1.00
C1224  C     0.32049   0.50961   0.84844   0.00000  Uiso   1.00
C1225  C     0.15243   0.35449   0.79237   0.00000  Uiso   1.00
C1226  C     0.18090   0.64551   0.87430   0.00000  Uiso   1.00
C1227  C     0.14925   0.64517   0.79153   0.00000  Uiso   1.00
C1228  C     0.18408   0.35483   0.87513   0.00000  Uiso   1.00
C1229  C     0.16467   0.62375   0.83279   0.00000  Uiso   1.00
C1230  C     0.16866   0.37625   0.83388   0.00000  Uiso   1.00
C1231  C     0.12839   0.47899   0.68620   0.00000  Uiso   1.00
C1232  C     0.20494   0.52101   0.98047   0.00000  Uiso   1.00
C1233  C     0.12907   0.47817   0.97039   0.00000  Uiso   1.00
C1234  C     0.20426   0.52183   0.69628   0.00000  Uiso   1.00
Cu1235 Cu    0.16667   0.50001   0.88022   0.00000  Uiso   1.00
Cu1236 Cu    0.16667   0.49999   0.78645   0.00000  Uiso   1.00
H1237  H     0.14157   0.37032   0.76024   0.00000  Uiso   1.00
H1238  H     0.19176   0.62968   0.90643   0.00000  Uiso   1.00
N1239  N     0.16668   0.50001   0.95069   0.00000  Uiso   1.00
N1240  N     0.16665   0.49999   0.71597   0.00000  Uiso   1.00
O1241  O     0.16666   0.43989   0.87291   0.00000  Uiso   1.00
O1242  O     0.16667   0.56011   0.79375   0.00000  Uiso   1.00
O1243  O     0.16666   0.43988   0.79372   0.00000  Uiso   1.00
O1244  O     0.16667   0.56012   0.87294   0.00000  Uiso   1.00
O1245  O     0.09161   0.50000   0.86379   0.00000  Uiso   1.00
O1246  O     0.24172   0.50000   0.80288   0.00000  Uiso   1.00
O1247  O     0.09161   0.49999   0.78460   0.00000  Uiso   1.00
O1248  O     0.24172   0.50001   0.88207   0.00000  Uiso   1.00
N1249  N     0.32186   0.45625   0.79055   0.00000  Uiso   1.00
H1250  H     0.32201   0.46318   0.75560   0.00000  Uiso   1.00
H1251  H     0.01005   0.43049   0.79848   0.00000  Uiso   1.00
N1252  N     0.01147   0.54375   0.87612   0.00000  Uiso   1.00
H1253  H     0.01131   0.53681   0.91107   0.00000  Uiso   1.00
H1254  H     0.32329   0.56951   0.86818   0.00000  Uiso   1.00
N1255  N     0.12845   0.62401   0.74914   0.00000  Uiso   1.00
H1256  H     0.14999   0.63390   0.72308   0.00000  Uiso   1.00
H1257  H     0.09068   0.63275   0.73960   0.00000  Uiso   1.00
N1258  N     0.20487   0.37599   0.91753   0.00000  Uiso   1.00
H1259  H     0.18333   0.36610   0.94359   0.00000  Uiso   1.00
H1260  H     0.24264   0.36725   0.92707   0.00000  Uiso   1.00
C1261  C     0.08304   0.45933   0.70350   0.00000  Uiso   1.00
O1262  O     0.04167   0.47522   0.69518   0.00000  Uiso   1.00
O1263  O     0.08604   0.42132   0.72521   0.00000  Uiso   1.00
H1264  H     0.05142   0.40985   0.73265   0.00000  Uiso   1.00
C1265  C     0.25029   0.54067   0.96317   0.00000  Uiso   1.00
O1266  O     0.29166   0.52478   0.97150   0.00000  Uiso   1.00
O1267  O     0.24729   0.57867   0.94144   0.00000  Uiso   1.00
H1268  H     0.28191   0.59015   0.93401   0.00000  Uiso   1.00
C1269  C     0.08977   0.45144   0.94136   0.00000  Uiso   1.00
O1270  O     0.04588   0.46261   0.93150   0.00000  Uiso   1.00
O1271  O     0.10133   0.41183   0.92959   0.00000  Uiso   1.00
H1272  H     0.07100   0.39612   0.91070   0.00000  Uiso   1.00
C1273  C     0.24357   0.54856   0.72531   0.00000  Uiso   1.00
O1274  O     0.28745   0.53740   0.73517   0.00000  Uiso   1.00
O1275  O     0.23200   0.58818   0.73707   0.00000  Uiso   1.00
H1276  H     0.26233   0.60389   0.75596   0.00000  Uiso   1.00
C1277  C     0.50114   0.42093   0.83353   0.00000  Uiso   1.00
C1278  C     0.49886   0.57907   0.83314   0.00000  Uiso   1.00
C1279  C     0.40146   0.49812   0.82166   0.00000  Uiso   1.00
C1280  C     0.59854   0.50188   0.84500   0.00000  Uiso   1.00
C1281  C     0.34618   0.49039   0.81823   0.00000  Uiso   1.00
C1282  C     0.65382   0.50961   0.84844   0.00000  Uiso   1.00
C1283  C     0.48576   0.35449   0.79237   0.00000  Uiso   1.00
C1284  C     0.51424   0.64551   0.87430   0.00000  Uiso   1.00
C1285  C     0.48258   0.64517   0.79153   0.00000  Uiso   1.00
C1286  C     0.51742   0.35483   0.87513   0.00000  Uiso   1.00
C1287  C     0.49800   0.62375   0.83279   0.00000  Uiso   1.00
C1288  C     0.50199   0.37625   0.83388   0.00000  Uiso   1.00
C1289  C     0.46173   0.47899   0.68620   0.00000  Uiso   1.00
C1290  C     0.53827   0.52101   0.98047   0.00000  Uiso   1.00
C1291  C     0.46241   0.47817   0.97039   0.00000  Uiso   1.00
C1292  C     0.53759   0.52183   0.69628   0.00000  Uiso   1.00
Cu1293 Cu    0.50000   0.50001   0.88022   0.00000  Uiso   1.00
Cu1294 Cu    0.50000   0.49999   0.78645   0.00000  Uiso   1.00
H1295  H     0.47490   0.37032   0.76024   0.00000  Uiso   1.00
H1296  H     0.52509   0.62968   0.90643   0.00000  Uiso   1.00
N1297  N     0.50001   0.50001   0.95069   0.00000  Uiso   1.00
N1298  N     0.49999   0.49999   0.71597   0.00000  Uiso   1.00
O1299  O     0.50000   0.43989   0.87291   0.00000  Uiso   1.00
O1300  O     0.50000   0.56011   0.79375   0.00000  Uiso   1.00
O1301  O     0.50000   0.43988   0.79372   0.00000  Uiso   1.00
O1302  O     0.50000   0.56012   0.87294   0.00000  Uiso   1.00
O1303  O     0.42495   0.50000   0.86379   0.00000  Uiso   1.00
O1304  O     0.57505   0.50000   0.80288   0.00000  Uiso   1.00
O1305  O     0.42494   0.49999   0.78460   0.00000  Uiso   1.00
O1306  O     0.57506   0.50001   0.88207   0.00000  Uiso   1.00
N1307  N     0.65520   0.45625   0.79055   0.00000  Uiso   1.00
H1308  H     0.65534   0.46318   0.75560   0.00000  Uiso   1.00
H1309  H     0.34338   0.43049   0.79848   0.00000  Uiso   1.00
N1310  N     0.34480   0.54375   0.87612   0.00000  Uiso   1.00
H1311  H     0.34465   0.53681   0.91107   0.00000  Uiso   1.00
H1312  H     0.65663   0.56951   0.86818   0.00000  Uiso   1.00
N1313  N     0.46179   0.62401   0.74914   0.00000  Uiso   1.00
H1314  H     0.48333   0.63390   0.72308   0.00000  Uiso   1.00
H1315  H     0.42401   0.63275   0.73960   0.00000  Uiso   1.00
N1316  N     0.53821   0.37599   0.91753   0.00000  Uiso   1.00
H1317  H     0.51666   0.36610   0.94359   0.00000  Uiso   1.00
H1318  H     0.57598   0.36725   0.92707   0.00000  Uiso   1.00
C1319  C     0.41638   0.45933   0.70350   0.00000  Uiso   1.00
O1320  O     0.37501   0.47522   0.69518   0.00000  Uiso   1.00
O1321  O     0.41937   0.42132   0.72521   0.00000  Uiso   1.00
H1322  H     0.38475   0.40985   0.73265   0.00000  Uiso   1.00
C1323  C     0.58362   0.54067   0.96317   0.00000  Uiso   1.00
O1324  O     0.62500   0.52478   0.97150   0.00000  Uiso   1.00
O1325  O     0.58063   0.57867   0.94144   0.00000  Uiso   1.00
H1326  H     0.61524   0.59015   0.93401   0.00000  Uiso   1.00
C1327  C     0.42310   0.45144   0.94136   0.00000  Uiso   1.00
O1328  O     0.37921   0.46261   0.93150   0.00000  Uiso   1.00
O1329  O     0.43466   0.41183   0.92959   0.00000  Uiso   1.00
H1330  H     0.40433   0.39612   0.91070   0.00000  Uiso   1.00
C1331  C     0.57690   0.54856   0.72531   0.00000  Uiso   1.00
O1332  O     0.62078   0.53740   0.73517   0.00000  Uiso   1.00
O1333  O     0.56533   0.58818   0.73707   0.00000  Uiso   1.00
H1334  H     0.59566   0.60389   0.75596   0.00000  Uiso   1.00
C1335  C     0.83448   0.42093   0.83353   0.00000  Uiso   1.00
C1336  C     0.83219   0.57907   0.83314   0.00000  Uiso   1.00
C1337  C     0.73479   0.49812   0.82166   0.00000  Uiso   1.00
C1338  C     0.93188   0.50188   0.84500   0.00000  Uiso   1.00
C1339  C     0.67951   0.49039   0.81823   0.00000  Uiso   1.00
C1340  C     0.98715   0.50961   0.84844   0.00000  Uiso   1.00
C1341  C     0.81909   0.35449   0.79237   0.00000  Uiso   1.00
C1342  C     0.84757   0.64551   0.87430   0.00000  Uiso   1.00
C1343  C     0.81591   0.64517   0.79153   0.00000  Uiso   1.00
C1344  C     0.85075   0.35483   0.87513   0.00000  Uiso   1.00
C1345  C     0.83134   0.62375   0.83279   0.00000  Uiso   1.00
C1346  C     0.83533   0.37625   0.83388   0.00000  Uiso   1.00
C1347  C     0.79506   0.47899   0.68620   0.00000  Uiso   1.00
C1348  C     0.87161   0.52101   0.98047   0.00000  Uiso   1.00
C1349  C     0.79574   0.47817   0.97039   0.00000  Uiso   1.00
C1350  C     0.87093   0.52183   0.69628   0.00000  Uiso   1.00
Cu1351 Cu    0.83333   0.50001   0.88022   0.00000  Uiso   1.00
Cu1352 Cu    0.83333   0.49999   0.78645   0.00000  Uiso   1.00
H1353  H     0.80824   0.37032   0.76024   0.00000  Uiso   1.00
H1354  H     0.85843   0.62968   0.90643   0.00000  Uiso   1.00
N1355  N     0.83335   0.50001   0.95069   0.00000  Uiso   1.00
N1356  N     0.83332   0.49999   0.71597   0.00000  Uiso   1.00
O1357  O     0.83333   0.43989   0.87291   0.00000  Uiso   1.00
O1358  O     0.83334   0.56011   0.79375   0.00000  Uiso   1.00
O1359  O     0.83333   0.43988   0.79372   0.00000  Uiso   1.00
O1360  O     0.83334   0.56012   0.87294   0.00000  Uiso   1.00
O1361  O     0.75828   0.50000   0.86379   0.00000  Uiso   1.00
O1362  O     0.90839   0.50000   0.80288   0.00000  Uiso   1.00
O1363  O     0.75828   0.49999   0.78460   0.00000  Uiso   1.00
O1364  O     0.90839   0.50001   0.88207   0.00000  Uiso   1.00
N1365  N     0.98853   0.45625   0.79055   0.00000  Uiso   1.00
H1366  H     0.98868   0.46318   0.75560   0.00000  Uiso   1.00
H1367  H     0.67672   0.43049   0.79848   0.00000  Uiso   1.00
N1368  N     0.67814   0.54375   0.87612   0.00000  Uiso   1.00
H1369  H     0.67798   0.53681   0.91107   0.00000  Uiso   1.00
H1370  H     0.98996   0.56951   0.86818   0.00000  Uiso   1.00
N1371  N     0.79512   0.62401   0.74914   0.00000  Uiso   1.00
H1372  H     0.81666   0.63390   0.72308   0.00000  Uiso   1.00
H1373  H     0.75735   0.63275   0.73960   0.00000  Uiso   1.00
N1374  N     0.87154   0.37599   0.91753   0.00000  Uiso   1.00
H1375  H     0.85000   0.36610   0.94359   0.00000  Uiso   1.00
H1376  H     0.90931   0.36725   0.92707   0.00000  Uiso   1.00
C1377  C     0.74971   0.45933   0.70350   0.00000  Uiso   1.00
O1378  O     0.70834   0.47522   0.69518   0.00000  Uiso   1.00
O1379  O     0.75271   0.42132   0.72521   0.00000  Uiso   1.00
H1380  H     0.71809   0.40985   0.73265   0.00000  Uiso   1.00
C1381  C     0.91696   0.54067   0.96317   0.00000  Uiso   1.00
O1382  O     0.95833   0.52478   0.97150   0.00000  Uiso   1.00
O1383  O     0.91396   0.57867   0.94144   0.00000  Uiso   1.00
H1384  H     0.94858   0.59015   0.93401   0.00000  Uiso   1.00
C1385  C     0.75643   0.45144   0.94136   0.00000  Uiso   1.00
O1386  O     0.71255   0.46261   0.93150   0.00000  Uiso   1.00
O1387  O     0.76800   0.41183   0.92959   0.00000  Uiso   1.00
H1388  H     0.73766   0.39612   0.91070   0.00000  Uiso   1.00
C1389  C     0.91023   0.54856   0.72531   0.00000  Uiso   1.00
O1390  O     0.95412   0.53740   0.73517   0.00000  Uiso   1.00
O1391  O     0.89867   0.58818   0.73707   0.00000  Uiso   1.00
H1392  H     0.92900   0.60389   0.75596   0.00000  Uiso   1.00
C1393  C     0.16781   0.75426   0.83353   0.00000  Uiso   1.00
C1394  C     0.16552   0.91241   0.83314   0.00000  Uiso   1.00
C1395  C     0.06812   0.83146   0.82166   0.00000  Uiso   1.00
C1396  C     0.26521   0.83521   0.84500   0.00000  Uiso   1.00
C1397  C     0.01285   0.82372   0.81823   0.00000  Uiso   1.00
C1398  C     0.32049   0.84294   0.84844   0.00000  Uiso   1.00
C1399  C     0.15243   0.68782   0.79237   0.00000  Uiso   1.00
C1400  C     0.18090   0.97885   0.87430   0.00000  Uiso   1.00
C1401  C     0.14925   0.97850   0.79153   0.00000  Uiso   1.00
C1402  C     0.18408   0.68817   0.87513   0.00000  Uiso   1.00
C1403  C     0.16467   0.95708   0.83279   0.00000  Uiso   1.00
C1404  C     0.16866   0.70959   0.83388   0.00000  Uiso   1.00
C1405  C     0.12839   0.81232   0.68620   0.00000  Uiso   1.00
C1406  C     0.20494   0.85435   0.98047   0.00000  Uiso   1.00
C1407  C     0.12907   0.81150   0.97039   0.00000  Uiso   1.00
C1408  C     0.20426   0.85516   0.69628   0.00000  Uiso   1.00
Cu1409 Cu    0.16667   0.83334   0.88022   0.00000  Uiso   1.00
Cu1410 Cu    0.16667   0.83333   0.78645   0.00000  Uiso   1.00
H1411  H     0.14157   0.70366   0.76024   0.00000  Uiso   1.00
H1412  H     0.19176   0.96301   0.90643   0.00000  Uiso   1.00
N1413  N     0.16668   0.83334   0.95069   0.00000  Uiso   1.00
N1414  N     0.16665   0.83332   0.71597   0.00000  Uiso   1.00
O1415  O     0.16666   0.77322   0.87291   0.00000  Uiso   1.00
O1416  O     0.16667   0.89345   0.79375   0.00000  Uiso   1.00
O1417  O     0.16666   0.77321   0.79372   0.00000  Uiso   1.00
O1418  O     0.16667   0.89346   0.87294   0.00000  Uiso   1.00
O1419  O     0.09161   0.83334   0.86379   0.00000  Uiso   1.00
O1420  O     0.24172   0.83333   0.80288   0.00000  Uiso   1.00
O1421  O     0.09161   0.83333   0.78460   0.00000  Uiso   1.00
O1422  O     0.24172   0.83334   0.88207   0.00000  Uiso   1.00
N1423  N     0.32186   0.78958   0.79055   0.00000  Uiso   1.00
H1424  H     0.32201   0.79652   0.75560   0.00000  Uiso   1.00
H1425  H     0.01005   0.76382   0.79848   0.00000  Uiso   1.00
N1426  N     0.01147   0.87708   0.87612   0.00000  Uiso   1.00
H1427  H     0.01131   0.87014   0.91107   0.00000  Uiso   1.00
H1428  H     0.32329   0.90284   0.86818   0.00000  Uiso   1.00
N1429  N     0.12845   0.95734   0.74914   0.00000  Uiso   1.00
H1430  H     0.14999   0.96723   0.72308   0.00000  Uiso   1.00
H1431  H     0.09068   0.96609   0.73960   0.00000  Uiso   1.00
N1432  N     0.20487   0.70932   0.91753   0.00000  Uiso   1.00
H1433  H     0.18333   0.69944   0.94359   0.00000  Uiso   1.00
H1434  H     0.24264   0.70058   0.92707   0.00000  Uiso   1.00
C1435  C     0.08304   0.79266   0.70350   0.00000  Uiso   1.00
O1436  O     0.04167   0.80856   0.69518   0.00000  Uiso   1.00
O1437  O     0.08604   0.75466   0.72521   0.00000  Uiso   1.00
H1438  H     0.05142   0.74318   0.73265   0.00000  Uiso   1.00
C1439  C     0.25029   0.87400   0.96317   0.00000  Uiso   1.00
O1440  O     0.29166   0.85812   0.97150   0.00000  Uiso   1.00
O1441  O     0.24729   0.91200   0.94144   0.00000  Uiso   1.00
H1442  H     0.28191   0.92348   0.93401   0.00000  Uiso   1.00
C1443  C     0.08977   0.78477   0.94136   0.00000  Uiso   1.00
O1444  O     0.04588   0.79594   0.93150   0.00000  Uiso   1.00
O1445  O     0.10133   0.74516   0.92959   0.00000  Uiso   1.00
H1446  H     0.07100   0.72945   0.91070   0.00000  Uiso   1.00
C1447  C     0.24357   0.88190   0.72531   0.00000  Uiso   1.00
O1448  O     0.28745   0.87073   0.73517   0.00000  Uiso   1.00
O1449  O     0.23200   0.92151   0.73707   0.00000  Uiso   1.00
H1450  H     0.26233   0.93722   0.75596   0.00000  Uiso   1.00
C1451  C     0.50114   0.75426   0.83353   0.00000  Uiso   1.00
C1452  C     0.49886   0.91241   0.83314   0.00000  Uiso   1.00
C1453  C     0.40146   0.83146   0.82166   0.00000  Uiso   1.00
C1454  C     0.59854   0.83521   0.84500   0.00000  Uiso   1.00
C1455  C     0.34618   0.82372   0.81823   0.00000  Uiso   1.00
C1456  C     0.65382   0.84294   0.84844   0.00000  Uiso   1.00
C1457  C     0.48576   0.68782   0.79237   0.00000  Uiso   1.00
C1458  C     0.51424   0.97885   0.87430   0.00000  Uiso   1.00
C1459  C     0.48258   0.97850   0.79153   0.00000  Uiso   1.00
C1460  C     0.51742   0.68817   0.87513   0.00000  Uiso   1.00
C1461  C     0.49800   0.95708   0.83279   0.00000  Uiso   1.00
C1462  C     0.50199   0.70959   0.83388   0.00000  Uiso   1.00
C1463  C     0.46173   0.81232   0.68620   0.00000  Uiso   1.00
C1464  C     0.53827   0.85435   0.98047   0.00000  Uiso   1.00
C1465  C     0.46241   0.81150   0.97039   0.00000  Uiso   1.00
C1466  C     0.53759   0.85516   0.69628   0.00000  Uiso   1.00
Cu1467 Cu    0.50000   0.83334   0.88022   0.00000  Uiso   1.00
Cu1468 Cu    0.50000   0.83333   0.78645   0.00000  Uiso   1.00
H1469  H     0.47490   0.70366   0.76024   0.00000  Uiso   1.00
H1470  H     0.52509   0.96301   0.90643   0.00000  Uiso   1.00
N1471  N     0.50001   0.83334   0.95069   0.00000  Uiso   1.00
N1472  N     0.49999   0.83332   0.71597   0.00000  Uiso   1.00
O1473  O     0.50000   0.77322   0.87291   0.00000  Uiso   1.00
O1474  O     0.50000   0.89345   0.79375   0.00000  Uiso   1.00
O1475  O     0.50000   0.77321   0.79372   0.00000  Uiso   1.00
O1476  O     0.50000   0.89346   0.87294   0.00000  Uiso   1.00
O1477  O     0.42495   0.83334   0.86379   0.00000  Uiso   1.00
O1478  O     0.57505   0.83333   0.80288   0.00000  Uiso   1.00
O1479  O     0.42494   0.83333   0.78460   0.00000  Uiso   1.00
O1480  O     0.57506   0.83334   0.88207   0.00000  Uiso   1.00
N1481  N     0.65520   0.78958   0.79055   0.00000  Uiso   1.00
H1482  H     0.65534   0.79652   0.75560   0.00000  Uiso   1.00
H1483  H     0.34338   0.76382   0.79848   0.00000  Uiso   1.00
N1484  N     0.34480   0.87708   0.87612   0.00000  Uiso   1.00
H1485  H     0.34465   0.87014   0.91107   0.00000  Uiso   1.00
H1486  H     0.65663   0.90284   0.86818   0.00000  Uiso   1.00
N1487  N     0.46179   0.95734   0.74914   0.00000  Uiso   1.00
H1488  H     0.48333   0.96723   0.72308   0.00000  Uiso   1.00
H1489  H     0.42401   0.96609   0.73960   0.00000  Uiso   1.00
N1490  N     0.53821   0.70932   0.91753   0.00000  Uiso   1.00
H1491  H     0.51666   0.69944   0.94359   0.00000  Uiso   1.00
H1492  H     0.57598   0.70058   0.92707   0.00000  Uiso   1.00
C1493  C     0.41638   0.79266   0.70350   0.00000  Uiso   1.00
O1494  O     0.37501   0.80856   0.69518   0.00000  Uiso   1.00
O1495  O     0.41937   0.75466   0.72521   0.00000  Uiso   1.00
H1496  H     0.38475   0.74318   0.73265   0.00000  Uiso   1.00
C1497  C     0.58362   0.87400   0.96317   0.00000  Uiso   1.00
O1498  O     0.62500   0.85812   0.97150   0.00000  Uiso   1.00
O1499  O     0.58063   0.91200   0.94144   0.00000  Uiso   1.00
H1500  H     0.61524   0.92348   0.93401   0.00000  Uiso   1.00
C1501  C     0.42310   0.78477   0.94136   0.00000  Uiso   1.00
O1502  O     0.37921   0.79594   0.93150   0.00000  Uiso   1.00
O1503  O     0.43466   0.74516   0.92959   0.00000  Uiso   1.00
H1504  H     0.40433   0.72945   0.91070   0.00000  Uiso   1.00
C1505  C     0.57690   0.88190   0.72531   0.00000  Uiso   1.00
O1506  O     0.62078   0.87073   0.73517   0.00000  Uiso   1.00
O1507  O     0.56533   0.92151   0.73707   0.00000  Uiso   1.00
H1508  H     0.59566   0.93722   0.75596   0.00000  Uiso   1.00
C1509  C     0.83448   0.75426   0.83353   0.00000  Uiso   1.00
C1510  C     0.83219   0.91241   0.83314   0.00000  Uiso   1.00
C1511  C     0.73479   0.83146   0.82166   0.00000  Uiso   1.00
C1512  C     0.93188   0.83521   0.84500   0.00000  Uiso   1.00
C1513  C     0.67951   0.82372   0.81823   0.00000  Uiso   1.00
C1514  C     0.98715   0.84294   0.84844   0.00000  Uiso   1.00
C1515  C     0.81909   0.68782   0.79237   0.00000  Uiso   1.00
C1516  C     0.84757   0.97885   0.87430   0.00000  Uiso   1.00
C1517  C     0.81591   0.97850   0.79153   0.00000  Uiso   1.00
C1518  C     0.85075   0.68817   0.87513   0.00000  Uiso   1.00
C1519  C     0.83134   0.95708   0.83279   0.00000  Uiso   1.00
C1520  C     0.83533   0.70959   0.83388   0.00000  Uiso   1.00
C1521  C     0.79506   0.81232   0.68620   0.00000  Uiso   1.00
C1522  C     0.87161   0.85435   0.98047   0.00000  Uiso   1.00
C1523  C     0.79574   0.81150   0.97039   0.00000  Uiso   1.00
C1524  C     0.87093   0.85516   0.69628   0.00000  Uiso   1.00
Cu1525 Cu    0.83333   0.83334   0.88022   0.00000  Uiso   1.00
Cu1526 Cu    0.83333   0.83333   0.78645   0.00000  Uiso   1.00
H1527  H     0.80824   0.70366   0.76024   0.00000  Uiso   1.00
H1528  H     0.85843   0.96301   0.90643   0.00000  Uiso   1.00
N1529  N     0.83335   0.83334   0.95069   0.00000  Uiso   1.00
N1530  N     0.83332   0.83332   0.71597   0.00000  Uiso   1.00
O1531  O     0.83333   0.77322   0.87291   0.00000  Uiso   1.00
O1532  O     0.83334   0.89345   0.79375   0.00000  Uiso   1.00
O1533  O     0.83333   0.77321   0.79372   0.00000  Uiso   1.00
O1534  O     0.83334   0.89346   0.87294   0.00000  Uiso   1.00
O1535  O     0.75828   0.83334   0.86379   0.00000  Uiso   1.00
O1536  O     0.90839   0.83333   0.80288   0.00000  Uiso   1.00
O1537  O     0.75828   0.83333   0.78460   0.00000  Uiso   1.00
O1538  O     0.90839   0.83334   0.88207   0.00000  Uiso   1.00
N1539  N     0.98853   0.78958   0.79055   0.00000  Uiso   1.00
H1540  H     0.98868   0.79652   0.75560   0.00000  Uiso   1.00
H1541  H     0.67672   0.76382   0.79848   0.00000  Uiso   1.00
N1542  N     0.67814   0.87708   0.87612   0.00000  Uiso   1.00
H1543  H     0.67798   0.87014   0.91107   0.00000  Uiso   1.00
H1544  H     0.98996   0.90284   0.86818   0.00000  Uiso   1.00
N1545  N     0.79512   0.95734   0.74914   0.00000  Uiso   1.00
H1546  H     0.81666   0.96723   0.72308   0.00000  Uiso   1.00
H1547  H     0.75735   0.96609   0.73960   0.00000  Uiso   1.00
N1548  N     0.87154   0.70932   0.91753   0.00000  Uiso   1.00
H1549  H     0.85000   0.69944   0.94359   0.00000  Uiso   1.00
H1550  H     0.90931   0.70058   0.92707   0.00000  Uiso   1.00
C1551  C     0.74971   0.79266   0.70350   0.00000  Uiso   1.00
O1552  O     0.70834   0.80856   0.69518   0.00000  Uiso   1.00
O1553  O     0.75271   0.75466   0.72521   0.00000  Uiso   1.00
H1554  H     0.71809   0.74318   0.73265   0.00000  Uiso   1.00
C1555  C     0.91696   0.87400   0.96317   0.00000  Uiso   1.00
O1556  O     0.95833   0.85812   0.97150   0.00000  Uiso   1.00
O1557  O     0.91396   0.91200   0.94144   0.00000  Uiso   1.00
H1558  H     0.94858   0.92348   0.93401   0.00000  Uiso   1.00
C1559  C     0.75643   0.78477   0.94136   0.00000  Uiso   1.00
O1560  O     0.71255   0.79594   0.93150   0.00000  Uiso   1.00
O1561  O     0.76800   0.74516   0.92959   0.00000  Uiso   1.00
H1562  H     0.73766   0.72945   0.91070   0.00000  Uiso   1.00
C1563  C     0.91023   0.88190   0.72531   0.00000  Uiso   1.00
O1564  O     0.95412   0.87073   0.73517   0.00000  Uiso   1.00
O1565  O     0.89867   0.92151   0.73707   0.00000  Uiso   1.00
H1566  H     0.92900   0.93722   0.75596   0.00000  Uiso   1.00
loop_
_geom_bond_atom_site_label_1
_geom_bond_atom_site_label_2
_geom_bond_distance
_geom_bond_site_symmetry_2
_ccdc_geom_bond_type
C1     O25     1.308   .     A
C1     O23     1.303   .     A
C1     C12     1.457   .     S
C2     O26     1.308   .     A
C2     O24     1.303   .     A
C2     C11     1.457   .     S
C3     O27     1.290   .     A
C3     O29     1.311   .     A
C3     C5      1.446   .     S
C4     C6      1.446   .     S
C4     O28     1.290   .     A
C4     O30     1.311   .     A
C5     C122    1.350   1_455 S
C5     N147    1.438   1_455 S
C6     C63     1.350   .     S
C6     N92     1.438   .     S
C7     H19     1.077   .     S
C7     C12     1.399   .     A
C7     C357    1.388   1_545 S
C8     H20     1.077   .     S
C8     C11     1.399   .     A
C8     C184    1.388   .     S
C9     C11     1.409   .     A
C9     N37     1.434   .     S
C9     C181    1.388   .     S
C10    C12     1.409   .     A
C10    N40     1.434   .     S
C10    C356    1.388   1_545 S
C13    N22     1.380   .     A
C13    C43     1.469   .     S
C13    C1059   1.429   1_554 S
C14    C47     1.469   .     S
C14    N21     1.380   .     A
C14    C538    1.429   .     S
C15    C51     1.479   .     S
C15    N21     1.373   .     A
C15    C535    1.429   .     S
C16    C55     1.479   .     S
C16    N22     1.373   .     A
C16    C1058   1.429   1_554 S
Cu17   Cu18    2.722   .     S
Cu17   O23     1.971   .     S
Cu17   O30     1.960   .     S
Cu17   O26     1.971   .     S
Cu17   O27     1.959   .     S
Cu17   N21     2.045   .     S
Cu18   O29     1.960   .     S
Cu18   O25     1.971   .     S
Cu18   O24     1.971   .     S
Cu18   O28     1.959   .     S
Cu18   N22     2.045   .     S
N31    H32     1.040   .     S
N31    C63     1.438   .     S
N31    H91     1.045   .     S
H33    N147    1.045   1_455 S
N34    H35     1.040   .     S
N34    C122    1.438   1_455 S
N34    H152    1.045   1_455 S
H36    N92     1.045   .     S
N37    H39     1.046   .     S
N37    H38     1.046   .     S
N40    H41     1.046   .     S
N40    H42     1.046   .     S
C43    O44     1.222   .     D
C43    O45     1.392   .     S
O45    H46     1.013   .     S
C47    O48     1.222   .     D
C47    O49     1.392   .     S
O49    H50     1.013   .     S
C51    O52     1.222   .     D
C51    O53     1.395   .     S
O53    H54     1.014   .     S
C55    O56     1.222   .     D
C55    O57     1.395   .     S
O57    H58     1.014   .     S
C59    O83     1.308   .     A
C59    O81     1.303   .     A
C59    C70     1.457   .     S
C60    O84     1.308   .     A
C60    O82     1.303   .     A
C60    C69     1.457   .     S
C61    O85     1.290   .     A
C61    O87     1.311   .     A
C61    C63     1.446   .     S
C62    C64     1.446   .     S
C62    O86     1.290   .     A
C62    O88     1.311   .     A
C64    C121    1.350   .     S
C64    N150    1.438   .     S
C65    H77     1.077   .     S
C65    C70     1.399   .     A
C65    C415    1.388   1_545 S
C66    H78     1.077   .     S
C66    C69     1.399   .     A
C66    C242    1.388   .     S
C67    C69     1.409   .     A
C67    N95     1.434   .     S
C67    C239    1.388   .     S
C68    C70     1.409   .     A
C68    N98     1.434   .     S
C68    C414    1.388   1_545 S
C71    N80     1.380   .     A
C71    C101    1.469   .     S
C71    C1117   1.429   1_554 S
C72    C105    1.469   .     S
C72    N79     1.380   .     A
C72    C596    1.429   .     S
C73    C109    1.479   .     S
C73    N79     1.373   .     A
C73    C593    1.429   .     S
C74    C113    1.479   .     S
C74    N80     1.373   .     A
C74    C1116   1.429   1_554 S
Cu75   Cu76    2.722   .     S
Cu75   O81     1.971   .     S
Cu75   O88     1.960   .     S
Cu75   O84     1.971   .     S
Cu75   O85     1.959   .     S
Cu75   N79     2.045   .     S
Cu76   O87     1.960   .     S
Cu76   O83     1.971   .     S
Cu76   O82     1.971   .     S
Cu76   O86     1.959   .     S
Cu76   N80     2.045   .     S
N89    H90     1.040   .     S
N89    C121    1.438   .     S
N89    H149    1.045   .     S
N92    H93     1.040   .     S
H94    N150    1.045   .     S
N95    H97     1.046   .     S
N95    H96     1.046   .     S
N98    H99     1.046   .     S
N98    H100    1.046   .     S
C101   O102    1.222   .     D
C101   O103    1.392   .     S
O103   H104    1.013   .     S
C105   O106    1.222   .     D
C105   O107    1.392   .     S
O107   H108    1.013   .     S
C109   O110    1.222   .     D
C109   O111    1.395   .     S
O111   H112    1.014   .     S
C113   O114    1.222   .     D
C113   O115    1.395   .     S
O115   H116    1.014   .     S
C117   O141    1.308   .     A
C117   O139    1.303   .     A
C117   C128    1.457   .     S
C118   O142    1.308   .     A
C118   O140    1.303   .     A
C118   C127    1.457   .     S
C119   O143    1.290   .     A
C119   O145    1.311   .     A
C119   C121    1.446   .     S
C120   C122    1.446   .     S
C120   O144    1.290   .     A
C120   O146    1.311   .     A
C122   C5      1.350   1_655 S
C122   N34     1.438   1_655 S
C123   H135    1.077   .     S
C123   C128    1.399   .     A
C123   C473    1.388   1_545 S
C124   H136    1.077   .     S
C124   C127    1.399   .     A
C124   C300    1.388   .     S
C125   C127    1.409   .     A
C125   N153    1.434   .     S
C125   C297    1.388   .     S
C126   C128    1.409   .     A
C126   N156    1.434   .     S
C126   C472    1.388   1_545 S
C129   N138    1.380   .     A
C129   C159    1.469   .     S
C129   C1175   1.429   1_554 S
C130   C163    1.469   .     S
C130   N137    1.380   .     A
C130   C654    1.429   .     S
C131   C167    1.479   .     S
C131   N137    1.373   .     A
C131   C651    1.429   .     S
C132   C171    1.479   .     S
C132   N138    1.373   .     A
C132   C1174   1.429   1_554 S
Cu133  Cu134   2.722   .     S
Cu133  O139    1.971   .     S
Cu133  O146    1.960   .     S
Cu133  O142    1.971   .     S
Cu133  O143    1.959   .     S
Cu133  N137    2.045   .     S
Cu134  O145    1.960   .     S
Cu134  O141    1.971   .     S
Cu134  O140    1.971   .     S
Cu134  O144    1.959   .     S
Cu134  N138    2.045   .     S
N147   H148    1.040   .     S
N147   C5      1.438   1_655 S
N147   H33     1.045   1_655 S
N150   H151    1.040   .     S
H152   N34     1.045   1_655 S
N153   H155    1.046   .     S
N153   H154    1.046   .     S
N156   H157    1.046   .     S
N156   H158    1.046   .     S
C159   O160    1.222   .     D
C159   O161    1.392   .     S
O161   H162    1.013   .     S
C163   O164    1.222   .     D
C163   O165    1.392   .     S
O165   H166    1.013   .     S
C167   O168    1.222   .     D
C167   O169    1.395   .     S
O169   H170    1.014   .     S
C171   O172    1.222   .     D
C171   O173    1.395   .     S
O173   H174    1.014   .     S
C175   O199    1.308   .     A
C175   O197    1.303   .     A
C175   C186    1.457   .     S
C176   O200    1.308   .     A
C176   O198    1.303   .     A
C176   C185    1.457   .     S
C177   O201    1.290   .     A
C177   O203    1.311   .     A
C177   C179    1.446   .     S
C178   C180    1.446   .     S
C178   O202    1.290   .     A
C178   O204    1.311   .     A
C179   C296    1.350   1_455 S
C179   N321    1.438   1_455 S
C180   C237    1.350   .     S
C180   N266    1.438   .     S
C181   H193    1.077   .     S
C181   C186    1.399   .     A
C182   H194    1.077   .     S
C182   C185    1.399   .     A
C182   C358    1.388   .     S
C183   C185    1.409   .     A
C183   N211    1.434   .     S
C183   C355    1.388   .     S
C184   C186    1.409   .     A
C184   N214    1.434   .     S
C187   N196    1.380   .     A
C187   C217    1.469   .     S
C187   C1233   1.429   1_554 S
C188   C221    1.469   .     S
C188   N195    1.380   .     A
C188   C712    1.429   .     S
C189   C225    1.479   .     S
C189   N195    1.373   .     A
C189   C709    1.429   .     S
C190   C229    1.479   .     S
C190   N196    1.373   .     A
C190   C1232   1.429   1_554 S
Cu191  Cu192   2.722   .     S
Cu191  O197    1.971   .     S
Cu191  O204    1.960   .     S
Cu191  O200    1.971   .     S
Cu191  O201    1.959   .     S
Cu191  N195    2.045   .     S
Cu192  O203    1.960   .     S
Cu192  O199    1.971   .     S
Cu192  O198    1.971   .     S
Cu192  O202    1.959   .     S
Cu192  N196    2.045   .     S
N205   H206    1.040   .     S
N205   C237    1.438   .     S
N205   H265    1.045   .     S
H207   N321    1.045   1_455 S
N208   H209    1.040   .     S
N208   C296    1.438   1_455 S
N208   H326    1.045   1_455 S
H210   N266    1.045   .     S
N211   H213    1.046   .     S
N211   H212    1.046   .     S
N214   H215    1.046   .     S
N214   H216    1.046   .     S
C217   O218    1.222   .     D
C217   O219    1.392   .     S
O219   H220    1.013   .     S
C221   O222    1.222   .     D
C221   O223    1.392   .     S
O223   H224    1.013   .     S
C225   O226    1.222   .     D
C225   O227    1.395   .     S
O227   H228    1.014   .     S
C229   O230    1.222   .     D
C229   O231    1.395   .     S
O231   H232    1.014   .     S
C233   O257    1.308   .     A
C233   O255    1.303   .     A
C233   C244    1.457   .     S
C234   O258    1.308   .     A
C234   O256    1.303   .     A
C234   C243    1.457   .     S
C235   O259    1.290   .     A
C235   O261    1.311   .     A
C235   C237    1.446   .     S
C236   C238    1.446   .     S
C236   O260    1.290   .     A
C236   O262    1.311   .     A
C238   C295    1.350   .     S
C238   N324    1.438   .     S
C239   H251    1.077   .     S
C239   C244    1.399   .     A
C240   H252    1.077   .     S
C240   C243    1.399   .     A
C240   C416    1.388   .     S
C241   C243    1.409   .     A
C241   N269    1.434   .     S
C241   C413    1.388   .     S
C242   C244    1.409   .     A
C242   N272    1.434   .     S
C245   N254    1.380   .     A
C245   C275    1.469   .     S
C245   C1291   1.429   1_554 S
C246   C279    1.469   .     S
C246   N253    1.380   .     A
C246   C770    1.429   .     S
C247   C283    1.479   .     S
C247   N253    1.373   .     A
C247   C767    1.429   .     S
C248   C287    1.479   .     S
C248   N254    1.373   .     A
C248   C1290   1.429   1_554 S
Cu249  Cu250   2.722   .     S
Cu249  O255    1.971   .     S
Cu249  O262    1.960   .     S
Cu249  O258    1.971   .     S
Cu249  O259    1.959   .     S
Cu249  N253    2.045   .     S
Cu250  O261    1.960   .     S
Cu250  O257    1.971   .     S
Cu250  O256    1.971   .     S
Cu250  O260    1.959   .     S
Cu250  N254    2.045   .     S
N263   H264    1.040   .     S
N263   C295    1.438   .     S
N263   H323    1.045   .     S
N266   H267    1.040   .     S
H268   N324    1.045   .     S
N269   H271    1.046   .     S
N269   H270    1.046   .     S
N272   H273    1.046   .     S
N272   H274    1.046   .     S
C275   O276    1.222   .     D
C275   O277    1.392   .     S
O277   H278    1.013   .     S
C279   O280    1.222   .     D
C279   O281    1.392   .     S
O281   H282    1.013   .     S
C283   O284    1.222   .     D
C283   O285    1.395   .     S
O285   H286    1.014   .     S
C287   O288    1.222   .     D
C287   O289    1.395   .     S
O289   H290    1.014   .     S
C291   O315    1.308   .     A
C291   O313    1.303   .     A
C291   C302    1.457   .     S
C292   O316    1.308   .     A
C292   O314    1.303   .     A
C292   C301    1.457   .     S
C293   O317    1.290   .     A
C293   O319    1.311   .     A
C293   C295    1.446   .     S
C294   C296    1.446   .     S
C294   O318    1.290   .     A
C294   O320    1.311   .     A
C296   C179    1.350   1_655 S
C296   N208    1.438   1_655 S
C297   H309    1.077   .     S
C297   C302    1.399   .     A
C298   H310    1.077   .     S
C298   C301    1.399   .     A
C298   C474    1.388   .     S
C299   C301    1.409   .     A
C299   N327    1.434   .     S
C299   C471    1.388   .     S
C300   C302    1.409   .     A
C300   N330    1.434   .     S
C303   N312    1.380   .     A
C303   C333    1.469   .     S
C303   C1349   1.429   1_554 S
C304   C337    1.469   .     S
C304   N311    1.380   .     A
C304   C828    1.429   .     S
C305   C341    1.479   .     S
C305   N311    1.373   .     A
C305   C825    1.429   .     S
C306   C345    1.479   .     S
C306   N312    1.373   .     A
C306   C1348   1.429   1_554 S
Cu307  Cu308   2.722   .     S
Cu307  O313    1.971   .     S
Cu307  O320    1.960   .     S
Cu307  O316    1.971   .     S
Cu307  O317    1.959   .     S
Cu307  N311    2.045   .     S
Cu308  O319    1.960   .     S
Cu308  O315    1.971   .     S
Cu308  O314    1.971   .     S
Cu308  O318    1.959   .     S
Cu308  N312    2.045   .     S
N321   H322    1.040   .     S
N321   C179    1.438   1_655 S
N321   H207    1.045   1_655 S
N324   H325    1.040   .     S
H326   N208    1.045   1_655 S
N327   H329    1.046   .     S
N327   H328    1.046   .     S
N330   H331    1.046   .     S
N330   H332    1.046   .     S
C333   O334    1.222   .     D
C333   O335    1.392   .     S
O335   H336    1.013   .     S
C337   O338    1.222   .     D
C337   O339    1.392   .     S
O339   H340    1.013   .     S
C341   O342    1.222   .     D
C341   O343    1.395   .     S
O343   H344    1.014   .     S
C345   O346    1.222   .     D
C345   O347    1.395   .     S
O347   H348    1.014   .     S
C349   O373    1.308   .     A
C349   O371    1.303   .     A
C349   C360    1.457   .     S
C350   O374    1.308   .     A
C350   O372    1.303   .     A
C350   C359    1.457   .     S
C351   O375    1.290   .     A
C351   O377    1.311   .     A
C351   C353    1.446   .     S
C352   C354    1.446   .     S
C352   O376    1.290   .     A
C352   O378    1.311   .     A
C353   C470    1.350   1_455 S
C353   N495    1.438   1_455 S
C354   C411    1.350   .     S
C354   N440    1.438   .     S
C355   H367    1.077   .     S
C355   C360    1.399   .     A
C356   H368    1.077   .     S
C356   C359    1.399   .     A
C356   C10     1.388   1_565 S
C357   C359    1.409   .     A
C357   N385    1.434   .     S
C357   C7      1.388   1_565 S
C358   C360    1.409   .     A
C358   N388    1.434   .     S
C361   N370    1.380   .     A
C361   C391    1.469   .     S
C361   C1407   1.429   1_554 S
C362   C395    1.469   .     S
C362   N369    1.380   .     A
C362   C886    1.429   .     S
C363   C399    1.479   .     S
C363   N369    1.373   .     A
C363   C883    1.429   .     S
C364   C403    1.479   .     S
C364   N370    1.373   .     A
C364   C1406   1.429   1_554 S
Cu365  Cu366   2.722   .     S
Cu365  O371    1.971   .     S
Cu365  O378    1.960   .     S
Cu365  O374    1.971   .     S
Cu365  O375    1.959   .     S
Cu365  N369    2.045   .     S
Cu366  O377    1.960   .     S
Cu366  O373    1.971   .     S
Cu366  O372    1.971   .     S
Cu366  O376    1.959   .     S
Cu366  N370    2.045   .     S
N379   H380    1.040   .     S
N379   C411    1.438   .     S
N379   H439    1.045   .     S
H381   N495    1.045   1_455 S
N382   H383    1.040   .     S
N382   C470    1.438   1_455 S
N382   H500    1.045   1_455 S
H384   N440    1.045   .     S
N385   H387    1.046   .     S
N385   H386    1.046   .     S
N388   H389    1.046   .     S
N388   H390    1.046   .     S
C391   O392    1.222   .     D
C391   O393    1.392   .     S
O393   H394    1.013   .     S
C395   O396    1.222   .     D
C395   O397    1.392   .     S
O397   H398    1.013   .     S
C399   O400    1.222   .     D
C399   O401    1.395   .     S
O401   H402    1.014   .     S
C403   O404    1.222   .     D
C403   O405    1.395   .     S
O405   H406    1.014   .     S
C407   O431    1.308   .     A
C407   O429    1.303   .     A
C407   C418    1.457   .     S
C408   O432    1.308   .     A
C408   O430    1.303   .     A
C408   C417    1.457   .     S
C409   O433    1.290   .     A
C409   O435    1.311   .     A
C409   C411    1.446   .     S
C410   C412    1.446   .     S
C410   O434    1.290   .     A
C410   O436    1.311   .     A
C412   C469    1.350   .     S
C412   N498    1.438   .     S
C413   H425    1.077   .     S
C413   C418    1.399   .     A
C414   H426    1.077   .     S
C414   C417    1.399   .     A
C414   C68     1.388   1_565 S
C415   C417    1.409   .     A
C415   N443    1.434   .     S
C415   C65     1.388   1_565 S
C416   C418    1.409   .     A
C416   N446    1.434   .     S
C419   N428    1.380   .     A
C419   C449    1.469   .     S
C419   C1465   1.429   1_554 S
C420   C453    1.469   .     S
C420   N427    1.380   .     A
C420   C944    1.429   .     S
C421   C457    1.479   .     S
C421   N427    1.373   .     A
C421   C941    1.429   .     S
C422   C461    1.479   .     S
C422   N428    1.373   .     A
C422   C1464   1.429   1_554 S
Cu423  Cu424   2.722   .     S
Cu423  O429    1.971   .     S
Cu423  O436    1.960   .     S
Cu423  O432    1.971   .     S
Cu423  O433    1.959   .     S
Cu423  N427    2.045   .     S
Cu424  O435    1.960   .     S
Cu424  O431    1.971   .     S
Cu424  O430    1.971   .     S
Cu424  O434    1.959   .     S
Cu424  N428    2.045   .     S
N437   H438    1.040   .     S
N437   C469    1.438   .     S
N437   H497    1.045   .     S
N440   H441    1.040   .     S
H442   N498    1.045   .     S
N443   H445    1.046   .     S
N443   H444    1.046   .     S
N446   H447    1.046   .     S
N446   H448    1.046   .     S
C449   O450    1.222   .     D
C449   O451    1.392   .     S
O451   H452    1.013   .     S
C453   O454    1.222   .     D
C453   O455    1.392   .     S
O455   H456    1.013   .     S
C457   O458    1.222   .     D
C457   O459    1.395   .     S
O459   H460    1.014   .     S
C461   O462    1.222   .     D
C461   O463    1.395   .     S
O463   H464    1.014   .     S
C465   O489    1.308   .     A
C465   O487    1.303   .     A
C465   C476    1.457   .     S
C466   O490    1.308   .     A
C466   O488    1.303   .     A
C466   C475    1.457   .     S
C467   O491    1.290   .     A
C467   O493    1.311   .     A
C467   C469    1.446   .     S
C468   C470    1.446   .     S
C468   O492    1.290   .     A
C468   O494    1.311   .     A
C470   C353    1.350   1_655 S
C470   N382    1.438   1_655 S
C471   H483    1.077   .     S
C471   C476    1.399   .     A
C472   H484    1.077   .     S
C472   C475    1.399   .     A
C472   C126    1.388   1_565 S
C473   C475    1.409   .     A
C473   N501    1.434   .     S
C473   C123    1.388   1_565 S
C474   C476    1.409   .     A
C474   N504    1.434   .     S
C477   N486    1.380   .     A
C477   C507    1.469   .     S
C477   C1523   1.429   1_554 S
C478   C511    1.469   .     S
C478   N485    1.380   .     A
C478   C1002   1.429   .     S
C479   C515    1.479   .     S
C479   N485    1.373   .     A
C479   C999    1.429   .     S
C480   C519    1.479   .     S
C480   N486    1.373   .     A
C480   C1522   1.429   1_554 S
Cu481  Cu482   2.722   .     S
Cu481  O487    1.971   .     S
Cu481  O494    1.960   .     S
Cu481  O490    1.971   .     S
Cu481  O491    1.959   .     S
Cu481  N485    2.045   .     S
Cu482  O493    1.960   .     S
Cu482  O489    1.971   .     S
Cu482  O488    1.971   .     S
Cu482  O492    1.959   .     S
Cu482  N486    2.045   .     S
N495   H496    1.040   .     S
N495   C353    1.438   1_655 S
N495   H381    1.045   1_655 S
N498   H499    1.040   .     S
H500   N382    1.045   1_655 S
N501   H503    1.046   .     S
N501   H502    1.046   .     S
N504   H505    1.046   .     S
N504   H506    1.046   .     S
C507   O508    1.222   .     D
C507   O509    1.392   .     S
O509   H510    1.013   .     S
C511   O512    1.222   .     D
C511   O513    1.392   .     S
O513   H514    1.013   .     S
C515   O516    1.222   .     D
C515   O517    1.395   .     S
O517   H518    1.014   .     S
C519   O520    1.222   .     D
C519   O521    1.395   .     S
O521   H522    1.014   .     S
C523   O547    1.308   .     A
C523   O545    1.303   .     A
C523   C534    1.457   .     S
C524   O548    1.308   .     A
C524   O546    1.303   .     A
C524   C533    1.457   .     S
C525   O549    1.290   .     A
C525   O551    1.311   .     A
C525   C527    1.446   .     S
C526   C528    1.446   .     S
C526   O550    1.290   .     A
C526   O552    1.311   .     A
C527   C644    1.350   1_455 S
C527   N669    1.438   1_455 S
C528   C585    1.350   .     S
C528   N614    1.438   .     S
C529   H541    1.077   .     S
C529   C534    1.399   .     A
C529   C879    1.388   1_545 S
C530   H542    1.077   .     S
C530   C533    1.399   .     A
C530   C706    1.388   .     S
C531   C533    1.409   .     A
C531   N559    1.434   .     S
C531   C703    1.388   .     S
C532   C534    1.409   .     A
C532   N562    1.434   .     S
C532   C878    1.388   1_545 S
C535   N544    1.380   .     A
C535   C565    1.469   .     S
C536   C569    1.469   .     S
C536   N543    1.380   .     A
C536   C1060   1.429   .     S
C537   C573    1.479   .     S
C537   N543    1.373   .     A
C537   C1057   1.429   .     S
C538   C577    1.479   .     S
C538   N544    1.373   .     A
Cu539  Cu540   2.722   .     S
Cu539  O545    1.971   .     S
Cu539  O552    1.960   .     S
Cu539  O548    1.971   .     S
Cu539  O549    1.959   .     S
Cu539  N543    2.045   .     S
Cu540  O551    1.960   .     S
Cu540  O547    1.971   .     S
Cu540  O546    1.971   .     S
Cu540  O550    1.959   .     S
Cu540  N544    2.045   .     S
N553   H554    1.040   .     S
N553   C585    1.438   .     S
N553   H613    1.045   .     S
H555   N669    1.045   1_455 S
N556   H557    1.040   .     S
N556   C644    1.438   1_455 S
N556   H674    1.045   1_455 S
H558   N614    1.045   .     S
N559   H561    1.046   .     S
N559   H560    1.046   .     S
N562   H563    1.046   .     S
N562   H564    1.046   .     S
C565   O566    1.222   .     D
C565   O567    1.392   .     S
O567   H568    1.013   .     S
C569   O570    1.222   .     D
C569   O571    1.392   .     S
O571   H572    1.013   .     S
C573   O574    1.222   .     D
C573   O575    1.395   .     S
O575   H576    1.014   .     S
C577   O578    1.222   .     D
C577   O579    1.395   .     S
O579   H580    1.014   .     S
C581   O605    1.308   .     A
C581   O603    1.303   .     A
C581   C592    1.457   .     S
C582   O606    1.308   .     A
C582   O604    1.303   .     A
C582   C591    1.457   .     S
C583   O607    1.290   .     A
C583   O609    1.311   .     A
C583   C585    1.446   .     S
C584   C586    1.446   .     S
C584   O608    1.290   .     A
C584   O610    1.311   .     A
C586   C643    1.350   .     S
C586   N672    1.438   .     S
C587   H599    1.077   .     S
C587   C592    1.399   .     A
C587   C937    1.388   1_545 S
C588   H600    1.077   .     S
C588   C591    1.399   .     A
C588   C764    1.388   .     S
C589   C591    1.409   .     A
C589   N617    1.434   .     S
C589   C761    1.388   .     S
C590   C592    1.409   .     A
C590   N620    1.434   .     S
C590   C936    1.388   1_545 S
C593   N602    1.380   .     A
C593   C623    1.469   .     S
C594   C627    1.469   .     S
C594   N601    1.380   .     A
C594   C1118   1.429   .     S
C595   C631    1.479   .     S
C595   N601    1.373   .     A
C595   C1115   1.429   .     S
C596   C635    1.479   .     S
C596   N602    1.373   .     A
Cu597  Cu598   2.722   .     S
Cu597  O603    1.971   .     S
Cu597  O610    1.960   .     S
Cu597  O606    1.971   .     S
Cu597  O607    1.959   .     S
Cu597  N601    2.045   .     S
Cu598  O609    1.960   .     S
Cu598  O605    1.971   .     S
Cu598  O604    1.971   .     S
Cu598  O608    1.959   .     S
Cu598  N602    2.045   .     S
N611   H612    1.040   .     S
N611   C643    1.438   .     S
N611   H671    1.045   .     S
N614   H615    1.040   .     S
H616   N672    1.045   .     S
N617   H619    1.046   .     S
N617   H618    1.046   .     S
N620   H621    1.046   .     S
N620   H622    1.046   .     S
C623   O624    1.222   .     D
C623   O625    1.392   .     S
O625   H626    1.013   .     S
C627   O628    1.222   .     D
C627   O629    1.392   .     S
O629   H630    1.013   .     S
C631   O632    1.222   .     D
C631   O633    1.395   .     S
O633   H634    1.014   .     S
C635   O636    1.222   .     D
C635   O637    1.395   .     S
O637   H638    1.014   .     S
C639   O663    1.308   .     A
C639   O661    1.303   .     A
C639   C650    1.457   .     S
C640   O664    1.308   .     A
C640   O662    1.303   .     A
C640   C649    1.457   .     S
C641   O665    1.290   .     A
C641   O667    1.311   .     A
C641   C643    1.446   .     S
C642   C644    1.446   .     S
C642   O666    1.290   .     A
C642   O668    1.311   .     A
C644   C527    1.350   1_655 S
C644   N556    1.438   1_655 S
C645   H657    1.077   .     S
C645   C650    1.399   .     A
C645   C995    1.388   1_545 S
C646   H658    1.077   .     S
C646   C649    1.399   .     A
C646   C822    1.388   .     S
C647   C649    1.409   .     A
C647   N675    1.434   .     S
C647   C819    1.388   .     S
C648   C650    1.409   .     A
C648   N678    1.434   .     S
C648   C994    1.388   1_545 S
C651   N660    1.380   .     A
C651   C681    1.469   .     S
C652   C685    1.469   .     S
C652   N659    1.380   .     A
C652   C1176   1.429   .     S
C653   C689    1.479   .     S
C653   N659    1.373   .     A
C653   C1173   1.429   .     S
C654   C693    1.479   .     S
C654   N660    1.373   .     A
Cu655  Cu656   2.722   .     S
Cu655  O661    1.971   .     S
Cu655  O668    1.960   .     S
Cu655  O664    1.971   .     S
Cu655  O665    1.959   .     S
Cu655  N659    2.045   .     S
Cu656  O667    1.960   .     S
Cu656  O663    1.971   .     S
Cu656  O662    1.971   .     S
Cu656  O666    1.959   .     S
Cu656  N660    2.045   .     S
N669   H670    1.040   .     S
N669   C527    1.438   1_655 S
N669   H555    1.045   1_655 S
N672   H673    1.040   .     S
H674   N556    1.045   1_655 S
N675   H677    1.046   .     S
N675   H676    1.046   .     S
N678   H679    1.046   .     S
N678   H680    1.046   .     S
C681   O682    1.222   .     D
C681   O683    1.392   .     S
O683   H684    1.013   .     S
C685   O686    1.222   .     D
C685   O687    1.392   .     S
O687   H688    1.013   .     S
C689   O690    1.222   .     D
C689   O691    1.395   .     S
O691   H692    1.014   .     S
C693   O694    1.222   .     D
C693   O695    1.395   .     S
O695   H696    1.014   .     S
C697   O721    1.308   .     A
C697   O719    1.303   .     A
C697   C708    1.457   .     S
C698   O722    1.308   .     A
C698   O720    1.303   .     A
C698   C707    1.457   .     S
C699   O723    1.290   .     A
C699   O725    1.311   .     A
C699   C701    1.446   .     S
C700   C702    1.446   .     S
C700   O724    1.290   .     A
C700   O726    1.311   .     A
C701   C818    1.350   1_455 S
C701   N843    1.438   1_455 S
C702   C759    1.350   .     S
C702   N788    1.438   .     S
C703   H715    1.077   .     S
C703   C708    1.399   .     A
C704   H716    1.077   .     S
C704   C707    1.399   .     A
C704   C880    1.388   .     S
C705   C707    1.409   .     A
C705   N733    1.434   .     S
C705   C877    1.388   .     S
C706   C708    1.409   .     A
C706   N736    1.434   .     S
C709   N718    1.380   .     A
C709   C739    1.469   .     S
C710   C743    1.469   .     S
C710   N717    1.380   .     A
C710   C1234   1.429   .     S
C711   C747    1.479   .     S
C711   N717    1.373   .     A
C711   C1231   1.429   .     S
C712   C751    1.479   .     S
C712   N718    1.373   .     A
Cu713  Cu714   2.722   .     S
Cu713  O719    1.971   .     S
Cu713  O726    1.960   .     S
Cu713  O722    1.971   .     S
Cu713  O723    1.959   .     S
Cu713  N717    2.045   .     S
Cu714  O725    1.960   .     S
Cu714  O721    1.971   .     S
Cu714  O720    1.971   .     S
Cu714  O724    1.959   .     S
Cu714  N718    2.045   .     S
N727   H728    1.040   .     S
N727   C759    1.438   .     S
N727   H787    1.045   .     S
H729   N843    1.045   1_455 S
N730   H731    1.040   .     S
N730   C818    1.438   1_455 S
N730   H848    1.045   1_455 S
H732   N788    1.045   .     S
N733   H735    1.046   .     S
N733   H734    1.046   .     S
N736   H737    1.046   .     S
N736   H738    1.046   .     S
C739   O740    1.222   .     D
C739   O741    1.392   .     S
O741   H742    1.013   .     S
C743   O744    1.222   .     D
C743   O745    1.392   .     S
O745   H746    1.013   .     S
C747   O748    1.222   .     D
C747   O749    1.395   .     S
O749   H750    1.014   .     S
C751   O752    1.222   .     D
C751   O753    1.395   .     S
O753   H754    1.014   .     S
C755   O779    1.308   .     A
C755   O777    1.303   .     A
C755   C766    1.457   .     S
C756   O780    1.308   .     A
C756   O778    1.303   .     A
C756   C765    1.457   .     S
C757   O781    1.290   .     A
C757   O783    1.311   .     A
C757   C759    1.446   .     S
C758   C760    1.446   .     S
C758   O782    1.290   .     A
C758   O784    1.311   .     A
C760   C817    1.350   .     S
C760   N846    1.438   .     S
C761   H773    1.077   .     S
C761   C766    1.399   .     A
C762   H774    1.077   .     S
C762   C765    1.399   .     A
C762   C938    1.388   .     S
C763   C765    1.409   .     A
C763   N791    1.434   .     S
C763   C935    1.388   .     S
C764   C766    1.409   .     A
C764   N794    1.434   .     S
C767   N776    1.380   .     A
C767   C797    1.469   .     S
C768   C801    1.469   .     S
C768   N775    1.380   .     A
C768   C1292   1.429   .     S
C769   C805    1.479   .     S
C769   N775    1.373   .     A
C769   C1289   1.429   .     S
C770   C809    1.479   .     S
C770   N776    1.373   .     A
Cu771  Cu772   2.722   .     S
Cu771  O777    1.971   .     S
Cu771  O784    1.960   .     S
Cu771  O780    1.971   .     S
Cu771  O781    1.959   .     S
Cu771  N775    2.045   .     S
Cu772  O783    1.960   .     S
Cu772  O779    1.971   .     S
Cu772  O778    1.971   .     S
Cu772  O782    1.959   .     S
Cu772  N776    2.045   .     S
N785   H786    1.040   .     S
N785   C817    1.438   .     S
N785   H845    1.045   .     S
N788   H789    1.040   .     S
H790   N846    1.045   .     S
N791   H793    1.046   .     S
N791   H792    1.046   .     S
N794   H795    1.046   .     S
N794   H796    1.046   .     S
C797   O798    1.222   .     D
C797   O799    1.392   .     S
O799   H800    1.013   .     S
C801   O802    1.222   .     D
C801   O803    1.392   .     S
O803   H804    1.013   .     S
C805   O806    1.222   .     D
C805   O807    1.395   .     S
O807   H808    1.014   .     S
C809   O810    1.222   .     D
C809   O811    1.395   .     S
O811   H812    1.014   .     S
C813   O837    1.308   .     A
C813   O835    1.303   .     A
C813   C824    1.457   .     S
C814   O838    1.308   .     A
C814   O836    1.303   .     A
C814   C823    1.457   .     S
C815   O839    1.290   .     A
C815   O841    1.311   .     A
C815   C817    1.446   .     S
C816   C818    1.446   .     S
C816   O840    1.290   .     A
C816   O842    1.311   .     A
C818   C701    1.350   1_655 S
C818   N730    1.438   1_655 S
C819   H831    1.077   .     S
C819   C824    1.399   .     A
C820   H832    1.077   .     S
C820   C823    1.399   .     A
C820   C996    1.388   .     S
C821   C823    1.409   .     A
C821   N849    1.434   .     S
C821   C993    1.388   .     S
C822   C824    1.409   .     A
C822   N852    1.434   .     S
C825   N834    1.380   .     A
C825   C855    1.469   .     S
C826   C859    1.469   .     S
C826   N833    1.380   .     A
C826   C1350   1.429   .     S
C827   C863    1.479   .     S
C827   N833    1.373   .     A
C827   C1347   1.429   .     S
C828   C867    1.479   .     S
C828   N834    1.373   .     A
Cu829  Cu830   2.722   .     S
Cu829  O835    1.971   .     S
Cu829  O842    1.960   .     S
Cu829  O838    1.971   .     S
Cu829  O839    1.959   .     S
Cu829  N833    2.045   .     S
Cu830  O841    1.960   .     S
Cu830  O837    1.971   .     S
Cu830  O836    1.971   .     S
Cu830  O840    1.959   .     S
Cu830  N834    2.045   .     S
N843   H844    1.040   .     S
N843   C701    1.438   1_655 S
N843   H729    1.045   1_655 S
N846   H847    1.040   .     S
H848   N730    1.045   1_655 S
N849   H851    1.046   .     S
N849   H850    1.046   .     S
N852   H853    1.046   .     S
N852   H854    1.046   .     S
C855   O856    1.222   .     D
C855   O857    1.392   .     S
O857   H858    1.013   .     S
C859   O860    1.222   .     D
C859   O861    1.392   .     S
O861   H862    1.013   .     S
C863   O864    1.222   .     D
C863   O865    1.395   .     S
O865   H866    1.014   .     S
C867   O868    1.222   .     D
C867   O869    1.395   .     S
O869   H870    1.014   .     S
C871   O895    1.308   .     A
C871   O893    1.303   .     A
C871   C882    1.457   .     S
C872   O896    1.308   .     A
C872   O894    1.303   .     A
C872   C881    1.457   .     S
C873   O897    1.290   .     A
C873   O899    1.311   .     A
C873   C875    1.446   .     S
C874   C876    1.446   .     S
C874   O898    1.290   .     A
C874   O900    1.311   .     A
C875   C992    1.350   1_455 S
C875   N1017   1.438   1_455 S
C876   C933    1.350   .     S
C876   N962    1.438   .     S
C877   H889    1.077   .     S
C877   C882    1.399   .     A
C878   H890    1.077   .     S
C878   C881    1.399   .     A
C878   C532    1.388   1_565 S
C879   C881    1.409   .     A
C879   N907    1.434   .     S
C879   C529    1.388   1_565 S
C880   C882    1.409   .     A
C880   N910    1.434   .     S
C883   N892    1.380   .     A
C883   C913    1.469   .     S
C884   C917    1.469   .     S
C884   N891    1.380   .     A
C884   C1408   1.429   .     S
C885   C921    1.479   .     S
C885   N891    1.373   .     A
C885   C1405   1.429   .     S
C886   C925    1.479   .     S
C886   N892    1.373   .     A
Cu887  Cu888   2.722   .     S
Cu887  O893    1.971   .     S
Cu887  O900    1.960   .     S
Cu887  O896    1.971   .     S
Cu887  O897    1.959   .     S
Cu887  N891    2.045   .     S
Cu888  O899    1.960   .     S
Cu888  O895    1.971   .     S
Cu888  O894    1.971   .     S
Cu888  O898    1.959   .     S
Cu888  N892    2.045   .     S
N901   H902    1.040   .     S
N901   C933    1.438   .     S
N901   H961    1.045   .     S
H903   N1017   1.045   1_455 S
N904   H905    1.040   .     S
N904   C992    1.438   1_455 S
N904   H1022   1.045   1_455 S
H906   N962    1.045   .     S
N907   H909    1.046   .     S
N907   H908    1.046   .     S
N910   H911    1.046   .     S
N910   H912    1.046   .     S
C913   O914    1.222   .     D
C913   O915    1.392   .     S
O915   H916    1.013   .     S
C917   O918    1.222   .     D
C917   O919    1.392   .     S
O919   H920    1.013   .     S
C921   O922    1.222   .     D
C921   O923    1.395   .     S
O923   H924    1.014   .     S
C925   O926    1.222   .     D
C925   O927    1.395   .     S
O927   H928    1.014   .     S
C929   O953    1.308   .     A
C929   O951    1.303   .     A
C929   C940    1.457   .     S
C930   O954    1.308   .     A
C930   O952    1.303   .     A
C930   C939    1.457   .     S
C931   O955    1.290   .     A
C931   O957    1.311   .     A
C931   C933    1.446   .     S
C932   C934    1.446   .     S
C932   O956    1.290   .     A
C932   O958    1.311   .     A
C934   C991    1.350   .     S
C934   N1020   1.438   .     S
C935   H947    1.077   .     S
C935   C940    1.399   .     A
C936   H948    1.077   .     S
C936   C939    1.399   .     A
C936   C590    1.388   1_565 S
C937   C939    1.409   .     A
C937   N965    1.434   .     S
C937   C587    1.388   1_565 S
C938   C940    1.409   .     A
C938   N968    1.434   .     S
C941   N950    1.380   .     A
C941   C971    1.469   .     S
C942   C975    1.469   .     S
C942   N949    1.380   .     A
C942   C1466   1.429   .     S
C943   C979    1.479   .     S
C943   N949    1.373   .     A
C943   C1463   1.429   .     S
C944   C983    1.479   .     S
C944   N950    1.373   .     A
Cu945  Cu946   2.722   .     S
Cu945  O951    1.971   .     S
Cu945  O958    1.960   .     S
Cu945  O954    1.971   .     S
Cu945  O955    1.959   .     S
Cu945  N949    2.045   .     S
Cu946  O957    1.960   .     S
Cu946  O953    1.971   .     S
Cu946  O952    1.971   .     S
Cu946  O956    1.959   .     S
Cu946  N950    2.045   .     S
N959   H960    1.040   .     S
N959   C991    1.438   .     S
N959   H1019   1.045   .     S
N962   H963    1.040   .     S
H964   N1020   1.045   .     S
N965   H967    1.046   .     S
N965   H966    1.046   .     S
N968   H969    1.046   .     S
N968   H970    1.046   .     S
C971   O972    1.222   .     D
C971   O973    1.392   .     S
O973   H974    1.013   .     S
C975   O976    1.222   .     D
C975   O977    1.392   .     S
O977   H978    1.013   .     S
C979   O980    1.222   .     D
C979   O981    1.395   .     S
O981   H982    1.014   .     S
C983   O984    1.222   .     D
C983   O985    1.395   .     S
O985   H986    1.014   .     S
C987   O1011   1.308   .     A
C987   O1009   1.303   .     A
C987   C998    1.457   .     S
C988   O1012   1.308   .     A
C988   O1010   1.303   .     A
C988   C997    1.457   .     S
C989   O1013   1.290   .     A
C989   O1015   1.311   .     A
C989   C991    1.446   .     S
C990   C992    1.446   .     S
C990   O1014   1.290   .     A
C990   O1016   1.311   .     A
C992   C875    1.350   1_655 S
C992   N904    1.438   1_655 S
C993   H1005   1.077   .     S
C993   C998    1.399   .     A
C994   H1006   1.077   .     S
C994   C997    1.399   .     A
C994   C648    1.388   1_565 S
C995   C997    1.409   .     A
C995   N1023   1.434   .     S
C995   C645    1.388   1_565 S
C996   C998    1.409   .     A
C996   N1026   1.434   .     S
C999   N1008   1.380   .     A
C999   C1029   1.469   .     S
C1000  C1033   1.469   .     S
C1000  N1007   1.380   .     A
C1000  C1524   1.429   .     S
C1001  C1037   1.479   .     S
C1001  N1007   1.373   .     A
C1001  C1521   1.429   .     S
C1002  C1041   1.479   .     S
C1002  N1008   1.373   .     A
Cu1003 Cu1004  2.722   .     S
Cu1003 O1009   1.971   .     S
Cu1003 O1016   1.960   .     S
Cu1003 O1012   1.971   .     S
Cu1003 O1013   1.959   .     S
Cu1003 N1007   2.045   .     S
Cu1004 O1015   1.960   .     S
Cu1004 O1011   1.971   .     S
Cu1004 O1010   1.971   .     S
Cu1004 O1014   1.959   .     S
Cu1004 N1008   2.045   .     S
N1017  H1018   1.040   .     S
N1017  C875    1.438   1_655 S
N1017  H903    1.045   1_655 S
N1020  H1021   1.040   .     S
H1022  N904    1.045   1_655 S
N1023  H1025   1.046   .     S
N1023  H1024   1.046   .     S
N1026  H1027   1.046   .     S
N1026  H1028   1.046   .     S
C1029  O1030   1.222   .     D
C1029  O1031   1.392   .     S
O1031  H1032   1.013   .     S
C1033  O1034   1.222   .     D
C1033  O1035   1.392   .     S
O1035  H1036   1.013   .     S
C1037  O1038   1.222   .     D
C1037  O1039   1.395   .     S
O1039  H1040   1.014   .     S
C1041  O1042   1.222   .     D
C1041  O1043   1.395   .     S
O1043  H1044   1.014   .     S
C1045  O1069   1.308   .     A
C1045  O1067   1.303   .     A
C1045  C1056   1.457   .     S
C1046  O1070   1.308   .     A
C1046  O1068   1.303   .     A
C1046  C1055   1.457   .     S
C1047  O1071   1.290   .     A
C1047  O1073   1.311   .     A
C1047  C1049   1.446   .     S
C1048  C1050   1.446   .     S
C1048  O1072   1.290   .     A
C1048  O1074   1.311   .     A
C1049  C1166   1.350   1_455 S
C1049  N1191   1.438   1_455 S
C1050  C1107   1.350   .     S
C1050  N1136   1.438   .     S
C1051  H1063   1.077   .     S
C1051  C1056   1.399   .     A
C1051  C1401   1.388   1_545 S
C1052  H1064   1.077   .     S
C1052  C1055   1.399   .     A
C1052  C1228   1.388   .     S
C1053  C1055   1.409   .     A
C1053  N1081   1.434   .     S
C1053  C1225   1.388   .     S
C1054  C1056   1.409   .     A
C1054  N1084   1.434   .     S
C1054  C1400   1.388   1_545 S
C1057  N1066   1.380   .     A
C1057  C1087   1.469   .     S
C1058  C1091   1.469   .     S
C1058  N1065   1.380   .     A
C1058  C16     1.429   1_556 S
C1059  C1095   1.479   .     S
C1059  N1065   1.373   .     A
C1059  C13     1.429   1_556 S
C1060  C1099   1.479   .     S
C1060  N1066   1.373   .     A
Cu1061 Cu1062  2.722   .     S
Cu1061 O1067   1.971   .     S
Cu1061 O1074   1.960   .     S
Cu1061 O1070   1.971   .     S
Cu1061 O1071   1.959   .     S
Cu1061 N1065   2.045   .     S
Cu1062 O1073   1.960   .     S
Cu1062 O1069   1.971   .     S
Cu1062 O1068   1.971   .     S
Cu1062 O1072   1.959   .     S
Cu1062 N1066   2.045   .     S
N1075  H1076   1.040   .     S
N1075  C1107   1.438   .     S
N1075  H1135   1.045   .     S
H1077  N1191   1.045   1_455 S
N1078  H1079   1.040   .     S
N1078  C1166   1.438   1_455 S
N1078  H1196   1.045   1_455 S
H1080  N1136   1.045   .     S
N1081  H1083   1.046   .     S
N1081  H1082   1.046   .     S
N1084  H1085   1.046   .     S
N1084  H1086   1.046   .     S
C1087  O1088   1.222   .     D
C1087  O1089   1.392   .     S
O1089  H1090   1.013   .     S
C1091  O1092   1.222   .     D
C1091  O1093   1.392   .     S
O1093  H1094   1.013   .     S
C1095  O1096   1.222   .     D
C1095  O1097   1.395   .     S
O1097  H1098   1.014   .     S
C1099  O1100   1.222   .     D
C1099  O1101   1.395   .     S
O1101  H1102   1.014   .     S
C1103  O1127   1.308   .     A
C1103  O1125   1.303   .     A
C1103  C1114   1.457   .     S
C1104  O1128   1.308   .     A
C1104  O1126   1.303   .     A
C1104  C1113   1.457   .     S
C1105  O1129   1.290   .     A
C1105  O1131   1.311   .     A
C1105  C1107   1.446   .     S
C1106  C1108   1.446   .     S
C1106  O1130   1.290   .     A
C1106  O1132   1.311   .     A
C1108  C1165   1.350   .     S
C1108  N1194   1.438   .     S
C1109  H1121   1.077   .     S
C1109  C1114   1.399   .     A
C1109  C1459   1.388   1_545 S
C1110  H1122   1.077   .     S
C1110  C1113   1.399   .     A
C1110  C1286   1.388   .     S
C1111  C1113   1.409   .     A
C1111  N1139   1.434   .     S
C1111  C1283   1.388   .     S
C1112  C1114   1.409   .     A
C1112  N1142   1.434   .     S
C1112  C1458   1.388   1_545 S
C1115  N1124   1.380   .     A
C1115  C1145   1.469   .     S
C1116  C1149   1.469   .     S
C1116  N1123   1.380   .     A
C1116  C74     1.429   1_556 S
C1117  C1153   1.479   .     S
C1117  N1123   1.373   .     A
C1117  C71     1.429   1_556 S
C1118  C1157   1.479   .     S
C1118  N1124   1.373   .     A
Cu1119 Cu1120  2.722   .     S
Cu1119 O1125   1.971   .     S
Cu1119 O1132   1.960   .     S
Cu1119 O1128   1.971   .     S
Cu1119 O1129   1.959   .     S
Cu1119 N1123   2.045   .     S
Cu1120 O1131   1.960   .     S
Cu1120 O1127   1.971   .     S
Cu1120 O1126   1.971   .     S
Cu1120 O1130   1.959   .     S
Cu1120 N1124   2.045   .     S
N1133  H1134   1.040   .     S
N1133  C1165   1.438   .     S
N1133  H1193   1.045   .     S
N1136  H1137   1.040   .     S
H1138  N1194   1.045   .     S
N1139  H1141   1.046   .     S
N1139  H1140   1.046   .     S
N1142  H1143   1.046   .     S
N1142  H1144   1.046   .     S
C1145  O1146   1.222   .     D
C1145  O1147   1.392   .     S
O1147  H1148   1.013   .     S
C1149  O1150   1.222   .     D
C1149  O1151   1.392   .     S
O1151  H1152   1.013   .     S
C1153  O1154   1.222   .     D
C1153  O1155   1.395   .     S
O1155  H1156   1.014   .     S
C1157  O1158   1.222   .     D
C1157  O1159   1.395   .     S
O1159  H1160   1.014   .     S
C1161  O1185   1.308   .     A
C1161  O1183   1.303   .     A
C1161  C1172   1.457   .     S
C1162  O1186   1.308   .     A
C1162  O1184   1.303   .     A
C1162  C1171   1.457   .     S
C1163  O1187   1.290   .     A
C1163  O1189   1.311   .     A
C1163  C1165   1.446   .     S
C1164  C1166   1.446   .     S
C1164  O1188   1.290   .     A
C1164  O1190   1.311   .     A
C1166  C1049   1.350   1_655 S
C1166  N1078   1.438   1_655 S
C1167  H1179   1.077   .     S
C1167  C1172   1.399   .     A
C1167  C1517   1.388   1_545 S
C1168  H1180   1.077   .     S
C1168  C1171   1.399   .     A
C1168  C1344   1.388   .     S
C1169  C1171   1.409   .     A
C1169  N1197   1.434   .     S
C1169  C1341   1.388   .     S
C1170  C1172   1.409   .     A
C1170  N1200   1.434   .     S
C1170  C1516   1.388   1_545 S
C1173  N1182   1.380   .     A
C1173  C1203   1.469   .     S
C1174  C1207   1.469   .     S
C1174  N1181   1.380   .     A
C1174  C132    1.429   1_556 S
C1175  C1211   1.479   .     S
C1175  N1181   1.373   .     A
C1175  C129    1.429   1_556 S
C1176  C1215   1.479   .     S
C1176  N1182   1.373   .     A
Cu1177 Cu1178  2.722   .     S
Cu1177 O1183   1.971   .     S
Cu1177 O1190   1.960   .     S
Cu1177 O1186   1.971   .     S
Cu1177 O1187   1.959   .     S
Cu1177 N1181   2.045   .     S
Cu1178 O1189   1.960   .     S
Cu1178 O1185   1.971   .     S
Cu1178 O1184   1.971   .     S
Cu1178 O1188   1.959   .     S
Cu1178 N1182   2.045   .     S
N1191  H1192   1.040   .     S
N1191  C1049   1.438   1_655 S
N1191  H1077   1.045   1_655 S
N1194  H1195   1.040   .     S
H1196  N1078   1.045   1_655 S
N1197  H1199   1.046   .     S
N1197  H1198   1.046   .     S
N1200  H1201   1.046   .     S
N1200  H1202   1.046   .     S
C1203  O1204   1.222   .     D
C1203  O1205   1.392   .     S
O1205  H1206   1.013   .     S
C1207  O1208   1.222   .     D
C1207  O1209   1.392   .     S
O1209  H1210   1.013   .     S
C1211  O1212   1.222   .     D
C1211  O1213   1.395   .     S
O1213  H1214   1.014   .     S
C1215  O1216   1.222   .     D
C1215  O1217   1.395   .     S
O1217  H1218   1.014   .     S
C1219  O1243   1.308   .     A
C1219  O1241   1.303   .     A
C1219  C1230   1.457   .     S
C1220  O1244   1.308   .     A
C1220  O1242   1.303   .     A
C1220  C1229   1.457   .     S
C1221  O1245   1.290   .     A
C1221  O1247   1.311   .     A
C1221  C1223   1.446   .     S
C1222  C1224   1.446   .     S
C1222  O1246   1.290   .     A
C1222  O1248   1.311   .     A
C1223  C1340   1.350   1_455 S
C1223  N1365   1.438   1_455 S
C1224  C1281   1.350   .     S
C1224  N1310   1.438   .     S
C1225  H1237   1.077   .     S
C1225  C1230   1.399   .     A
C1226  H1238   1.077   .     S
C1226  C1229   1.399   .     A
C1226  C1402   1.388   .     S
C1227  C1229   1.409   .     A
C1227  N1255   1.434   .     S
C1227  C1399   1.388   .     S
C1228  C1230   1.409   .     A
C1228  N1258   1.434   .     S
C1231  N1240   1.380   .     A
C1231  C1261   1.469   .     S
C1232  C1265   1.469   .     S
C1232  N1239   1.380   .     A
C1232  C190    1.429   1_556 S
C1233  C1269   1.479   .     S
C1233  N1239   1.373   .     A
C1233  C187    1.429   1_556 S
C1234  C1273   1.479   .     S
C1234  N1240   1.373   .     A
Cu1235 Cu1236  2.722   .     S
Cu1235 O1241   1.971   .     S
Cu1235 O1248   1.960   .     S
Cu1235 O1244   1.971   .     S
Cu1235 O1245   1.959   .     S
Cu1235 N1239   2.045   .     S
Cu1236 O1247   1.960   .     S
Cu1236 O1243   1.971   .     S
Cu1236 O1242   1.971   .     S
Cu1236 O1246   1.959   .     S
Cu1236 N1240   2.045   .     S
N1249  H1250   1.040   .     S
N1249  C1281   1.438   .     S
N1249  H1309   1.045   .     S
H1251  N1365   1.045   1_455 S
N1252  H1253   1.040   .     S
N1252  C1340   1.438   1_455 S
N1252  H1370   1.045   1_455 S
H1254  N1310   1.045   .     S
N1255  H1257   1.046   .     S
N1255  H1256   1.046   .     S
N1258  H1259   1.046   .     S
N1258  H1260   1.046   .     S
C1261  O1262   1.222   .     D
C1261  O1263   1.392   .     S
O1263  H1264   1.013   .     S
C1265  O1266   1.222   .     D
C1265  O1267   1.392   .     S
O1267  H1268   1.013   .     S
C1269  O1270   1.222   .     D
C1269  O1271   1.395   .     S
O1271  H1272   1.014   .     S
C1273  O1274   1.222   .     D
C1273  O1275   1.395   .     S
O1275  H1276   1.014   .     S
C1277  O1301   1.308   .     A
C1277  O1299   1.303   .     A
C1277  C1288   1.457   .     S
C1278  O1302   1.308   .     A
C1278  O1300   1.303   .     A
C1278  C1287   1.457   .     S
C1279  O1303   1.290   .     A
C1279  O1305   1.311   .     A
C1279  C1281   1.446   .     S
C1280  C1282   1.446   .     S
C1280  O1304   1.290   .     A
C1280  O1306   1.311   .     A
C1282  C1339   1.350   .     S
C1282  N1368   1.438   .     S
C1283  H1295   1.077   .     S
C1283  C1288   1.399   .     A
C1284  H1296   1.077   .     S
C1284  C1287   1.399   .     A
C1284  C1460   1.388   .     S
C1285  C1287   1.409   .     A
C1285  N1313   1.434   .     S
C1285  C1457   1.388   .     S
C1286  C1288   1.409   .     A
C1286  N1316   1.434   .     S
C1289  N1298   1.380   .     A
C1289  C1319   1.469   .     S
C1290  C1323   1.469   .     S
C1290  N1297   1.380   .     A
C1290  C248    1.429   1_556 S
C1291  C1327   1.479   .     S
C1291  N1297   1.373   .     A
C1291  C245    1.429   1_556 S
C1292  C1331   1.479   .     S
C1292  N1298   1.373   .     A
Cu1293 Cu1294  2.722   .     S
Cu1293 O1299   1.971   .     S
Cu1293 O1306   1.960   .     S
Cu1293 O1302   1.971   .     S
Cu1293 O1303   1.959   .     S
Cu1293 N1297   2.045   .     S
Cu1294 O1305   1.960   .     S
Cu1294 O1301   1.971   .     S
Cu1294 O1300   1.971   .     S
Cu1294 O1304   1.959   .     S
Cu1294 N1298   2.045   .     S
N1307  H1308   1.040   .     S
N1307  C1339   1.438   .     S
N1307  H1367   1.045   .     S
N1310  H1311   1.040   .     S
H1312  N1368   1.045   .     S
N1313  H1315   1.046   .     S
N1313  H1314   1.046   .     S
N1316  H1317   1.046   .     S
N1316  H1318   1.046   .     S
C1319  O1320   1.222   .     D
C1319  O1321   1.392   .     S
O1321  H1322   1.013   .     S
C1323  O1324   1.222   .     D
C1323  O1325   1.392   .     S
O1325  H1326   1.013   .     S
C1327  O1328   1.222   .     D
C1327  O1329   1.395   .     S
O1329  H1330   1.014   .     S
C1331  O1332   1.222   .     D
C1331  O1333   1.395   .     S
O1333  H1334   1.014   .     S
C1335  O1359   1.308   .     A
C1335  O1357   1.303   .     A
C1335  C1346   1.457   .     S
C1336  O1360   1.308   .     A
C1336  O1358   1.303   .     A
C1336  C1345   1.457   .     S
C1337  O1361   1.290   .     A
C1337  O1363   1.311   .     A
C1337  C1339   1.446   .     S
C1338  C1340   1.446   .     S
C1338  O1362   1.290   .     A
C1338  O1364   1.311   .     A
C1340  C1223   1.350   1_655 S
C1340  N1252   1.438   1_655 S
C1341  H1353   1.077   .     S
C1341  C1346   1.399   .     A
C1342  H1354   1.077   .     S
C1342  C1345   1.399   .     A
C1342  C1518   1.388   .     S
C1343  C1345   1.409   .     A
C1343  N1371   1.434   .     S
C1343  C1515   1.388   .     S
C1344  C1346   1.409   .     A
C1344  N1374   1.434   .     S
C1347  N1356   1.380   .     A
C1347  C1377   1.469   .     S
C1348  C1381   1.469   .     S
C1348  N1355   1.380   .     A
C1348  C306    1.429   1_556 S
C1349  C1385   1.479   .     S
C1349  N1355   1.373   .     A
C1349  C303    1.429   1_556 S
C1350  C1389   1.479   .     S
C1350  N1356   1.373   .     A
Cu1351 Cu1352  2.722   .     S
Cu1351 O1357   1.971   .     S
Cu1351 O1364   1.960   .     S
Cu1351 O1360   1.971   .     S
Cu1351 O1361   1.959   .     S
Cu1351 N1355   2.045   .     S
Cu1352 O1363   1.960   .     S
Cu1352 O1359   1.971   .     S
Cu1352 O1358   1.971   .     S
Cu1352 O1362   1.959   .     S
Cu1352 N1356   2.045   .     S
N1365  H1366   1.040   .     S
N1365  C1223   1.438   1_655 S
N1365  H1251   1.045   1_655 S
N1368  H1369   1.040   .     S
H1370  N1252   1.045   1_655 S
N1371  H1373   1.046   .     S
N1371  H1372   1.046   .     S
N1374  H1375   1.046   .     S
N1374  H1376   1.046   .     S
C1377  O1378   1.222   .     D
C1377  O1379   1.392   .     S
O1379  H1380   1.013   .     S
C1381  O1382   1.222   .     D
C1381  O1383   1.392   .     S
O1383  H1384   1.013   .     S
C1385  O1386   1.222   .     D
C1385  O1387   1.395   .     S
O1387  H1388   1.014   .     S
C1389  O1390   1.222   .     D
C1389  O1391   1.395   .     S
O1391  H1392   1.014   .     S
C1393  O1417   1.308   .     A
C1393  O1415   1.303   .     A
C1393  C1404   1.457   .     S
C1394  O1418   1.308   .     A
C1394  O1416   1.303   .     A
C1394  C1403   1.457   .     S
C1395  O1419   1.290   .     A
C1395  O1421   1.311   .     A
C1395  C1397   1.446   .     S
C1396  C1398   1.446   .     S
C1396  O1420   1.290   .     A
C1396  O1422   1.311   .     A
C1397  C1514   1.350   1_455 S
C1397  N1539   1.438   1_455 S
C1398  C1455   1.350   .     S
C1398  N1484   1.438   .     S
C1399  H1411   1.077   .     S
C1399  C1404   1.399   .     A
C1400  H1412   1.077   .     S
C1400  C1403   1.399   .     A
C1400  C1054   1.388   1_565 S
C1401  C1403   1.409   .     A
C1401  N1429   1.434   .     S
C1401  C1051   1.388   1_565 S
C1402  C1404   1.409   .     A
C1402  N1432   1.434   .     S
C1405  N1414   1.380   .     A
C1405  C1435   1.469   .     S
C1406  C1439   1.469   .     S
C1406  N1413   1.380   .     A
C1406  C364    1.429   1_556 S
C1407  C1443   1.479   .     S
C1407  N1413   1.373   .     A
C1407  C361    1.429   1_556 S
C1408  C1447   1.479   .     S
C1408  N1414   1.373   .     A
Cu1409 Cu1410  2.722   .     S
Cu1409 O1415   1.971   .     S
Cu1409 O1422   1.960   .     S
Cu1409 O1418   1.971   .     S
Cu1409 O1419   1.959   .     S
Cu1409 N1413   2.045   .     S
Cu1410 O1421   1.960   .     S
Cu1410 O1417   1.971   .     S
Cu1410 O1416   1.971   .     S
Cu1410 O1420   1.959   .     S
Cu1410 N1414   2.045   .     S
N1423  H1424   1.040   .     S
N1423  C1455   1.438   .     S
N1423  H1483   1.045   .     S
H1425  N1539   1.045   1_455 S
N1426  H1427   1.040   .     S
N1426  C1514   1.438   1_455 S
N1426  H1544   1.045   1_455 S
H1428  N1484   1.045   .     S
N1429  H1431   1.046   .     S
N1429  H1430   1.046   .     S
N1432  H1433   1.046   .     S
N1432  H1434   1.046   .     S
C1435  O1436   1.222   .     D
C1435  O1437   1.392   .     S
O1437  H1438   1.013   .     S
C1439  O1440   1.222   .     D
C1439  O1441   1.392   .     S
O1441  H1442   1.013   .     S
C1443  O1444   1.222   .     D
C1443  O1445   1.395   .     S
O1445  H1446   1.014   .     S
C1447  O1448   1.222   .     D
C1447  O1449   1.395   .     S
O1449  H1450   1.014   .     S
C1451  O1475   1.308   .     A
C1451  O1473   1.303   .     A
C1451  C1462   1.457   .     S
C1452  O1476   1.308   .     A
C1452  O1474   1.303   .     A
C1452  C1461   1.457   .     S
C1453  O1477   1.290   .     A
C1453  O1479   1.311   .     A
C1453  C1455   1.446   .     S
C1454  C1456   1.446   .     S
C1454  O1478   1.290   .     A
C1454  O1480   1.311   .     A
C1456  C1513   1.350   .     S
C1456  N1542   1.438   .     S
C1457  H1469   1.077   .     S
C1457  C1462   1.399   .     A
C1458  H1470   1.077   .     S
C1458  C1461   1.399   .     A
C1458  C1112   1.388   1_565 S
C1459  C1461   1.409   .     A
C1459  N1487   1.434   .     S
C1459  C1109   1.388   1_565 S
C1460  C1462   1.409   .     A
C1460  N1490   1.434   .     S
C1463  N1472   1.380   .     A
C1463  C1493   1.469   .     S
C1464  C1497   1.469   .     S
C1464  N1471   1.380   .     A
C1464  C422    1.429   1_556 S
C1465  C1501   1.479   .     S
C1465  N1471   1.373   .     A
C1465  C419    1.429   1_556 S
C1466  C1505   1.479   .     S
C1466  N1472   1.373   .     A
Cu1467 Cu1468  2.722   .     S
Cu1467 O1473   1.971   .     S
Cu1467 O1480   1.960   .     S
Cu1467 O1476   1.971   .     S
Cu1467 O1477   1.959   .     S
Cu1467 N1471   2.045   .     S
Cu1468 O1479   1.960   .     S
Cu1468 O1475   1.971   .     S
Cu1468 O1474   1.971   .     S
Cu1468 O1478   1.959   .     S
Cu1468 N1472   2.045   .     S
N1481  H1482   1.040   .     S
N1481  C1513   1.438   .     S
N1481  H1541   1.045   .     S
N1484  H1485   1.040   .     S
H1486  N1542   1.045   .     S
N1487  H1489   1.046   .     S
N1487  H1488   1.046   .     S
N1490  H1491   1.046   .     S
N1490  H1492   1.046   .     S
C1493  O1494   1.222   .     D
C1493  O1495   1.392   .     S
O1495  H1496   1.013   .     S
C1497  O1498   1.222   .     D
C1497  O1499   1.392   .     S
O1499  H1500   1.013   .     S
C1501  O1502   1.222   .     D
C1501  O1503   1.395   .     S
O1503  H1504   1.014   .     S
C1505  O1506   1.222   .     D
C1505  O1507   1.395   .     S
O1507  H1508   1.014   .     S
C1509  O1533   1.308   .     A
C1509  O1531   1.303   .     A
C1509  C1520   1.457   .     S
C1510  O1534   1.308   .     A
C1510  O1532   1.303   .     A
C1510  C1519   1.457   .     S
C1511  O1535   1.290   .     A
C1511  O1537   1.311   .     A
C1511  C1513   1.446   .     S
C1512  C1514   1.446   .     S
C1512  O1536   1.290   .     A
C1512  O1538   1.311   .     A
C1514  C1397   1.350   1_655 S
C1514  N1426   1.438   1_655 S
C1515  H1527   1.077   .     S
C1515  C1520   1.399   .     A
C1516  H1528   1.077   .     S
C1516  C1519   1.399   .     A
C1516  C1170   1.388   1_565 S
C1517  C1519   1.409   .     A
C1517  N1545   1.434   .     S
C1517  C1167   1.388   1_565 S
C1518  C1520   1.409   .     A
C1518  N1548   1.434   .     S
C1521  N1530   1.380   .     A
C1521  C1551   1.469   .     S
C1522  C1555   1.469   .     S
C1522  N1529   1.380   .     A
C1522  C480    1.429   1_556 S
C1523  C1559   1.479   .     S
C1523  N1529   1.373   .     A
C1523  C477    1.429   1_556 S
C1524  C1563   1.479   .     S
C1524  N1530   1.373   .     A
Cu1525 Cu1526  2.722   .     S
Cu1525 O1531   1.971   .     S
Cu1525 O1538   1.960   .     S
Cu1525 O1534   1.971   .     S
Cu1525 O1535   1.959   .     S
Cu1525 N1529   2.045   .     S
Cu1526 O1537   1.960   .     S
Cu1526 O1533   1.971   .     S
Cu1526 O1532   1.971   .     S
Cu1526 O1536   1.959   .     S
Cu1526 N1530   2.045   .     S
N1539  H1540   1.040   .     S
N1539  C1397   1.438   1_655 S
N1539  H1425   1.045   1_655 S
N1542  H1543   1.040   .     S
H1544  N1426   1.045   1_655 S
N1545  H1547   1.046   .     S
N1545  H1546   1.046   .     S
N1548  H1549   1.046   .     S
N1548  H1550   1.046   .     S
C1551  O1552   1.222   .     D
C1551  O1553   1.392   .     S
O1553  H1554   1.013   .     S
C1555  O1556   1.222   .     D
C1555  O1557   1.392   .     S
O1557  H1558   1.013   .     S
C1559  O1560   1.222   .     D
C1559  O1561   1.395   .     S
O1561  H1562   1.014   .     S
C1563  O1564   1.222   .     D
C1563  O1565   1.395   .     S
O1565  H1566   1.014   .     S
