data_str_m2_o2_o10_pcu_sym.185
_audit_creation_date              2020-01-03
_audit_creation_method            'Materials Studio'
_symmetry_space_group_name_H-M    'P1'
_symmetry_Int_Tables_number       1
_symmetry_cell_setting            triclinic
loop_
_symmetry_equiv_pos_as_xyz
  x,y,z
_cell_length_a                    26.1906
_cell_length_b                    30.2049
_cell_length_c                    27.7390
_cell_angle_alpha                 89.7497
_cell_angle_beta                  97.9403
_cell_angle_gamma                 90.1777
loop_
_atom_site_label
_atom_site_type_symbol
_atom_site_fract_x
_atom_site_fract_y
_atom_site_fract_z
_atom_site_U_iso_or_equiv
_atom_site_adp_type
_atom_site_occupancy
C1     C     0.16640   0.16497   0.25008   0.00000  Uiso   1.00
C2     C     0.16644   0.33506   0.24985   0.00000  Uiso   1.00
C3     C     0.19048   0.28424   0.05691   0.00000  Uiso   1.00
C4     C     0.12714   0.22913   0.44098   0.00000  Uiso   1.00
C5     C     0.19036   0.28342   0.10763   0.00000  Uiso   1.00
C6     C     0.12809   0.22920   0.39039   0.00000  Uiso   1.00
C7     C     0.14298   0.21661   0.10174   0.00000  Uiso   1.00
C8     C     0.20524   0.27079   0.40023   0.00000  Uiso   1.00
C9     C     0.14287   0.21582   0.05100   0.00000  Uiso   1.00
C10    C     0.20618   0.27093   0.45108   0.00000  Uiso   1.00
C11    C     0.16667   0.25004   0.02734   0.00000  Uiso   1.00
C12    C     0.16666   0.25004   0.47265   0.00000  Uiso   1.00
C13    C     0.06790   0.24998   0.23755   0.00000  Uiso   1.00
C14    C     0.26544   0.25001   0.26245   0.00000  Uiso   1.00
C15    C     0.01263   0.24999   0.23069   0.00000  Uiso   1.00
C16    C     0.32071   0.24998   0.26933   0.00000  Uiso   1.00
C17    C     0.13543   0.04807   0.28360   0.00000  Uiso   1.00
C18    C     0.13799   0.45193   0.20695   0.00000  Uiso   1.00
C19    C     0.13831   0.09437   0.28347   0.00000  Uiso   1.00
C20    C     0.14079   0.40564   0.20798   0.00000  Uiso   1.00
C21    C     0.16497   0.11676   0.25031   0.00000  Uiso   1.00
C22    C     0.16506   0.38331   0.24920   0.00000  Uiso   1.00
C23    C     0.19020   0.09304   0.21759   0.00000  Uiso   1.00
C24    C     0.18795   0.40715   0.28955   0.00000  Uiso   1.00
C25    C     0.18908   0.04713   0.21812   0.00000  Uiso   1.00
C26    C     0.18677   0.45305   0.28872   0.00000  Uiso   1.00
C27    C     0.16095   0.02431   0.24990   0.00000  Uiso   1.00
C28    C     0.16099   0.47577   0.24840   0.00000  Uiso   1.00
Cu29   Cu    0.16667   0.24999   0.29821   0.00000  Uiso   1.00
Cu30   Cu    0.16667   0.25000   0.20178   0.00000  Uiso   1.00
H31    H     0.32597   0.25003   0.19363   0.00000  Uiso   1.00
H32    H     0.00736   0.24994   0.30639   0.00000  Uiso   1.00
H33    H     0.11884   0.11322   0.30865   0.00000  Uiso   1.00
H34    H     0.12314   0.38678   0.17688   0.00000  Uiso   1.00
H35    H     0.21165   0.11002   0.19231   0.00000  Uiso   1.00
H36    H     0.20759   0.39028   0.32133   0.00000  Uiso   1.00
H37    H     0.21035   0.02923   0.19362   0.00000  Uiso   1.00
H38    H     0.20619   0.47104   0.31971   0.00000  Uiso   1.00
H39    H     0.20862   0.31198   0.04119   0.00000  Uiso   1.00
H40    H     0.09508   0.21319   0.45485   0.00000  Uiso   1.00
H41    H     0.20919   0.30983   0.12958   0.00000  Uiso   1.00
H42    H     0.09760   0.21264   0.36689   0.00000  Uiso   1.00
H43    H     0.12412   0.19020   0.11898   0.00000  Uiso   1.00
H44    H     0.23574   0.28731   0.38449   0.00000  Uiso   1.00
H45    H     0.12473   0.18809   0.03080   0.00000  Uiso   1.00
H46    H     0.23823   0.28688   0.47314   0.00000  Uiso   1.00
N47    N     0.16667   0.25001   0.12934   0.00000  Uiso   1.00
N48    N     0.16667   0.24999   0.37065   0.00000  Uiso   1.00
O49    O     0.16667   0.18572   0.29071   0.00000  Uiso   1.00
O50    O     0.16666   0.31427   0.20928   0.00000  Uiso   1.00
O51    O     0.16667   0.18573   0.20928   0.00000  Uiso   1.00
O52    O     0.16666   0.31427   0.29072   0.00000  Uiso   1.00
O53    O     0.09161   0.24999   0.28132   0.00000  Uiso   1.00
O54    O     0.24172   0.25000   0.21868   0.00000  Uiso   1.00
O55    O     0.09161   0.25000   0.19988   0.00000  Uiso   1.00
O56    O     0.24172   0.25000   0.30011   0.00000  Uiso   1.00
C57    C     0.10553   0.02571   0.32020   0.00000  Uiso   1.00
C58    C     0.05536   0.00479   0.29611   0.00000  Uiso   1.00
H59    H     0.03185   0.02955   0.27318   0.00000  Uiso   1.00
H60    H     0.06328   0.47602   0.27366   0.00000  Uiso   1.00
H61    H     0.03276   0.49280   0.32462   0.00000  Uiso   1.00
H62    H     0.12946   0.00043   0.34166   0.00000  Uiso   1.00
H63    H     0.09540   0.05020   0.34713   0.00000  Uiso   1.00
C64    C     0.11092   0.47419   0.16123   0.00000  Uiso   1.00
C65    C     0.05979   0.49510   0.16911   0.00000  Uiso   1.00
H66    H     0.03489   0.47034   0.18436   0.00000  Uiso   1.00
H67    H     0.06624   0.02391   0.19380   0.00000  Uiso   1.00
H68    H     0.03939   0.00702   0.13371   0.00000  Uiso   1.00
H69    H     0.13613   0.49946   0.14754   0.00000  Uiso   1.00
H70    H     0.10258   0.44964   0.13139   0.00000  Uiso   1.00
C71    C     0.49973   0.16497   0.25008   0.00000  Uiso   1.00
C72    C     0.49977   0.33506   0.24985   0.00000  Uiso   1.00
C73    C     0.52382   0.28424   0.05691   0.00000  Uiso   1.00
C74    C     0.46047   0.22913   0.44098   0.00000  Uiso   1.00
C75    C     0.52369   0.28342   0.10763   0.00000  Uiso   1.00
C76    C     0.46142   0.22920   0.39039   0.00000  Uiso   1.00
C77    C     0.47631   0.21661   0.10174   0.00000  Uiso   1.00
C78    C     0.53858   0.27079   0.40023   0.00000  Uiso   1.00
C79    C     0.47620   0.21582   0.05100   0.00000  Uiso   1.00
C80    C     0.53952   0.27093   0.45108   0.00000  Uiso   1.00
C81    C     0.50001   0.25004   0.02734   0.00000  Uiso   1.00
C82    C     0.50000   0.25004   0.47265   0.00000  Uiso   1.00
C83    C     0.40123   0.24998   0.23755   0.00000  Uiso   1.00
C84    C     0.59877   0.25001   0.26245   0.00000  Uiso   1.00
C85    C     0.34596   0.24999   0.23069   0.00000  Uiso   1.00
C86    C     0.65404   0.24998   0.26933   0.00000  Uiso   1.00
C87    C     0.46876   0.04807   0.28360   0.00000  Uiso   1.00
C88    C     0.47132   0.45193   0.20695   0.00000  Uiso   1.00
C89    C     0.47164   0.09437   0.28347   0.00000  Uiso   1.00
C90    C     0.47412   0.40564   0.20798   0.00000  Uiso   1.00
C91    C     0.49830   0.11676   0.25031   0.00000  Uiso   1.00
C92    C     0.49839   0.38331   0.24920   0.00000  Uiso   1.00
C93    C     0.52353   0.09304   0.21759   0.00000  Uiso   1.00
C94    C     0.52128   0.40715   0.28955   0.00000  Uiso   1.00
C95    C     0.52241   0.04713   0.21812   0.00000  Uiso   1.00
C96    C     0.52011   0.45305   0.28872   0.00000  Uiso   1.00
C97    C     0.49428   0.02431   0.24990   0.00000  Uiso   1.00
C98    C     0.49433   0.47577   0.24840   0.00000  Uiso   1.00
Cu99   Cu    0.50000   0.24999   0.29821   0.00000  Uiso   1.00
Cu100  Cu    0.50000   0.25000   0.20178   0.00000  Uiso   1.00
H101   H     0.65931   0.25003   0.19363   0.00000  Uiso   1.00
H102   H     0.34070   0.24994   0.30639   0.00000  Uiso   1.00
H103   H     0.45217   0.11322   0.30865   0.00000  Uiso   1.00
H104   H     0.45648   0.38678   0.17688   0.00000  Uiso   1.00
H105   H     0.54498   0.11002   0.19231   0.00000  Uiso   1.00
H106   H     0.54092   0.39028   0.32133   0.00000  Uiso   1.00
H107   H     0.54368   0.02923   0.19362   0.00000  Uiso   1.00
H108   H     0.53952   0.47104   0.31971   0.00000  Uiso   1.00
H109   H     0.54196   0.31198   0.04119   0.00000  Uiso   1.00
H110   H     0.42842   0.21319   0.45485   0.00000  Uiso   1.00
H111   H     0.54253   0.30983   0.12958   0.00000  Uiso   1.00
H112   H     0.43093   0.21264   0.36689   0.00000  Uiso   1.00
H113   H     0.45745   0.19020   0.11898   0.00000  Uiso   1.00
H114   H     0.56907   0.28731   0.38449   0.00000  Uiso   1.00
H115   H     0.45806   0.18809   0.03080   0.00000  Uiso   1.00
H116   H     0.57157   0.28688   0.47314   0.00000  Uiso   1.00
N117   N     0.50000   0.25001   0.12934   0.00000  Uiso   1.00
N118   N     0.50000   0.24999   0.37065   0.00000  Uiso   1.00
O119   O     0.50000   0.18572   0.29071   0.00000  Uiso   1.00
O120   O     0.50000   0.31427   0.20928   0.00000  Uiso   1.00
O121   O     0.50000   0.18573   0.20928   0.00000  Uiso   1.00
O122   O     0.50000   0.31427   0.29072   0.00000  Uiso   1.00
O123   O     0.42495   0.24999   0.28132   0.00000  Uiso   1.00
O124   O     0.57505   0.25000   0.21868   0.00000  Uiso   1.00
O125   O     0.42495   0.25000   0.19988   0.00000  Uiso   1.00
O126   O     0.57505   0.25000   0.30011   0.00000  Uiso   1.00
C127   C     0.43886   0.02571   0.32020   0.00000  Uiso   1.00
C128   C     0.38870   0.00479   0.29611   0.00000  Uiso   1.00
H129   H     0.36518   0.02955   0.27318   0.00000  Uiso   1.00
H130   H     0.39661   0.47602   0.27366   0.00000  Uiso   1.00
H131   H     0.36609   0.49280   0.32462   0.00000  Uiso   1.00
H132   H     0.46279   0.00043   0.34166   0.00000  Uiso   1.00
H133   H     0.42873   0.05020   0.34713   0.00000  Uiso   1.00
C134   C     0.44426   0.47419   0.16123   0.00000  Uiso   1.00
C135   C     0.39312   0.49510   0.16911   0.00000  Uiso   1.00
H136   H     0.36822   0.47034   0.18436   0.00000  Uiso   1.00
H137   H     0.39957   0.02391   0.19380   0.00000  Uiso   1.00
H138   H     0.37272   0.00702   0.13371   0.00000  Uiso   1.00
H139   H     0.46947   0.49946   0.14754   0.00000  Uiso   1.00
H140   H     0.43591   0.44964   0.13139   0.00000  Uiso   1.00
C141   C     0.83306   0.16497   0.25008   0.00000  Uiso   1.00
C142   C     0.83311   0.33506   0.24985   0.00000  Uiso   1.00
C143   C     0.85715   0.28424   0.05691   0.00000  Uiso   1.00
C144   C     0.79381   0.22913   0.44098   0.00000  Uiso   1.00
C145   C     0.85702   0.28342   0.10763   0.00000  Uiso   1.00
C146   C     0.79476   0.22920   0.39039   0.00000  Uiso   1.00
C147   C     0.80964   0.21661   0.10174   0.00000  Uiso   1.00
C148   C     0.87191   0.27079   0.40023   0.00000  Uiso   1.00
C149   C     0.80953   0.21582   0.05100   0.00000  Uiso   1.00
C150   C     0.87285   0.27093   0.45108   0.00000  Uiso   1.00
C151   C     0.83334   0.25004   0.02734   0.00000  Uiso   1.00
C152   C     0.83333   0.25004   0.47265   0.00000  Uiso   1.00
C153   C     0.73456   0.24998   0.23755   0.00000  Uiso   1.00
C154   C     0.93210   0.25001   0.26245   0.00000  Uiso   1.00
C155   C     0.67929   0.24999   0.23069   0.00000  Uiso   1.00
C156   C     0.98738   0.24998   0.26933   0.00000  Uiso   1.00
C157   C     0.80210   0.04807   0.28360   0.00000  Uiso   1.00
C158   C     0.80466   0.45193   0.20695   0.00000  Uiso   1.00
C159   C     0.80497   0.09437   0.28347   0.00000  Uiso   1.00
C160   C     0.80746   0.40564   0.20798   0.00000  Uiso   1.00
C161   C     0.83163   0.11676   0.25031   0.00000  Uiso   1.00
C162   C     0.83172   0.38331   0.24920   0.00000  Uiso   1.00
C163   C     0.85687   0.09304   0.21759   0.00000  Uiso   1.00
C164   C     0.85461   0.40715   0.28955   0.00000  Uiso   1.00
C165   C     0.85574   0.04713   0.21812   0.00000  Uiso   1.00
C166   C     0.85344   0.45305   0.28872   0.00000  Uiso   1.00
C167   C     0.82761   0.02431   0.24990   0.00000  Uiso   1.00
C168   C     0.82766   0.47577   0.24840   0.00000  Uiso   1.00
Cu169  Cu    0.83333   0.24999   0.29821   0.00000  Uiso   1.00
Cu170  Cu    0.83333   0.25000   0.20178   0.00000  Uiso   1.00
H171   H     0.99264   0.25003   0.19363   0.00000  Uiso   1.00
H172   H     0.67403   0.24994   0.30639   0.00000  Uiso   1.00
H173   H     0.78550   0.11322   0.30865   0.00000  Uiso   1.00
H174   H     0.78981   0.38678   0.17688   0.00000  Uiso   1.00
H175   H     0.87832   0.11002   0.19231   0.00000  Uiso   1.00
H176   H     0.87426   0.39028   0.32133   0.00000  Uiso   1.00
H177   H     0.87701   0.02923   0.19362   0.00000  Uiso   1.00
H178   H     0.87286   0.47104   0.31971   0.00000  Uiso   1.00
H179   H     0.87529   0.31198   0.04119   0.00000  Uiso   1.00
H180   H     0.76175   0.21319   0.45485   0.00000  Uiso   1.00
H181   H     0.87586   0.30983   0.12958   0.00000  Uiso   1.00
H182   H     0.76427   0.21264   0.36689   0.00000  Uiso   1.00
H183   H     0.79078   0.19020   0.11898   0.00000  Uiso   1.00
H184   H     0.90240   0.28731   0.38449   0.00000  Uiso   1.00
H185   H     0.79140   0.18809   0.03080   0.00000  Uiso   1.00
H186   H     0.90490   0.28688   0.47314   0.00000  Uiso   1.00
N187   N     0.83333   0.25001   0.12934   0.00000  Uiso   1.00
N188   N     0.83333   0.24999   0.37065   0.00000  Uiso   1.00
O189   O     0.83334   0.18572   0.29071   0.00000  Uiso   1.00
O190   O     0.83333   0.31427   0.20928   0.00000  Uiso   1.00
O191   O     0.83334   0.18573   0.20928   0.00000  Uiso   1.00
O192   O     0.83333   0.31427   0.29072   0.00000  Uiso   1.00
O193   O     0.75828   0.24999   0.28132   0.00000  Uiso   1.00
O194   O     0.90839   0.25000   0.21868   0.00000  Uiso   1.00
O195   O     0.75828   0.25000   0.19988   0.00000  Uiso   1.00
O196   O     0.90839   0.25000   0.30011   0.00000  Uiso   1.00
C197   C     0.77220   0.02571   0.32020   0.00000  Uiso   1.00
C198   C     0.72203   0.00479   0.29611   0.00000  Uiso   1.00
H199   H     0.69851   0.02955   0.27318   0.00000  Uiso   1.00
H200   H     0.72994   0.47602   0.27366   0.00000  Uiso   1.00
H201   H     0.69942   0.49280   0.32462   0.00000  Uiso   1.00
H202   H     0.79613   0.00043   0.34166   0.00000  Uiso   1.00
H203   H     0.76207   0.05020   0.34713   0.00000  Uiso   1.00
C204   C     0.77759   0.47419   0.16123   0.00000  Uiso   1.00
C205   C     0.72646   0.49510   0.16911   0.00000  Uiso   1.00
H206   H     0.70155   0.47034   0.18436   0.00000  Uiso   1.00
H207   H     0.73290   0.02391   0.19380   0.00000  Uiso   1.00
H208   H     0.70605   0.00702   0.13371   0.00000  Uiso   1.00
H209   H     0.80280   0.49946   0.14754   0.00000  Uiso   1.00
H210   H     0.76924   0.44964   0.13139   0.00000  Uiso   1.00
C211   C     0.16640   0.66497   0.25008   0.00000  Uiso   1.00
C212   C     0.16644   0.83506   0.24985   0.00000  Uiso   1.00
C213   C     0.19048   0.78424   0.05691   0.00000  Uiso   1.00
C214   C     0.12714   0.72913   0.44098   0.00000  Uiso   1.00
C215   C     0.19036   0.78342   0.10763   0.00000  Uiso   1.00
C216   C     0.12809   0.72920   0.39039   0.00000  Uiso   1.00
C217   C     0.14298   0.71661   0.10174   0.00000  Uiso   1.00
C218   C     0.20524   0.77079   0.40023   0.00000  Uiso   1.00
C219   C     0.14287   0.71582   0.05100   0.00000  Uiso   1.00
C220   C     0.20618   0.77093   0.45108   0.00000  Uiso   1.00
C221   C     0.16667   0.75004   0.02734   0.00000  Uiso   1.00
C222   C     0.16666   0.75004   0.47265   0.00000  Uiso   1.00
C223   C     0.06790   0.74998   0.23755   0.00000  Uiso   1.00
C224   C     0.26544   0.75001   0.26245   0.00000  Uiso   1.00
C225   C     0.01263   0.74999   0.23069   0.00000  Uiso   1.00
C226   C     0.32071   0.74998   0.26933   0.00000  Uiso   1.00
C227   C     0.13543   0.54807   0.28360   0.00000  Uiso   1.00
C228   C     0.13799   0.95193   0.20695   0.00000  Uiso   1.00
C229   C     0.13831   0.59437   0.28347   0.00000  Uiso   1.00
C230   C     0.14079   0.90564   0.20798   0.00000  Uiso   1.00
C231   C     0.16497   0.61676   0.25031   0.00000  Uiso   1.00
C232   C     0.16506   0.88331   0.24920   0.00000  Uiso   1.00
C233   C     0.19020   0.59304   0.21759   0.00000  Uiso   1.00
C234   C     0.18795   0.90715   0.28955   0.00000  Uiso   1.00
C235   C     0.18908   0.54713   0.21812   0.00000  Uiso   1.00
C236   C     0.18677   0.95305   0.28872   0.00000  Uiso   1.00
C237   C     0.16095   0.52431   0.24990   0.00000  Uiso   1.00
C238   C     0.16099   0.97577   0.24840   0.00000  Uiso   1.00
Cu239  Cu    0.16667   0.74999   0.29821   0.00000  Uiso   1.00
Cu240  Cu    0.16667   0.75000   0.20178   0.00000  Uiso   1.00
H241   H     0.32597   0.75003   0.19363   0.00000  Uiso   1.00
H242   H     0.00736   0.74994   0.30639   0.00000  Uiso   1.00
H243   H     0.11884   0.61322   0.30865   0.00000  Uiso   1.00
H244   H     0.12314   0.88678   0.17688   0.00000  Uiso   1.00
H245   H     0.21165   0.61002   0.19231   0.00000  Uiso   1.00
H246   H     0.20759   0.89028   0.32133   0.00000  Uiso   1.00
H247   H     0.21035   0.52923   0.19362   0.00000  Uiso   1.00
H248   H     0.20619   0.97104   0.31971   0.00000  Uiso   1.00
H249   H     0.20862   0.81198   0.04119   0.00000  Uiso   1.00
H250   H     0.09508   0.71319   0.45485   0.00000  Uiso   1.00
H251   H     0.20919   0.80983   0.12958   0.00000  Uiso   1.00
H252   H     0.09760   0.71264   0.36689   0.00000  Uiso   1.00
H253   H     0.12412   0.69020   0.11898   0.00000  Uiso   1.00
H254   H     0.23574   0.78731   0.38449   0.00000  Uiso   1.00
H255   H     0.12473   0.68809   0.03080   0.00000  Uiso   1.00
H256   H     0.23823   0.78688   0.47314   0.00000  Uiso   1.00
N257   N     0.16667   0.75001   0.12934   0.00000  Uiso   1.00
N258   N     0.16667   0.74999   0.37065   0.00000  Uiso   1.00
O259   O     0.16667   0.68572   0.29071   0.00000  Uiso   1.00
O260   O     0.16666   0.81427   0.20928   0.00000  Uiso   1.00
O261   O     0.16667   0.68573   0.20928   0.00000  Uiso   1.00
O262   O     0.16666   0.81427   0.29072   0.00000  Uiso   1.00
O263   O     0.09161   0.74999   0.28132   0.00000  Uiso   1.00
O264   O     0.24172   0.75000   0.21868   0.00000  Uiso   1.00
O265   O     0.09161   0.75000   0.19988   0.00000  Uiso   1.00
O266   O     0.24172   0.75000   0.30011   0.00000  Uiso   1.00
C267   C     0.10553   0.52571   0.32020   0.00000  Uiso   1.00
C268   C     0.05536   0.50479   0.29611   0.00000  Uiso   1.00
H269   H     0.03185   0.52955   0.27318   0.00000  Uiso   1.00
H270   H     0.06328   0.97602   0.27366   0.00000  Uiso   1.00
H271   H     0.03276   0.99280   0.32462   0.00000  Uiso   1.00
H272   H     0.12946   0.50043   0.34166   0.00000  Uiso   1.00
H273   H     0.09540   0.55020   0.34713   0.00000  Uiso   1.00
C274   C     0.11092   0.97419   0.16123   0.00000  Uiso   1.00
C275   C     0.05979   0.99510   0.16911   0.00000  Uiso   1.00
H276   H     0.03489   0.97034   0.18436   0.00000  Uiso   1.00
H277   H     0.06624   0.52391   0.19380   0.00000  Uiso   1.00
H278   H     0.03939   0.50702   0.13371   0.00000  Uiso   1.00
H279   H     0.13613   0.99946   0.14754   0.00000  Uiso   1.00
H280   H     0.10258   0.94964   0.13139   0.00000  Uiso   1.00
C281   C     0.49973   0.66497   0.25008   0.00000  Uiso   1.00
C282   C     0.49977   0.83506   0.24985   0.00000  Uiso   1.00
C283   C     0.52382   0.78424   0.05691   0.00000  Uiso   1.00
C284   C     0.46047   0.72913   0.44098   0.00000  Uiso   1.00
C285   C     0.52369   0.78342   0.10763   0.00000  Uiso   1.00
C286   C     0.46142   0.72920   0.39039   0.00000  Uiso   1.00
C287   C     0.47631   0.71661   0.10174   0.00000  Uiso   1.00
C288   C     0.53858   0.77079   0.40023   0.00000  Uiso   1.00
C289   C     0.47620   0.71582   0.05100   0.00000  Uiso   1.00
C290   C     0.53952   0.77093   0.45108   0.00000  Uiso   1.00
C291   C     0.50001   0.75004   0.02734   0.00000  Uiso   1.00
C292   C     0.50000   0.75004   0.47265   0.00000  Uiso   1.00
C293   C     0.40123   0.74998   0.23755   0.00000  Uiso   1.00
C294   C     0.59877   0.75001   0.26245   0.00000  Uiso   1.00
C295   C     0.34596   0.74999   0.23069   0.00000  Uiso   1.00
C296   C     0.65404   0.74998   0.26933   0.00000  Uiso   1.00
C297   C     0.46876   0.54807   0.28360   0.00000  Uiso   1.00
C298   C     0.47132   0.95193   0.20695   0.00000  Uiso   1.00
C299   C     0.47164   0.59437   0.28347   0.00000  Uiso   1.00
C300   C     0.47412   0.90564   0.20798   0.00000  Uiso   1.00
C301   C     0.49830   0.61676   0.25031   0.00000  Uiso   1.00
C302   C     0.49839   0.88331   0.24920   0.00000  Uiso   1.00
C303   C     0.52353   0.59304   0.21759   0.00000  Uiso   1.00
C304   C     0.52128   0.90715   0.28955   0.00000  Uiso   1.00
C305   C     0.52241   0.54713   0.21812   0.00000  Uiso   1.00
C306   C     0.52011   0.95305   0.28872   0.00000  Uiso   1.00
C307   C     0.49428   0.52431   0.24990   0.00000  Uiso   1.00
C308   C     0.49433   0.97577   0.24840   0.00000  Uiso   1.00
Cu309  Cu    0.50000   0.74999   0.29821   0.00000  Uiso   1.00
Cu310  Cu    0.50000   0.75000   0.20178   0.00000  Uiso   1.00
H311   H     0.65931   0.75003   0.19363   0.00000  Uiso   1.00
H312   H     0.34070   0.74994   0.30639   0.00000  Uiso   1.00
H313   H     0.45217   0.61322   0.30865   0.00000  Uiso   1.00
H314   H     0.45648   0.88678   0.17688   0.00000  Uiso   1.00
H315   H     0.54498   0.61002   0.19231   0.00000  Uiso   1.00
H316   H     0.54092   0.89028   0.32133   0.00000  Uiso   1.00
H317   H     0.54368   0.52923   0.19362   0.00000  Uiso   1.00
H318   H     0.53952   0.97104   0.31971   0.00000  Uiso   1.00
H319   H     0.54196   0.81198   0.04119   0.00000  Uiso   1.00
H320   H     0.42842   0.71319   0.45485   0.00000  Uiso   1.00
H321   H     0.54253   0.80983   0.12958   0.00000  Uiso   1.00
H322   H     0.43093   0.71264   0.36689   0.00000  Uiso   1.00
H323   H     0.45745   0.69020   0.11898   0.00000  Uiso   1.00
H324   H     0.56907   0.78731   0.38449   0.00000  Uiso   1.00
H325   H     0.45806   0.68809   0.03080   0.00000  Uiso   1.00
H326   H     0.57157   0.78688   0.47314   0.00000  Uiso   1.00
N327   N     0.50000   0.75001   0.12934   0.00000  Uiso   1.00
N328   N     0.50000   0.74999   0.37065   0.00000  Uiso   1.00
O329   O     0.50000   0.68572   0.29071   0.00000  Uiso   1.00
O330   O     0.50000   0.81427   0.20928   0.00000  Uiso   1.00
O331   O     0.50000   0.68573   0.20928   0.00000  Uiso   1.00
O332   O     0.50000   0.81427   0.29072   0.00000  Uiso   1.00
O333   O     0.42495   0.74999   0.28132   0.00000  Uiso   1.00
O334   O     0.57505   0.75000   0.21868   0.00000  Uiso   1.00
O335   O     0.42495   0.75000   0.19988   0.00000  Uiso   1.00
O336   O     0.57505   0.75000   0.30011   0.00000  Uiso   1.00
C337   C     0.43886   0.52571   0.32020   0.00000  Uiso   1.00
C338   C     0.38870   0.50479   0.29611   0.00000  Uiso   1.00
H339   H     0.36518   0.52955   0.27318   0.00000  Uiso   1.00
H340   H     0.39661   0.97602   0.27366   0.00000  Uiso   1.00
H341   H     0.36609   0.99280   0.32462   0.00000  Uiso   1.00
H342   H     0.46279   0.50043   0.34166   0.00000  Uiso   1.00
H343   H     0.42873   0.55020   0.34713   0.00000  Uiso   1.00
C344   C     0.44426   0.97419   0.16123   0.00000  Uiso   1.00
C345   C     0.39312   0.99510   0.16911   0.00000  Uiso   1.00
H346   H     0.36822   0.97034   0.18436   0.00000  Uiso   1.00
H347   H     0.39957   0.52391   0.19380   0.00000  Uiso   1.00
H348   H     0.37272   0.50702   0.13371   0.00000  Uiso   1.00
H349   H     0.46947   0.99946   0.14754   0.00000  Uiso   1.00
H350   H     0.43591   0.94964   0.13139   0.00000  Uiso   1.00
C351   C     0.83306   0.66497   0.25008   0.00000  Uiso   1.00
C352   C     0.83311   0.83506   0.24985   0.00000  Uiso   1.00
C353   C     0.85715   0.78424   0.05691   0.00000  Uiso   1.00
C354   C     0.79381   0.72913   0.44098   0.00000  Uiso   1.00
C355   C     0.85702   0.78342   0.10763   0.00000  Uiso   1.00
C356   C     0.79476   0.72920   0.39039   0.00000  Uiso   1.00
C357   C     0.80964   0.71661   0.10174   0.00000  Uiso   1.00
C358   C     0.87191   0.77079   0.40023   0.00000  Uiso   1.00
C359   C     0.80953   0.71582   0.05100   0.00000  Uiso   1.00
C360   C     0.87285   0.77093   0.45108   0.00000  Uiso   1.00
C361   C     0.83334   0.75004   0.02734   0.00000  Uiso   1.00
C362   C     0.83333   0.75004   0.47265   0.00000  Uiso   1.00
C363   C     0.73456   0.74998   0.23755   0.00000  Uiso   1.00
C364   C     0.93210   0.75001   0.26245   0.00000  Uiso   1.00
C365   C     0.67929   0.74999   0.23069   0.00000  Uiso   1.00
C366   C     0.98738   0.74998   0.26933   0.00000  Uiso   1.00
C367   C     0.80210   0.54807   0.28360   0.00000  Uiso   1.00
C368   C     0.80466   0.95193   0.20695   0.00000  Uiso   1.00
C369   C     0.80497   0.59437   0.28347   0.00000  Uiso   1.00
C370   C     0.80746   0.90564   0.20798   0.00000  Uiso   1.00
C371   C     0.83163   0.61676   0.25031   0.00000  Uiso   1.00
C372   C     0.83172   0.88331   0.24920   0.00000  Uiso   1.00
C373   C     0.85687   0.59304   0.21759   0.00000  Uiso   1.00
C374   C     0.85461   0.90715   0.28955   0.00000  Uiso   1.00
C375   C     0.85574   0.54713   0.21812   0.00000  Uiso   1.00
C376   C     0.85344   0.95305   0.28872   0.00000  Uiso   1.00
C377   C     0.82761   0.52431   0.24990   0.00000  Uiso   1.00
C378   C     0.82766   0.97577   0.24840   0.00000  Uiso   1.00
Cu379  Cu    0.83333   0.74999   0.29821   0.00000  Uiso   1.00
Cu380  Cu    0.83333   0.75000   0.20178   0.00000  Uiso   1.00
H381   H     0.99264   0.75003   0.19363   0.00000  Uiso   1.00
H382   H     0.67403   0.74994   0.30639   0.00000  Uiso   1.00
H383   H     0.78550   0.61322   0.30865   0.00000  Uiso   1.00
H384   H     0.78981   0.88678   0.17688   0.00000  Uiso   1.00
H385   H     0.87832   0.61002   0.19231   0.00000  Uiso   1.00
H386   H     0.87426   0.89028   0.32133   0.00000  Uiso   1.00
H387   H     0.87701   0.52923   0.19362   0.00000  Uiso   1.00
H388   H     0.87286   0.97104   0.31971   0.00000  Uiso   1.00
H389   H     0.87529   0.81198   0.04119   0.00000  Uiso   1.00
H390   H     0.76175   0.71319   0.45485   0.00000  Uiso   1.00
H391   H     0.87586   0.80983   0.12958   0.00000  Uiso   1.00
H392   H     0.76427   0.71264   0.36689   0.00000  Uiso   1.00
H393   H     0.79078   0.69020   0.11898   0.00000  Uiso   1.00
H394   H     0.90240   0.78731   0.38449   0.00000  Uiso   1.00
H395   H     0.79140   0.68809   0.03080   0.00000  Uiso   1.00
H396   H     0.90490   0.78688   0.47314   0.00000  Uiso   1.00
N397   N     0.83333   0.75001   0.12934   0.00000  Uiso   1.00
N398   N     0.83333   0.74999   0.37065   0.00000  Uiso   1.00
O399   O     0.83334   0.68572   0.29071   0.00000  Uiso   1.00
O400   O     0.83333   0.81427   0.20928   0.00000  Uiso   1.00
O401   O     0.83334   0.68573   0.20928   0.00000  Uiso   1.00
O402   O     0.83333   0.81427   0.29072   0.00000  Uiso   1.00
O403   O     0.75828   0.74999   0.28132   0.00000  Uiso   1.00
O404   O     0.90839   0.75000   0.21868   0.00000  Uiso   1.00
O405   O     0.75828   0.75000   0.19988   0.00000  Uiso   1.00
O406   O     0.90839   0.75000   0.30011   0.00000  Uiso   1.00
C407   C     0.77220   0.52571   0.32020   0.00000  Uiso   1.00
C408   C     0.72203   0.50479   0.29611   0.00000  Uiso   1.00
H409   H     0.69851   0.52955   0.27318   0.00000  Uiso   1.00
H410   H     0.72994   0.97602   0.27366   0.00000  Uiso   1.00
H411   H     0.69942   0.99280   0.32462   0.00000  Uiso   1.00
H412   H     0.79613   0.50043   0.34166   0.00000  Uiso   1.00
H413   H     0.76207   0.55020   0.34713   0.00000  Uiso   1.00
C414   C     0.77759   0.97419   0.16123   0.00000  Uiso   1.00
C415   C     0.72646   0.99510   0.16911   0.00000  Uiso   1.00
H416   H     0.70155   0.97034   0.18436   0.00000  Uiso   1.00
H417   H     0.73290   0.52391   0.19380   0.00000  Uiso   1.00
H418   H     0.70605   0.50702   0.13371   0.00000  Uiso   1.00
H419   H     0.80280   0.99946   0.14754   0.00000  Uiso   1.00
H420   H     0.76924   0.94964   0.13139   0.00000  Uiso   1.00
C421   C     0.16640   0.16497   0.75008   0.00000  Uiso   1.00
C422   C     0.16644   0.33506   0.74985   0.00000  Uiso   1.00
C423   C     0.19048   0.28424   0.55691   0.00000  Uiso   1.00
C424   C     0.12714   0.22913   0.94098   0.00000  Uiso   1.00
C425   C     0.19036   0.28342   0.60763   0.00000  Uiso   1.00
C426   C     0.12809   0.22920   0.89039   0.00000  Uiso   1.00
C427   C     0.14298   0.21661   0.60174   0.00000  Uiso   1.00
C428   C     0.20524   0.27079   0.90023   0.00000  Uiso   1.00
C429   C     0.14287   0.21582   0.55100   0.00000  Uiso   1.00
C430   C     0.20618   0.27093   0.95108   0.00000  Uiso   1.00
C431   C     0.16667   0.25004   0.52734   0.00000  Uiso   1.00
C432   C     0.16666   0.25004   0.97265   0.00000  Uiso   1.00
C433   C     0.06790   0.24998   0.73755   0.00000  Uiso   1.00
C434   C     0.26544   0.25001   0.76245   0.00000  Uiso   1.00
C435   C     0.01263   0.24999   0.73069   0.00000  Uiso   1.00
C436   C     0.32071   0.24998   0.76933   0.00000  Uiso   1.00
C437   C     0.13543   0.04807   0.78360   0.00000  Uiso   1.00
C438   C     0.13799   0.45193   0.70695   0.00000  Uiso   1.00
C439   C     0.13831   0.09437   0.78347   0.00000  Uiso   1.00
C440   C     0.14079   0.40564   0.70798   0.00000  Uiso   1.00
C441   C     0.16497   0.11676   0.75031   0.00000  Uiso   1.00
C442   C     0.16506   0.38331   0.74920   0.00000  Uiso   1.00
C443   C     0.19020   0.09304   0.71759   0.00000  Uiso   1.00
C444   C     0.18795   0.40715   0.78955   0.00000  Uiso   1.00
C445   C     0.18908   0.04713   0.71812   0.00000  Uiso   1.00
C446   C     0.18677   0.45305   0.78872   0.00000  Uiso   1.00
C447   C     0.16095   0.02431   0.74990   0.00000  Uiso   1.00
C448   C     0.16099   0.47577   0.74840   0.00000  Uiso   1.00
Cu449  Cu    0.16667   0.24999   0.79821   0.00000  Uiso   1.00
Cu450  Cu    0.16667   0.25000   0.70178   0.00000  Uiso   1.00
H451   H     0.32597   0.25003   0.69363   0.00000  Uiso   1.00
H452   H     0.00736   0.24994   0.80639   0.00000  Uiso   1.00
H453   H     0.11884   0.11322   0.80865   0.00000  Uiso   1.00
H454   H     0.12314   0.38678   0.67688   0.00000  Uiso   1.00
H455   H     0.21165   0.11002   0.69231   0.00000  Uiso   1.00
H456   H     0.20759   0.39028   0.82133   0.00000  Uiso   1.00
H457   H     0.21035   0.02923   0.69362   0.00000  Uiso   1.00
H458   H     0.20619   0.47104   0.81971   0.00000  Uiso   1.00
H459   H     0.20862   0.31198   0.54119   0.00000  Uiso   1.00
H460   H     0.09508   0.21319   0.95485   0.00000  Uiso   1.00
H461   H     0.20919   0.30983   0.62958   0.00000  Uiso   1.00
H462   H     0.09760   0.21264   0.86689   0.00000  Uiso   1.00
H463   H     0.12412   0.19020   0.61898   0.00000  Uiso   1.00
H464   H     0.23574   0.28731   0.88449   0.00000  Uiso   1.00
H465   H     0.12473   0.18809   0.53080   0.00000  Uiso   1.00
H466   H     0.23823   0.28688   0.97314   0.00000  Uiso   1.00
N467   N     0.16667   0.25001   0.62934   0.00000  Uiso   1.00
N468   N     0.16667   0.24999   0.87065   0.00000  Uiso   1.00
O469   O     0.16667   0.18572   0.79071   0.00000  Uiso   1.00
O470   O     0.16666   0.31427   0.70928   0.00000  Uiso   1.00
O471   O     0.16667   0.18573   0.70928   0.00000  Uiso   1.00
O472   O     0.16666   0.31427   0.79072   0.00000  Uiso   1.00
O473   O     0.09161   0.24999   0.78132   0.00000  Uiso   1.00
O474   O     0.24172   0.25000   0.71868   0.00000  Uiso   1.00
O475   O     0.09161   0.25000   0.69988   0.00000  Uiso   1.00
O476   O     0.24172   0.25000   0.80011   0.00000  Uiso   1.00
C477   C     0.10553   0.02571   0.82020   0.00000  Uiso   1.00
C478   C     0.05536   0.00479   0.79611   0.00000  Uiso   1.00
H479   H     0.03185   0.02955   0.77318   0.00000  Uiso   1.00
H480   H     0.06328   0.47602   0.77366   0.00000  Uiso   1.00
H481   H     0.03276   0.49280   0.82462   0.00000  Uiso   1.00
H482   H     0.12946   0.00043   0.84166   0.00000  Uiso   1.00
H483   H     0.09540   0.05020   0.84713   0.00000  Uiso   1.00
C484   C     0.11092   0.47419   0.66123   0.00000  Uiso   1.00
C485   C     0.05979   0.49510   0.66911   0.00000  Uiso   1.00
H486   H     0.03489   0.47034   0.68436   0.00000  Uiso   1.00
H487   H     0.06624   0.02391   0.69380   0.00000  Uiso   1.00
H488   H     0.03939   0.00702   0.63371   0.00000  Uiso   1.00
H489   H     0.13613   0.49946   0.64754   0.00000  Uiso   1.00
H490   H     0.10258   0.44964   0.63139   0.00000  Uiso   1.00
C491   C     0.49973   0.16497   0.75008   0.00000  Uiso   1.00
C492   C     0.49977   0.33506   0.74985   0.00000  Uiso   1.00
C493   C     0.52382   0.28424   0.55691   0.00000  Uiso   1.00
C494   C     0.46047   0.22913   0.94098   0.00000  Uiso   1.00
C495   C     0.52369   0.28342   0.60763   0.00000  Uiso   1.00
C496   C     0.46142   0.22920   0.89039   0.00000  Uiso   1.00
C497   C     0.47631   0.21661   0.60174   0.00000  Uiso   1.00
C498   C     0.53858   0.27079   0.90023   0.00000  Uiso   1.00
C499   C     0.47620   0.21582   0.55100   0.00000  Uiso   1.00
C500   C     0.53952   0.27093   0.95108   0.00000  Uiso   1.00
C501   C     0.50001   0.25004   0.52734   0.00000  Uiso   1.00
C502   C     0.50000   0.25004   0.97265   0.00000  Uiso   1.00
C503   C     0.40123   0.24998   0.73755   0.00000  Uiso   1.00
C504   C     0.59877   0.25001   0.76245   0.00000  Uiso   1.00
C505   C     0.34596   0.24999   0.73069   0.00000  Uiso   1.00
C506   C     0.65404   0.24998   0.76933   0.00000  Uiso   1.00
C507   C     0.46876   0.04807   0.78360   0.00000  Uiso   1.00
C508   C     0.47132   0.45193   0.70695   0.00000  Uiso   1.00
C509   C     0.47164   0.09437   0.78347   0.00000  Uiso   1.00
C510   C     0.47412   0.40564   0.70798   0.00000  Uiso   1.00
C511   C     0.49830   0.11676   0.75031   0.00000  Uiso   1.00
C512   C     0.49839   0.38331   0.74920   0.00000  Uiso   1.00
C513   C     0.52353   0.09304   0.71759   0.00000  Uiso   1.00
C514   C     0.52128   0.40715   0.78955   0.00000  Uiso   1.00
C515   C     0.52241   0.04713   0.71812   0.00000  Uiso   1.00
C516   C     0.52011   0.45305   0.78872   0.00000  Uiso   1.00
C517   C     0.49428   0.02431   0.74990   0.00000  Uiso   1.00
C518   C     0.49433   0.47577   0.74840   0.00000  Uiso   1.00
Cu519  Cu    0.50000   0.24999   0.79821   0.00000  Uiso   1.00
Cu520  Cu    0.50000   0.25000   0.70178   0.00000  Uiso   1.00
H521   H     0.65931   0.25003   0.69363   0.00000  Uiso   1.00
H522   H     0.34070   0.24994   0.80639   0.00000  Uiso   1.00
H523   H     0.45217   0.11322   0.80865   0.00000  Uiso   1.00
H524   H     0.45648   0.38678   0.67688   0.00000  Uiso   1.00
H525   H     0.54498   0.11002   0.69231   0.00000  Uiso   1.00
H526   H     0.54092   0.39028   0.82133   0.00000  Uiso   1.00
H527   H     0.54368   0.02923   0.69362   0.00000  Uiso   1.00
H528   H     0.53952   0.47104   0.81971   0.00000  Uiso   1.00
H529   H     0.54196   0.31198   0.54119   0.00000  Uiso   1.00
H530   H     0.42842   0.21319   0.95485   0.00000  Uiso   1.00
H531   H     0.54253   0.30983   0.62958   0.00000  Uiso   1.00
H532   H     0.43093   0.21264   0.86689   0.00000  Uiso   1.00
H533   H     0.45745   0.19020   0.61898   0.00000  Uiso   1.00
H534   H     0.56907   0.28731   0.88449   0.00000  Uiso   1.00
H535   H     0.45806   0.18809   0.53080   0.00000  Uiso   1.00
H536   H     0.57157   0.28688   0.97314   0.00000  Uiso   1.00
N537   N     0.50000   0.25001   0.62934   0.00000  Uiso   1.00
N538   N     0.50000   0.24999   0.87065   0.00000  Uiso   1.00
O539   O     0.50000   0.18572   0.79071   0.00000  Uiso   1.00
O540   O     0.50000   0.31427   0.70928   0.00000  Uiso   1.00
O541   O     0.50000   0.18573   0.70928   0.00000  Uiso   1.00
O542   O     0.50000   0.31427   0.79072   0.00000  Uiso   1.00
O543   O     0.42495   0.24999   0.78132   0.00000  Uiso   1.00
O544   O     0.57505   0.25000   0.71868   0.00000  Uiso   1.00
O545   O     0.42495   0.25000   0.69988   0.00000  Uiso   1.00
O546   O     0.57505   0.25000   0.80011   0.00000  Uiso   1.00
C547   C     0.43886   0.02571   0.82020   0.00000  Uiso   1.00
C548   C     0.38870   0.00479   0.79611   0.00000  Uiso   1.00
H549   H     0.36518   0.02955   0.77318   0.00000  Uiso   1.00
H550   H     0.39661   0.47602   0.77366   0.00000  Uiso   1.00
H551   H     0.36609   0.49280   0.82462   0.00000  Uiso   1.00
H552   H     0.46279   0.00043   0.84166   0.00000  Uiso   1.00
H553   H     0.42873   0.05020   0.84713   0.00000  Uiso   1.00
C554   C     0.44426   0.47419   0.66123   0.00000  Uiso   1.00
C555   C     0.39312   0.49510   0.66911   0.00000  Uiso   1.00
H556   H     0.36822   0.47034   0.68436   0.00000  Uiso   1.00
H557   H     0.39957   0.02391   0.69380   0.00000  Uiso   1.00
H558   H     0.37272   0.00702   0.63371   0.00000  Uiso   1.00
H559   H     0.46947   0.49946   0.64754   0.00000  Uiso   1.00
H560   H     0.43591   0.44964   0.63139   0.00000  Uiso   1.00
C561   C     0.83306   0.16497   0.75008   0.00000  Uiso   1.00
C562   C     0.83311   0.33506   0.74985   0.00000  Uiso   1.00
C563   C     0.85715   0.28424   0.55691   0.00000  Uiso   1.00
C564   C     0.79381   0.22913   0.94098   0.00000  Uiso   1.00
C565   C     0.85702   0.28342   0.60763   0.00000  Uiso   1.00
C566   C     0.79476   0.22920   0.89039   0.00000  Uiso   1.00
C567   C     0.80964   0.21661   0.60174   0.00000  Uiso   1.00
C568   C     0.87191   0.27079   0.90023   0.00000  Uiso   1.00
C569   C     0.80953   0.21582   0.55100   0.00000  Uiso   1.00
C570   C     0.87285   0.27093   0.95108   0.00000  Uiso   1.00
C571   C     0.83334   0.25004   0.52734   0.00000  Uiso   1.00
C572   C     0.83333   0.25004   0.97265   0.00000  Uiso   1.00
C573   C     0.73456   0.24998   0.73755   0.00000  Uiso   1.00
C574   C     0.93210   0.25001   0.76245   0.00000  Uiso   1.00
C575   C     0.67929   0.24999   0.73069   0.00000  Uiso   1.00
C576   C     0.98738   0.24998   0.76933   0.00000  Uiso   1.00
C577   C     0.80210   0.04807   0.78360   0.00000  Uiso   1.00
C578   C     0.80466   0.45193   0.70695   0.00000  Uiso   1.00
C579   C     0.80497   0.09437   0.78347   0.00000  Uiso   1.00
C580   C     0.80746   0.40564   0.70798   0.00000  Uiso   1.00
C581   C     0.83163   0.11676   0.75031   0.00000  Uiso   1.00
C582   C     0.83172   0.38331   0.74920   0.00000  Uiso   1.00
C583   C     0.85687   0.09304   0.71759   0.00000  Uiso   1.00
C584   C     0.85461   0.40715   0.78955   0.00000  Uiso   1.00
C585   C     0.85574   0.04713   0.71812   0.00000  Uiso   1.00
C586   C     0.85344   0.45305   0.78872   0.00000  Uiso   1.00
C587   C     0.82761   0.02431   0.74990   0.00000  Uiso   1.00
C588   C     0.82766   0.47577   0.74840   0.00000  Uiso   1.00
Cu589  Cu    0.83333   0.24999   0.79821   0.00000  Uiso   1.00
Cu590  Cu    0.83333   0.25000   0.70178   0.00000  Uiso   1.00
H591   H     0.99264   0.25003   0.69363   0.00000  Uiso   1.00
H592   H     0.67403   0.24994   0.80639   0.00000  Uiso   1.00
H593   H     0.78550   0.11322   0.80865   0.00000  Uiso   1.00
H594   H     0.78981   0.38678   0.67688   0.00000  Uiso   1.00
H595   H     0.87832   0.11002   0.69231   0.00000  Uiso   1.00
H596   H     0.87426   0.39028   0.82133   0.00000  Uiso   1.00
H597   H     0.87701   0.02923   0.69362   0.00000  Uiso   1.00
H598   H     0.87286   0.47104   0.81971   0.00000  Uiso   1.00
H599   H     0.87529   0.31198   0.54119   0.00000  Uiso   1.00
H600   H     0.76175   0.21319   0.95485   0.00000  Uiso   1.00
H601   H     0.87586   0.30983   0.62958   0.00000  Uiso   1.00
H602   H     0.76427   0.21264   0.86689   0.00000  Uiso   1.00
H603   H     0.79078   0.19020   0.61898   0.00000  Uiso   1.00
H604   H     0.90240   0.28731   0.88449   0.00000  Uiso   1.00
H605   H     0.79140   0.18809   0.53080   0.00000  Uiso   1.00
H606   H     0.90490   0.28688   0.97314   0.00000  Uiso   1.00
N607   N     0.83333   0.25001   0.62934   0.00000  Uiso   1.00
N608   N     0.83333   0.24999   0.87065   0.00000  Uiso   1.00
O609   O     0.83334   0.18572   0.79071   0.00000  Uiso   1.00
O610   O     0.83333   0.31427   0.70928   0.00000  Uiso   1.00
O611   O     0.83334   0.18573   0.70928   0.00000  Uiso   1.00
O612   O     0.83333   0.31427   0.79072   0.00000  Uiso   1.00
O613   O     0.75828   0.24999   0.78132   0.00000  Uiso   1.00
O614   O     0.90839   0.25000   0.71868   0.00000  Uiso   1.00
O615   O     0.75828   0.25000   0.69988   0.00000  Uiso   1.00
O616   O     0.90839   0.25000   0.80011   0.00000  Uiso   1.00
C617   C     0.77220   0.02571   0.82020   0.00000  Uiso   1.00
C618   C     0.72203   0.00479   0.79611   0.00000  Uiso   1.00
H619   H     0.69851   0.02955   0.77318   0.00000  Uiso   1.00
H620   H     0.72994   0.47602   0.77366   0.00000  Uiso   1.00
H621   H     0.69942   0.49280   0.82462   0.00000  Uiso   1.00
H622   H     0.79613   0.00043   0.84166   0.00000  Uiso   1.00
H623   H     0.76207   0.05020   0.84713   0.00000  Uiso   1.00
C624   C     0.77759   0.47419   0.66123   0.00000  Uiso   1.00
C625   C     0.72646   0.49510   0.66911   0.00000  Uiso   1.00
H626   H     0.70155   0.47034   0.68436   0.00000  Uiso   1.00
H627   H     0.73290   0.02391   0.69380   0.00000  Uiso   1.00
H628   H     0.70605   0.00702   0.63371   0.00000  Uiso   1.00
H629   H     0.80280   0.49946   0.64754   0.00000  Uiso   1.00
H630   H     0.76924   0.44964   0.63139   0.00000  Uiso   1.00
C631   C     0.16640   0.66497   0.75008   0.00000  Uiso   1.00
C632   C     0.16644   0.83506   0.74985   0.00000  Uiso   1.00
C633   C     0.19048   0.78424   0.55691   0.00000  Uiso   1.00
C634   C     0.12714   0.72913   0.94098   0.00000  Uiso   1.00
C635   C     0.19036   0.78342   0.60763   0.00000  Uiso   1.00
C636   C     0.12809   0.72920   0.89039   0.00000  Uiso   1.00
C637   C     0.14298   0.71661   0.60174   0.00000  Uiso   1.00
C638   C     0.20524   0.77079   0.90023   0.00000  Uiso   1.00
C639   C     0.14287   0.71582   0.55100   0.00000  Uiso   1.00
C640   C     0.20618   0.77093   0.95108   0.00000  Uiso   1.00
C641   C     0.16667   0.75004   0.52734   0.00000  Uiso   1.00
C642   C     0.16666   0.75004   0.97265   0.00000  Uiso   1.00
C643   C     0.06790   0.74998   0.73755   0.00000  Uiso   1.00
C644   C     0.26544   0.75001   0.76245   0.00000  Uiso   1.00
C645   C     0.01263   0.74999   0.73069   0.00000  Uiso   1.00
C646   C     0.32071   0.74998   0.76933   0.00000  Uiso   1.00
C647   C     0.13543   0.54807   0.78360   0.00000  Uiso   1.00
C648   C     0.13799   0.95193   0.70695   0.00000  Uiso   1.00
C649   C     0.13831   0.59437   0.78347   0.00000  Uiso   1.00
C650   C     0.14079   0.90564   0.70798   0.00000  Uiso   1.00
C651   C     0.16497   0.61676   0.75031   0.00000  Uiso   1.00
C652   C     0.16506   0.88331   0.74920   0.00000  Uiso   1.00
C653   C     0.19020   0.59304   0.71759   0.00000  Uiso   1.00
C654   C     0.18795   0.90715   0.78955   0.00000  Uiso   1.00
C655   C     0.18908   0.54713   0.71812   0.00000  Uiso   1.00
C656   C     0.18677   0.95305   0.78872   0.00000  Uiso   1.00
C657   C     0.16095   0.52431   0.74990   0.00000  Uiso   1.00
C658   C     0.16099   0.97577   0.74840   0.00000  Uiso   1.00
Cu659  Cu    0.16667   0.74999   0.79821   0.00000  Uiso   1.00
Cu660  Cu    0.16667   0.75000   0.70178   0.00000  Uiso   1.00
H661   H     0.32597   0.75003   0.69363   0.00000  Uiso   1.00
H662   H     0.00736   0.74994   0.80639   0.00000  Uiso   1.00
H663   H     0.11884   0.61322   0.80865   0.00000  Uiso   1.00
H664   H     0.12314   0.88678   0.67688   0.00000  Uiso   1.00
H665   H     0.21165   0.61002   0.69231   0.00000  Uiso   1.00
H666   H     0.20759   0.89028   0.82133   0.00000  Uiso   1.00
H667   H     0.21035   0.52923   0.69362   0.00000  Uiso   1.00
H668   H     0.20619   0.97104   0.81971   0.00000  Uiso   1.00
H669   H     0.20862   0.81198   0.54119   0.00000  Uiso   1.00
H670   H     0.09508   0.71319   0.95485   0.00000  Uiso   1.00
H671   H     0.20919   0.80983   0.62958   0.00000  Uiso   1.00
H672   H     0.09760   0.71264   0.86689   0.00000  Uiso   1.00
H673   H     0.12412   0.69020   0.61898   0.00000  Uiso   1.00
H674   H     0.23574   0.78731   0.88449   0.00000  Uiso   1.00
H675   H     0.12473   0.68809   0.53080   0.00000  Uiso   1.00
H676   H     0.23823   0.78688   0.97314   0.00000  Uiso   1.00
N677   N     0.16667   0.75001   0.62934   0.00000  Uiso   1.00
N678   N     0.16667   0.74999   0.87065   0.00000  Uiso   1.00
O679   O     0.16667   0.68572   0.79071   0.00000  Uiso   1.00
O680   O     0.16666   0.81427   0.70928   0.00000  Uiso   1.00
O681   O     0.16667   0.68573   0.70928   0.00000  Uiso   1.00
O682   O     0.16666   0.81427   0.79072   0.00000  Uiso   1.00
O683   O     0.09161   0.74999   0.78132   0.00000  Uiso   1.00
O684   O     0.24172   0.75000   0.71868   0.00000  Uiso   1.00
O685   O     0.09161   0.75000   0.69988   0.00000  Uiso   1.00
O686   O     0.24172   0.75000   0.80011   0.00000  Uiso   1.00
C687   C     0.10553   0.52571   0.82020   0.00000  Uiso   1.00
C688   C     0.05536   0.50479   0.79611   0.00000  Uiso   1.00
H689   H     0.03185   0.52955   0.77318   0.00000  Uiso   1.00
H690   H     0.06328   0.97602   0.77366   0.00000  Uiso   1.00
H691   H     0.03276   0.99280   0.82462   0.00000  Uiso   1.00
H692   H     0.12946   0.50043   0.84166   0.00000  Uiso   1.00
H693   H     0.09540   0.55020   0.84713   0.00000  Uiso   1.00
C694   C     0.11092   0.97419   0.66123   0.00000  Uiso   1.00
C695   C     0.05979   0.99510   0.66911   0.00000  Uiso   1.00
H696   H     0.03489   0.97034   0.68436   0.00000  Uiso   1.00
H697   H     0.06624   0.52391   0.69380   0.00000  Uiso   1.00
H698   H     0.03939   0.50702   0.63371   0.00000  Uiso   1.00
H699   H     0.13613   0.99946   0.64754   0.00000  Uiso   1.00
H700   H     0.10258   0.94964   0.63139   0.00000  Uiso   1.00
C701   C     0.49973   0.66497   0.75008   0.00000  Uiso   1.00
C702   C     0.49977   0.83506   0.74985   0.00000  Uiso   1.00
C703   C     0.52382   0.78424   0.55691   0.00000  Uiso   1.00
C704   C     0.46047   0.72913   0.94098   0.00000  Uiso   1.00
C705   C     0.52369   0.78342   0.60763   0.00000  Uiso   1.00
C706   C     0.46142   0.72920   0.89039   0.00000  Uiso   1.00
C707   C     0.47631   0.71661   0.60174   0.00000  Uiso   1.00
C708   C     0.53858   0.77079   0.90023   0.00000  Uiso   1.00
C709   C     0.47620   0.71582   0.55100   0.00000  Uiso   1.00
C710   C     0.53952   0.77093   0.95108   0.00000  Uiso   1.00
C711   C     0.50001   0.75004   0.52734   0.00000  Uiso   1.00
C712   C     0.50000   0.75004   0.97265   0.00000  Uiso   1.00
C713   C     0.40123   0.74998   0.73755   0.00000  Uiso   1.00
C714   C     0.59877   0.75001   0.76245   0.00000  Uiso   1.00
C715   C     0.34596   0.74999   0.73069   0.00000  Uiso   1.00
C716   C     0.65404   0.74998   0.76933   0.00000  Uiso   1.00
C717   C     0.46876   0.54807   0.78360   0.00000  Uiso   1.00
C718   C     0.47132   0.95193   0.70695   0.00000  Uiso   1.00
C719   C     0.47164   0.59437   0.78347   0.00000  Uiso   1.00
C720   C     0.47412   0.90564   0.70798   0.00000  Uiso   1.00
C721   C     0.49830   0.61676   0.75031   0.00000  Uiso   1.00
C722   C     0.49839   0.88331   0.74920   0.00000  Uiso   1.00
C723   C     0.52353   0.59304   0.71759   0.00000  Uiso   1.00
C724   C     0.52128   0.90715   0.78955   0.00000  Uiso   1.00
C725   C     0.52241   0.54713   0.71812   0.00000  Uiso   1.00
C726   C     0.52011   0.95305   0.78872   0.00000  Uiso   1.00
C727   C     0.49428   0.52431   0.74990   0.00000  Uiso   1.00
C728   C     0.49433   0.97577   0.74840   0.00000  Uiso   1.00
Cu729  Cu    0.50000   0.74999   0.79821   0.00000  Uiso   1.00
Cu730  Cu    0.50000   0.75000   0.70178   0.00000  Uiso   1.00
H731   H     0.65931   0.75003   0.69363   0.00000  Uiso   1.00
H732   H     0.34070   0.74994   0.80639   0.00000  Uiso   1.00
H733   H     0.45217   0.61322   0.80865   0.00000  Uiso   1.00
H734   H     0.45648   0.88678   0.67688   0.00000  Uiso   1.00
H735   H     0.54498   0.61002   0.69231   0.00000  Uiso   1.00
H736   H     0.54092   0.89028   0.82133   0.00000  Uiso   1.00
H737   H     0.54368   0.52923   0.69362   0.00000  Uiso   1.00
H738   H     0.53952   0.97104   0.81971   0.00000  Uiso   1.00
H739   H     0.54196   0.81198   0.54119   0.00000  Uiso   1.00
H740   H     0.42842   0.71319   0.95485   0.00000  Uiso   1.00
H741   H     0.54253   0.80983   0.62958   0.00000  Uiso   1.00
H742   H     0.43093   0.71264   0.86689   0.00000  Uiso   1.00
H743   H     0.45745   0.69020   0.61898   0.00000  Uiso   1.00
H744   H     0.56907   0.78731   0.88449   0.00000  Uiso   1.00
H745   H     0.45806   0.68809   0.53080   0.00000  Uiso   1.00
H746   H     0.57157   0.78688   0.97314   0.00000  Uiso   1.00
N747   N     0.50000   0.75001   0.62934   0.00000  Uiso   1.00
N748   N     0.50000   0.74999   0.87065   0.00000  Uiso   1.00
O749   O     0.50000   0.68572   0.79071   0.00000  Uiso   1.00
O750   O     0.50000   0.81427   0.70928   0.00000  Uiso   1.00
O751   O     0.50000   0.68573   0.70928   0.00000  Uiso   1.00
O752   O     0.50000   0.81427   0.79072   0.00000  Uiso   1.00
O753   O     0.42495   0.74999   0.78132   0.00000  Uiso   1.00
O754   O     0.57505   0.75000   0.71868   0.00000  Uiso   1.00
O755   O     0.42495   0.75000   0.69988   0.00000  Uiso   1.00
O756   O     0.57505   0.75000   0.80011   0.00000  Uiso   1.00
C757   C     0.43886   0.52571   0.82020   0.00000  Uiso   1.00
C758   C     0.38870   0.50479   0.79611   0.00000  Uiso   1.00
H759   H     0.36518   0.52955   0.77318   0.00000  Uiso   1.00
H760   H     0.39661   0.97602   0.77366   0.00000  Uiso   1.00
H761   H     0.36609   0.99280   0.82462   0.00000  Uiso   1.00
H762   H     0.46279   0.50043   0.84166   0.00000  Uiso   1.00
H763   H     0.42873   0.55020   0.84713   0.00000  Uiso   1.00
C764   C     0.44426   0.97419   0.66123   0.00000  Uiso   1.00
C765   C     0.39312   0.99510   0.66911   0.00000  Uiso   1.00
H766   H     0.36822   0.97034   0.68436   0.00000  Uiso   1.00
H767   H     0.39957   0.52391   0.69380   0.00000  Uiso   1.00
H768   H     0.37272   0.50702   0.63371   0.00000  Uiso   1.00
H769   H     0.46947   0.99946   0.64754   0.00000  Uiso   1.00
H770   H     0.43591   0.94964   0.63139   0.00000  Uiso   1.00
C771   C     0.83306   0.66497   0.75008   0.00000  Uiso   1.00
C772   C     0.83311   0.83506   0.74985   0.00000  Uiso   1.00
C773   C     0.85715   0.78424   0.55691   0.00000  Uiso   1.00
C774   C     0.79381   0.72913   0.94098   0.00000  Uiso   1.00
C775   C     0.85702   0.78342   0.60763   0.00000  Uiso   1.00
C776   C     0.79476   0.72920   0.89039   0.00000  Uiso   1.00
C777   C     0.80964   0.71661   0.60174   0.00000  Uiso   1.00
C778   C     0.87191   0.77079   0.90023   0.00000  Uiso   1.00
C779   C     0.80953   0.71582   0.55100   0.00000  Uiso   1.00
C780   C     0.87285   0.77093   0.95108   0.00000  Uiso   1.00
C781   C     0.83334   0.75004   0.52734   0.00000  Uiso   1.00
C782   C     0.83333   0.75004   0.97265   0.00000  Uiso   1.00
C783   C     0.73456   0.74998   0.73755   0.00000  Uiso   1.00
C784   C     0.93210   0.75001   0.76245   0.00000  Uiso   1.00
C785   C     0.67929   0.74999   0.73069   0.00000  Uiso   1.00
C786   C     0.98738   0.74998   0.76933   0.00000  Uiso   1.00
C787   C     0.80210   0.54807   0.78360   0.00000  Uiso   1.00
C788   C     0.80466   0.95193   0.70695   0.00000  Uiso   1.00
C789   C     0.80497   0.59437   0.78347   0.00000  Uiso   1.00
C790   C     0.80746   0.90564   0.70798   0.00000  Uiso   1.00
C791   C     0.83163   0.61676   0.75031   0.00000  Uiso   1.00
C792   C     0.83172   0.88331   0.74920   0.00000  Uiso   1.00
C793   C     0.85687   0.59304   0.71759   0.00000  Uiso   1.00
C794   C     0.85461   0.90715   0.78955   0.00000  Uiso   1.00
C795   C     0.85574   0.54713   0.71812   0.00000  Uiso   1.00
C796   C     0.85344   0.95305   0.78872   0.00000  Uiso   1.00
C797   C     0.82761   0.52431   0.74990   0.00000  Uiso   1.00
C798   C     0.82766   0.97577   0.74840   0.00000  Uiso   1.00
Cu799  Cu    0.83333   0.74999   0.79821   0.00000  Uiso   1.00
Cu800  Cu    0.83333   0.75000   0.70178   0.00000  Uiso   1.00
H801   H     0.99264   0.75003   0.69363   0.00000  Uiso   1.00
H802   H     0.67403   0.74994   0.80639   0.00000  Uiso   1.00
H803   H     0.78550   0.61322   0.80865   0.00000  Uiso   1.00
H804   H     0.78981   0.88678   0.67688   0.00000  Uiso   1.00
H805   H     0.87832   0.61002   0.69231   0.00000  Uiso   1.00
H806   H     0.87426   0.89028   0.82133   0.00000  Uiso   1.00
H807   H     0.87701   0.52923   0.69362   0.00000  Uiso   1.00
H808   H     0.87286   0.97104   0.81971   0.00000  Uiso   1.00
H809   H     0.87529   0.81198   0.54119   0.00000  Uiso   1.00
H810   H     0.76175   0.71319   0.95485   0.00000  Uiso   1.00
H811   H     0.87586   0.80983   0.62958   0.00000  Uiso   1.00
H812   H     0.76427   0.71264   0.86689   0.00000  Uiso   1.00
H813   H     0.79078   0.69020   0.61898   0.00000  Uiso   1.00
H814   H     0.90240   0.78731   0.88449   0.00000  Uiso   1.00
H815   H     0.79140   0.68809   0.53080   0.00000  Uiso   1.00
H816   H     0.90490   0.78688   0.97314   0.00000  Uiso   1.00
N817   N     0.83333   0.75001   0.62934   0.00000  Uiso   1.00
N818   N     0.83333   0.74999   0.87065   0.00000  Uiso   1.00
O819   O     0.83334   0.68572   0.79071   0.00000  Uiso   1.00
O820   O     0.83333   0.81427   0.70928   0.00000  Uiso   1.00
O821   O     0.83334   0.68573   0.70928   0.00000  Uiso   1.00
O822   O     0.83333   0.81427   0.79072   0.00000  Uiso   1.00
O823   O     0.75828   0.74999   0.78132   0.00000  Uiso   1.00
O824   O     0.90839   0.75000   0.71868   0.00000  Uiso   1.00
O825   O     0.75828   0.75000   0.69988   0.00000  Uiso   1.00
O826   O     0.90839   0.75000   0.80011   0.00000  Uiso   1.00
C827   C     0.77220   0.52571   0.82020   0.00000  Uiso   1.00
C828   C     0.72203   0.50479   0.79611   0.00000  Uiso   1.00
H829   H     0.69851   0.52955   0.77318   0.00000  Uiso   1.00
H830   H     0.72994   0.97602   0.77366   0.00000  Uiso   1.00
H831   H     0.69942   0.99280   0.82462   0.00000  Uiso   1.00
H832   H     0.79613   0.50043   0.84166   0.00000  Uiso   1.00
H833   H     0.76207   0.55020   0.84713   0.00000  Uiso   1.00
C834   C     0.77759   0.97419   0.66123   0.00000  Uiso   1.00
C835   C     0.72646   0.99510   0.66911   0.00000  Uiso   1.00
H836   H     0.70155   0.97034   0.68436   0.00000  Uiso   1.00
H837   H     0.73290   0.52391   0.69380   0.00000  Uiso   1.00
H838   H     0.70605   0.50702   0.63371   0.00000  Uiso   1.00
H839   H     0.80280   0.99946   0.64754   0.00000  Uiso   1.00
H840   H     0.76924   0.94964   0.63139   0.00000  Uiso   1.00
loop_
_geom_bond_atom_site_label_1
_geom_bond_atom_site_label_2
_geom_bond_distance
_geom_bond_site_symmetry_2
_ccdc_geom_bond_type
C1     C21     1.456   .     S
C1     O51     1.292   .     A
C1     O49     1.291   .     A
C2     C22     1.458   .     S
C2     O52     1.293   .     A
C2     O50     1.292   .     A
C3     C11     1.411   .     A
C3     C5      1.407   .     A
C3     H39     1.081   .     S
C4     C12     1.411   .     A
C4     H40     1.081   .     S
C4     C6      1.407   .     A
C5     N47     1.364   .     A
C5     H41     1.081   .     S
C6     H42     1.081   .     S
C6     N48     1.364   .     A
C7     H43     1.081   .     S
C7     N47     1.364   .     A
C7     C9      1.407   .     A
C8     N48     1.364   .     A
C8     H44     1.081   .     S
C8     C10     1.407   .     A
C9     H45     1.081   .     S
C9     C11     1.411   .     A
C10    C12     1.411   .     A
C10    H46     1.081   .     S
C11    C432    1.517   1_554 S
C12    C431    1.517   .     S
C13    O53     1.285   .     A
C13    C15     1.434   .     S
C13    O55     1.287   .     A
C14    O56     1.287   .     A
C14    C16     1.434   .     S
C14    O54     1.285   .     A
C15    C156    1.335   1_455 S
C15    H171    1.087   1_455 S
C16    C85     1.335   .     S
C16    H102    1.087   .     S
C17    C27     1.420   .     A
C17    C57     1.520   .     S
C17    C19     1.401   .     A
C18    C64     1.520   .     S
C18    C20     1.400   .     A
C18    C28     1.420   .     A
C19    C21     1.400   .     A
C19    H33     1.084   .     S
C20    H34     1.084   .     S
C20    C22     1.401   .     A
C21    C23     1.396   .     A
C22    C24     1.396   .     A
C23    H35     1.083   .     S
C23    C25     1.387   .     A
C24    H36     1.083   .     S
C24    C26     1.387   .     A
C25    H37     1.084   .     S
C25    C27     1.402   .     A
C26    C28     1.402   .     A
C26    H38     1.084   .     S
C27    C238    1.467   1_545 S
C28    C237    1.467   .     S
Cu29   Cu30    2.675   .     S
Cu29   O56     1.959   .     S
Cu29   O49     1.953   .     S
Cu29   N48     2.009   .     S
Cu29   O53     1.957   .     S
Cu29   O52     1.952   .     S
Cu30   O51     1.952   .     S
Cu30   O55     1.959   .     S
Cu30   O54     1.957   .     S
Cu30   O50     1.953   .     S
Cu30   N47     2.009   .     S
H31    C85     1.087   .     S
H32    C156    1.087   1_455 S
C57    H62     1.108   .     S
C57    C58     1.526   .     S
C57    H63     1.112   .     S
C58    H59     1.111   .     S
C58    H270    1.108   1_545 S
C58    H271    1.110   1_545 S
H60    C268    1.108   .     S
H61    C268    1.110   .     S
C64    C65     1.526   .     S
C64    H69     1.107   .     S
C64    H70     1.112   .     S
C65    H66     1.111   .     S
C65    H277    1.108   .     S
C65    H278    1.110   .     S
H67    C275    1.108   1_545 S
H68    C275    1.110   1_545 S
C71    C91     1.456   .     S
C71    O121    1.292   .     A
C71    O119    1.291   .     A
C72    C92     1.458   .     S
C72    O122    1.293   .     A
C72    O120    1.292   .     A
C73    C81     1.411   .     A
C73    C75     1.407   .     A
C73    H109    1.081   .     S
C74    C82     1.411   .     A
C74    H110    1.081   .     S
C74    C76     1.407   .     A
C75    N117    1.364   .     A
C75    H111    1.081   .     S
C76    H112    1.081   .     S
C76    N118    1.364   .     A
C77    H113    1.081   .     S
C77    N117    1.364   .     A
C77    C79     1.407   .     A
C78    N118    1.364   .     A
C78    H114    1.081   .     S
C78    C80     1.407   .     A
C79    H115    1.081   .     S
C79    C81     1.411   .     A
C80    C82     1.411   .     A
C80    H116    1.081   .     S
C81    C502    1.517   1_554 S
C82    C501    1.517   .     S
C83    O123    1.285   .     A
C83    C85     1.434   .     S
C83    O125    1.287   .     A
C84    O126    1.287   .     A
C84    C86     1.434   .     S
C84    O124    1.285   .     A
C86    C155    1.335   .     S
C86    H172    1.087   .     S
C87    C97     1.420   .     A
C87    C127    1.520   .     S
C87    C89     1.401   .     A
C88    C134    1.520   .     S
C88    C90     1.400   .     A
C88    C98     1.420   .     A
C89    C91     1.400   .     A
C89    H103    1.084   .     S
C90    H104    1.084   .     S
C90    C92     1.401   .     A
C91    C93     1.396   .     A
C92    C94     1.396   .     A
C93    H105    1.083   .     S
C93    C95     1.387   .     A
C94    H106    1.083   .     S
C94    C96     1.387   .     A
C95    H107    1.084   .     S
C95    C97     1.402   .     A
C96    C98     1.402   .     A
C96    H108    1.084   .     S
C97    C308    1.467   1_545 S
C98    C307    1.467   .     S
Cu99   Cu100   2.675   .     S
Cu99   O126    1.959   .     S
Cu99   O119    1.953   .     S
Cu99   N118    2.009   .     S
Cu99   O123    1.957   .     S
Cu99   O122    1.952   .     S
Cu100  O121    1.952   .     S
Cu100  O125    1.959   .     S
Cu100  O124    1.957   .     S
Cu100  O120    1.953   .     S
Cu100  N117    2.009   .     S
H101   C155    1.087   .     S
C127   H132    1.108   .     S
C127   C128    1.526   .     S
C127   H133    1.112   .     S
C128   H129    1.111   .     S
C128   H340    1.108   1_545 S
C128   H341    1.110   1_545 S
H130   C338    1.108   .     S
H131   C338    1.110   .     S
C134   C135    1.526   .     S
C134   H139    1.107   .     S
C134   H140    1.112   .     S
C135   H136    1.111   .     S
C135   H347    1.108   .     S
C135   H348    1.110   .     S
H137   C345    1.108   1_545 S
H138   C345    1.110   1_545 S
C141   C161    1.456   .     S
C141   O191    1.292   .     A
C141   O189    1.291   .     A
C142   C162    1.458   .     S
C142   O192    1.293   .     A
C142   O190    1.292   .     A
C143   C151    1.411   .     A
C143   C145    1.407   .     A
C143   H179    1.081   .     S
C144   C152    1.411   .     A
C144   H180    1.081   .     S
C144   C146    1.407   .     A
C145   N187    1.364   .     A
C145   H181    1.081   .     S
C146   H182    1.081   .     S
C146   N188    1.364   .     A
C147   H183    1.081   .     S
C147   N187    1.364   .     A
C147   C149    1.407   .     A
C148   N188    1.364   .     A
C148   H184    1.081   .     S
C148   C150    1.407   .     A
C149   H185    1.081   .     S
C149   C151    1.411   .     A
C150   C152    1.411   .     A
C150   H186    1.081   .     S
C151   C572    1.517   1_554 S
C152   C571    1.517   .     S
C153   O193    1.285   .     A
C153   C155    1.434   .     S
C153   O195    1.287   .     A
C154   O196    1.287   .     A
C154   C156    1.434   .     S
C154   O194    1.285   .     A
C156   C15     1.335   1_655 S
C156   H32     1.087   1_655 S
C157   C167    1.420   .     A
C157   C197    1.520   .     S
C157   C159    1.401   .     A
C158   C204    1.520   .     S
C158   C160    1.400   .     A
C158   C168    1.420   .     A
C159   C161    1.400   .     A
C159   H173    1.084   .     S
C160   H174    1.084   .     S
C160   C162    1.401   .     A
C161   C163    1.396   .     A
C162   C164    1.396   .     A
C163   H175    1.083   .     S
C163   C165    1.387   .     A
C164   H176    1.083   .     S
C164   C166    1.387   .     A
C165   H177    1.084   .     S
C165   C167    1.402   .     A
C166   C168    1.402   .     A
C166   H178    1.084   .     S
C167   C378    1.467   1_545 S
C168   C377    1.467   .     S
Cu169  Cu170   2.675   .     S
Cu169  O196    1.959   .     S
Cu169  O189    1.953   .     S
Cu169  N188    2.009   .     S
Cu169  O193    1.957   .     S
Cu169  O192    1.952   .     S
Cu170  O191    1.952   .     S
Cu170  O195    1.959   .     S
Cu170  O194    1.957   .     S
Cu170  O190    1.953   .     S
Cu170  N187    2.009   .     S
H171   C15     1.087   1_655 S
C197   H202    1.108   .     S
C197   C198    1.526   .     S
C197   H203    1.112   .     S
C198   H199    1.111   .     S
C198   H410    1.108   1_545 S
C198   H411    1.110   1_545 S
H200   C408    1.108   .     S
H201   C408    1.110   .     S
C204   C205    1.526   .     S
C204   H209    1.107   .     S
C204   H210    1.112   .     S
C205   H206    1.111   .     S
C205   H417    1.108   .     S
C205   H418    1.110   .     S
H207   C415    1.108   1_545 S
H208   C415    1.110   1_545 S
C211   C231    1.456   .     S
C211   O261    1.292   .     A
C211   O259    1.291   .     A
C212   C232    1.458   .     S
C212   O262    1.293   .     A
C212   O260    1.292   .     A
C213   C221    1.411   .     A
C213   C215    1.407   .     A
C213   H249    1.081   .     S
C214   C222    1.411   .     A
C214   H250    1.081   .     S
C214   C216    1.407   .     A
C215   N257    1.364   .     A
C215   H251    1.081   .     S
C216   H252    1.081   .     S
C216   N258    1.364   .     A
C217   H253    1.081   .     S
C217   N257    1.364   .     A
C217   C219    1.407   .     A
C218   N258    1.364   .     A
C218   H254    1.081   .     S
C218   C220    1.407   .     A
C219   H255    1.081   .     S
C219   C221    1.411   .     A
C220   C222    1.411   .     A
C220   H256    1.081   .     S
C221   C642    1.517   1_554 S
C222   C641    1.517   .     S
C223   O263    1.285   .     A
C223   C225    1.434   .     S
C223   O265    1.287   .     A
C224   O266    1.287   .     A
C224   C226    1.434   .     S
C224   O264    1.285   .     A
C225   C366    1.335   1_455 S
C225   H381    1.087   1_455 S
C226   C295    1.335   .     S
C226   H312    1.087   .     S
C227   C237    1.420   .     A
C227   C267    1.520   .     S
C227   C229    1.401   .     A
C228   C274    1.520   .     S
C228   C230    1.400   .     A
C228   C238    1.420   .     A
C229   C231    1.400   .     A
C229   H243    1.084   .     S
C230   H244    1.084   .     S
C230   C232    1.401   .     A
C231   C233    1.396   .     A
C232   C234    1.396   .     A
C233   H245    1.083   .     S
C233   C235    1.387   .     A
C234   H246    1.083   .     S
C234   C236    1.387   .     A
C235   H247    1.084   .     S
C235   C237    1.402   .     A
C236   C238    1.402   .     A
C236   H248    1.084   .     S
C238   C27     1.467   1_565 S
Cu239  Cu240   2.675   .     S
Cu239  O266    1.959   .     S
Cu239  O259    1.953   .     S
Cu239  N258    2.009   .     S
Cu239  O263    1.957   .     S
Cu239  O262    1.952   .     S
Cu240  O261    1.952   .     S
Cu240  O265    1.959   .     S
Cu240  O264    1.957   .     S
Cu240  O260    1.953   .     S
Cu240  N257    2.009   .     S
H241   C295    1.087   .     S
H242   C366    1.087   1_455 S
C267   H272    1.108   .     S
C267   C268    1.526   .     S
C267   H273    1.112   .     S
C268   H269    1.111   .     S
H270   C58     1.108   1_565 S
H271   C58     1.110   1_565 S
C274   C275    1.526   .     S
C274   H279    1.107   .     S
C274   H280    1.112   .     S
C275   H276    1.111   .     S
C275   H67     1.108   1_565 S
C275   H68     1.110   1_565 S
C281   C301    1.456   .     S
C281   O331    1.292   .     A
C281   O329    1.291   .     A
C282   C302    1.458   .     S
C282   O332    1.293   .     A
C282   O330    1.292   .     A
C283   C291    1.411   .     A
C283   C285    1.407   .     A
C283   H319    1.081   .     S
C284   C292    1.411   .     A
C284   H320    1.081   .     S
C284   C286    1.407   .     A
C285   N327    1.364   .     A
C285   H321    1.081   .     S
C286   H322    1.081   .     S
C286   N328    1.364   .     A
C287   H323    1.081   .     S
C287   N327    1.364   .     A
C287   C289    1.407   .     A
C288   N328    1.364   .     A
C288   H324    1.081   .     S
C288   C290    1.407   .     A
C289   H325    1.081   .     S
C289   C291    1.411   .     A
C290   C292    1.411   .     A
C290   H326    1.081   .     S
C291   C712    1.517   1_554 S
C292   C711    1.517   .     S
C293   O333    1.285   .     A
C293   C295    1.434   .     S
C293   O335    1.287   .     A
C294   O336    1.287   .     A
C294   C296    1.434   .     S
C294   O334    1.285   .     A
C296   C365    1.335   .     S
C296   H382    1.087   .     S
C297   C307    1.420   .     A
C297   C337    1.520   .     S
C297   C299    1.401   .     A
C298   C344    1.520   .     S
C298   C300    1.400   .     A
C298   C308    1.420   .     A
C299   C301    1.400   .     A
C299   H313    1.084   .     S
C300   H314    1.084   .     S
C300   C302    1.401   .     A
C301   C303    1.396   .     A
C302   C304    1.396   .     A
C303   H315    1.083   .     S
C303   C305    1.387   .     A
C304   H316    1.083   .     S
C304   C306    1.387   .     A
C305   H317    1.084   .     S
C305   C307    1.402   .     A
C306   C308    1.402   .     A
C306   H318    1.084   .     S
C308   C97     1.467   1_565 S
Cu309  Cu310   2.675   .     S
Cu309  O336    1.959   .     S
Cu309  O329    1.953   .     S
Cu309  N328    2.009   .     S
Cu309  O333    1.957   .     S
Cu309  O332    1.952   .     S
Cu310  O331    1.952   .     S
Cu310  O335    1.959   .     S
Cu310  O334    1.957   .     S
Cu310  O330    1.953   .     S
Cu310  N327    2.009   .     S
H311   C365    1.087   .     S
C337   H342    1.108   .     S
C337   C338    1.526   .     S
C337   H343    1.112   .     S
C338   H339    1.111   .     S
H340   C128    1.108   1_565 S
H341   C128    1.110   1_565 S
C344   C345    1.526   .     S
C344   H349    1.107   .     S
C344   H350    1.112   .     S
C345   H346    1.111   .     S
C345   H137    1.108   1_565 S
C345   H138    1.110   1_565 S
C351   C371    1.456   .     S
C351   O401    1.292   .     A
C351   O399    1.291   .     A
C352   C372    1.458   .     S
C352   O402    1.293   .     A
C352   O400    1.292   .     A
C353   C361    1.411   .     A
C353   C355    1.407   .     A
C353   H389    1.081   .     S
C354   C362    1.411   .     A
C354   H390    1.081   .     S
C354   C356    1.407   .     A
C355   N397    1.364   .     A
C355   H391    1.081   .     S
C356   H392    1.081   .     S
C356   N398    1.364   .     A
C357   H393    1.081   .     S
C357   N397    1.364   .     A
C357   C359    1.407   .     A
C358   N398    1.364   .     A
C358   H394    1.081   .     S
C358   C360    1.407   .     A
C359   H395    1.081   .     S
C359   C361    1.411   .     A
C360   C362    1.411   .     A
C360   H396    1.081   .     S
C361   C782    1.517   1_554 S
C362   C781    1.517   .     S
C363   O403    1.285   .     A
C363   C365    1.434   .     S
C363   O405    1.287   .     A
C364   O406    1.287   .     A
C364   C366    1.434   .     S
C364   O404    1.285   .     A
C366   C225    1.335   1_655 S
C366   H242    1.087   1_655 S
C367   C377    1.420   .     A
C367   C407    1.520   .     S
C367   C369    1.401   .     A
C368   C414    1.520   .     S
C368   C370    1.400   .     A
C368   C378    1.420   .     A
C369   C371    1.400   .     A
C369   H383    1.084   .     S
C370   H384    1.084   .     S
C370   C372    1.401   .     A
C371   C373    1.396   .     A
C372   C374    1.396   .     A
C373   H385    1.083   .     S
C373   C375    1.387   .     A
C374   H386    1.083   .     S
C374   C376    1.387   .     A
C375   H387    1.084   .     S
C375   C377    1.402   .     A
C376   C378    1.402   .     A
C376   H388    1.084   .     S
C378   C167    1.467   1_565 S
Cu379  Cu380   2.675   .     S
Cu379  O406    1.959   .     S
Cu379  O399    1.953   .     S
Cu379  N398    2.009   .     S
Cu379  O403    1.957   .     S
Cu379  O402    1.952   .     S
Cu380  O401    1.952   .     S
Cu380  O405    1.959   .     S
Cu380  O404    1.957   .     S
Cu380  O400    1.953   .     S
Cu380  N397    2.009   .     S
H381   C225    1.087   1_655 S
C407   H412    1.108   .     S
C407   C408    1.526   .     S
C407   H413    1.112   .     S
C408   H409    1.111   .     S
H410   C198    1.108   1_565 S
H411   C198    1.110   1_565 S
C414   C415    1.526   .     S
C414   H419    1.107   .     S
C414   H420    1.112   .     S
C415   H416    1.111   .     S
C415   H207    1.108   1_565 S
C415   H208    1.110   1_565 S
C421   C441    1.456   .     S
C421   O471    1.292   .     A
C421   O469    1.291   .     A
C422   C442    1.458   .     S
C422   O472    1.293   .     A
C422   O470    1.292   .     A
C423   C431    1.411   .     A
C423   C425    1.407   .     A
C423   H459    1.081   .     S
C424   C432    1.411   .     A
C424   H460    1.081   .     S
C424   C426    1.407   .     A
C425   N467    1.364   .     A
C425   H461    1.081   .     S
C426   H462    1.081   .     S
C426   N468    1.364   .     A
C427   H463    1.081   .     S
C427   N467    1.364   .     A
C427   C429    1.407   .     A
C428   N468    1.364   .     A
C428   H464    1.081   .     S
C428   C430    1.407   .     A
C429   H465    1.081   .     S
C429   C431    1.411   .     A
C430   C432    1.411   .     A
C430   H466    1.081   .     S
C432   C11     1.517   1_556 S
C433   O473    1.285   .     A
C433   C435    1.434   .     S
C433   O475    1.287   .     A
C434   O476    1.287   .     A
C434   C436    1.434   .     S
C434   O474    1.285   .     A
C435   C576    1.335   1_455 S
C435   H591    1.087   1_455 S
C436   C505    1.335   .     S
C436   H522    1.087   .     S
C437   C447    1.420   .     A
C437   C477    1.520   .     S
C437   C439    1.401   .     A
C438   C484    1.520   .     S
C438   C440    1.400   .     A
C438   C448    1.420   .     A
C439   C441    1.400   .     A
C439   H453    1.084   .     S
C440   H454    1.084   .     S
C440   C442    1.401   .     A
C441   C443    1.396   .     A
C442   C444    1.396   .     A
C443   H455    1.083   .     S
C443   C445    1.387   .     A
C444   H456    1.083   .     S
C444   C446    1.387   .     A
C445   H457    1.084   .     S
C445   C447    1.402   .     A
C446   C448    1.402   .     A
C446   H458    1.084   .     S
C447   C658    1.467   1_545 S
C448   C657    1.467   .     S
Cu449  Cu450   2.675   .     S
Cu449  O476    1.959   .     S
Cu449  O469    1.953   .     S
Cu449  N468    2.009   .     S
Cu449  O473    1.957   .     S
Cu449  O472    1.952   .     S
Cu450  O471    1.952   .     S
Cu450  O475    1.959   .     S
Cu450  O474    1.957   .     S
Cu450  O470    1.953   .     S
Cu450  N467    2.009   .     S
H451   C505    1.087   .     S
H452   C576    1.087   1_455 S
C477   H482    1.108   .     S
C477   C478    1.526   .     S
C477   H483    1.112   .     S
C478   H479    1.111   .     S
C478   H690    1.108   1_545 S
C478   H691    1.110   1_545 S
H480   C688    1.108   .     S
H481   C688    1.110   .     S
C484   C485    1.526   .     S
C484   H489    1.107   .     S
C484   H490    1.112   .     S
C485   H486    1.111   .     S
C485   H697    1.108   .     S
C485   H698    1.110   .     S
H487   C695    1.108   1_545 S
H488   C695    1.110   1_545 S
C491   C511    1.456   .     S
C491   O541    1.292   .     A
C491   O539    1.291   .     A
C492   C512    1.458   .     S
C492   O542    1.293   .     A
C492   O540    1.292   .     A
C493   C501    1.411   .     A
C493   C495    1.407   .     A
C493   H529    1.081   .     S
C494   C502    1.411   .     A
C494   H530    1.081   .     S
C494   C496    1.407   .     A
C495   N537    1.364   .     A
C495   H531    1.081   .     S
C496   H532    1.081   .     S
C496   N538    1.364   .     A
C497   H533    1.081   .     S
C497   N537    1.364   .     A
C497   C499    1.407   .     A
C498   N538    1.364   .     A
C498   H534    1.081   .     S
C498   C500    1.407   .     A
C499   H535    1.081   .     S
C499   C501    1.411   .     A
C500   C502    1.411   .     A
C500   H536    1.081   .     S
C502   C81     1.517   1_556 S
C503   O543    1.285   .     A
C503   C505    1.434   .     S
C503   O545    1.287   .     A
C504   O546    1.287   .     A
C504   C506    1.434   .     S
C504   O544    1.285   .     A
C506   C575    1.335   .     S
C506   H592    1.087   .     S
C507   C517    1.420   .     A
C507   C547    1.520   .     S
C507   C509    1.401   .     A
C508   C554    1.520   .     S
C508   C510    1.400   .     A
C508   C518    1.420   .     A
C509   C511    1.400   .     A
C509   H523    1.084   .     S
C510   H524    1.084   .     S
C510   C512    1.401   .     A
C511   C513    1.396   .     A
C512   C514    1.396   .     A
C513   H525    1.083   .     S
C513   C515    1.387   .     A
C514   H526    1.083   .     S
C514   C516    1.387   .     A
C515   H527    1.084   .     S
C515   C517    1.402   .     A
C516   C518    1.402   .     A
C516   H528    1.084   .     S
C517   C728    1.467   1_545 S
C518   C727    1.467   .     S
Cu519  Cu520   2.675   .     S
Cu519  O546    1.959   .     S
Cu519  O539    1.953   .     S
Cu519  N538    2.009   .     S
Cu519  O543    1.957   .     S
Cu519  O542    1.952   .     S
Cu520  O541    1.952   .     S
Cu520  O545    1.959   .     S
Cu520  O544    1.957   .     S
Cu520  O540    1.953   .     S
Cu520  N537    2.009   .     S
H521   C575    1.087   .     S
C547   H552    1.108   .     S
C547   C548    1.526   .     S
C547   H553    1.112   .     S
C548   H549    1.111   .     S
C548   H760    1.108   1_545 S
C548   H761    1.110   1_545 S
H550   C758    1.108   .     S
H551   C758    1.110   .     S
C554   C555    1.526   .     S
C554   H559    1.107   .     S
C554   H560    1.112   .     S
C555   H556    1.111   .     S
C555   H767    1.108   .     S
C555   H768    1.110   .     S
H557   C765    1.108   1_545 S
H558   C765    1.110   1_545 S
C561   C581    1.456   .     S
C561   O611    1.292   .     A
C561   O609    1.291   .     A
C562   C582    1.458   .     S
C562   O612    1.293   .     A
C562   O610    1.292   .     A
C563   C571    1.411   .     A
C563   C565    1.407   .     A
C563   H599    1.081   .     S
C564   C572    1.411   .     A
C564   H600    1.081   .     S
C564   C566    1.407   .     A
C565   N607    1.364   .     A
C565   H601    1.081   .     S
C566   H602    1.081   .     S
C566   N608    1.364   .     A
C567   H603    1.081   .     S
C567   N607    1.364   .     A
C567   C569    1.407   .     A
C568   N608    1.364   .     A
C568   H604    1.081   .     S
C568   C570    1.407   .     A
C569   H605    1.081   .     S
C569   C571    1.411   .     A
C570   C572    1.411   .     A
C570   H606    1.081   .     S
C572   C151    1.517   1_556 S
C573   O613    1.285   .     A
C573   C575    1.434   .     S
C573   O615    1.287   .     A
C574   O616    1.287   .     A
C574   C576    1.434   .     S
C574   O614    1.285   .     A
C576   C435    1.335   1_655 S
C576   H452    1.087   1_655 S
C577   C587    1.420   .     A
C577   C617    1.520   .     S
C577   C579    1.401   .     A
C578   C624    1.520   .     S
C578   C580    1.400   .     A
C578   C588    1.420   .     A
C579   C581    1.400   .     A
C579   H593    1.084   .     S
C580   H594    1.084   .     S
C580   C582    1.401   .     A
C581   C583    1.396   .     A
C582   C584    1.396   .     A
C583   H595    1.083   .     S
C583   C585    1.387   .     A
C584   H596    1.083   .     S
C584   C586    1.387   .     A
C585   H597    1.084   .     S
C585   C587    1.402   .     A
C586   C588    1.402   .     A
C586   H598    1.084   .     S
C587   C798    1.467   1_545 S
C588   C797    1.467   .     S
Cu589  Cu590   2.675   .     S
Cu589  O616    1.959   .     S
Cu589  O609    1.953   .     S
Cu589  N608    2.009   .     S
Cu589  O613    1.957   .     S
Cu589  O612    1.952   .     S
Cu590  O611    1.952   .     S
Cu590  O615    1.959   .     S
Cu590  O614    1.957   .     S
Cu590  O610    1.953   .     S
Cu590  N607    2.009   .     S
H591   C435    1.087   1_655 S
C617   H622    1.108   .     S
C617   C618    1.526   .     S
C617   H623    1.112   .     S
C618   H619    1.111   .     S
C618   H830    1.108   1_545 S
C618   H831    1.110   1_545 S
H620   C828    1.108   .     S
H621   C828    1.110   .     S
C624   C625    1.526   .     S
C624   H629    1.107   .     S
C624   H630    1.112   .     S
C625   H626    1.111   .     S
C625   H837    1.108   .     S
C625   H838    1.110   .     S
H627   C835    1.108   1_545 S
H628   C835    1.110   1_545 S
C631   C651    1.456   .     S
C631   O681    1.292   .     A
C631   O679    1.291   .     A
C632   C652    1.458   .     S
C632   O682    1.293   .     A
C632   O680    1.292   .     A
C633   C641    1.411   .     A
C633   C635    1.407   .     A
C633   H669    1.081   .     S
C634   C642    1.411   .     A
C634   H670    1.081   .     S
C634   C636    1.407   .     A
C635   N677    1.364   .     A
C635   H671    1.081   .     S
C636   H672    1.081   .     S
C636   N678    1.364   .     A
C637   H673    1.081   .     S
C637   N677    1.364   .     A
C637   C639    1.407   .     A
C638   N678    1.364   .     A
C638   H674    1.081   .     S
C638   C640    1.407   .     A
C639   H675    1.081   .     S
C639   C641    1.411   .     A
C640   C642    1.411   .     A
C640   H676    1.081   .     S
C642   C221    1.517   1_556 S
C643   O683    1.285   .     A
C643   C645    1.434   .     S
C643   O685    1.287   .     A
C644   O686    1.287   .     A
C644   C646    1.434   .     S
C644   O684    1.285   .     A
C645   C786    1.335   1_455 S
C645   H801    1.087   1_455 S
C646   C715    1.335   .     S
C646   H732    1.087   .     S
C647   C657    1.420   .     A
C647   C687    1.520   .     S
C647   C649    1.401   .     A
C648   C694    1.520   .     S
C648   C650    1.400   .     A
C648   C658    1.420   .     A
C649   C651    1.400   .     A
C649   H663    1.084   .     S
C650   H664    1.084   .     S
C650   C652    1.401   .     A
C651   C653    1.396   .     A
C652   C654    1.396   .     A
C653   H665    1.083   .     S
C653   C655    1.387   .     A
C654   H666    1.083   .     S
C654   C656    1.387   .     A
C655   H667    1.084   .     S
C655   C657    1.402   .     A
C656   C658    1.402   .     A
C656   H668    1.084   .     S
C658   C447    1.467   1_565 S
Cu659  Cu660   2.675   .     S
Cu659  O686    1.959   .     S
Cu659  O679    1.953   .     S
Cu659  N678    2.009   .     S
Cu659  O683    1.957   .     S
Cu659  O682    1.952   .     S
Cu660  O681    1.952   .     S
Cu660  O685    1.959   .     S
Cu660  O684    1.957   .     S
Cu660  O680    1.953   .     S
Cu660  N677    2.009   .     S
H661   C715    1.087   .     S
H662   C786    1.087   1_455 S
C687   H692    1.108   .     S
C687   C688    1.526   .     S
C687   H693    1.112   .     S
C688   H689    1.111   .     S
H690   C478    1.108   1_565 S
H691   C478    1.110   1_565 S
C694   C695    1.526   .     S
C694   H699    1.107   .     S
C694   H700    1.112   .     S
C695   H696    1.111   .     S
C695   H487    1.108   1_565 S
C695   H488    1.110   1_565 S
C701   C721    1.456   .     S
C701   O751    1.292   .     A
C701   O749    1.291   .     A
C702   C722    1.458   .     S
C702   O752    1.293   .     A
C702   O750    1.292   .     A
C703   C711    1.411   .     A
C703   C705    1.407   .     A
C703   H739    1.081   .     S
C704   C712    1.411   .     A
C704   H740    1.081   .     S
C704   C706    1.407   .     A
C705   N747    1.364   .     A
C705   H741    1.081   .     S
C706   H742    1.081   .     S
C706   N748    1.364   .     A
C707   H743    1.081   .     S
C707   N747    1.364   .     A
C707   C709    1.407   .     A
C708   N748    1.364   .     A
C708   H744    1.081   .     S
C708   C710    1.407   .     A
C709   H745    1.081   .     S
C709   C711    1.411   .     A
C710   C712    1.411   .     A
C710   H746    1.081   .     S
C712   C291    1.517   1_556 S
C713   O753    1.285   .     A
C713   C715    1.434   .     S
C713   O755    1.287   .     A
C714   O756    1.287   .     A
C714   C716    1.434   .     S
C714   O754    1.285   .     A
C716   C785    1.335   .     S
C716   H802    1.087   .     S
C717   C727    1.420   .     A
C717   C757    1.520   .     S
C717   C719    1.401   .     A
C718   C764    1.520   .     S
C718   C720    1.400   .     A
C718   C728    1.420   .     A
C719   C721    1.400   .     A
C719   H733    1.084   .     S
C720   H734    1.084   .     S
C720   C722    1.401   .     A
C721   C723    1.396   .     A
C722   C724    1.396   .     A
C723   H735    1.083   .     S
C723   C725    1.387   .     A
C724   H736    1.083   .     S
C724   C726    1.387   .     A
C725   H737    1.084   .     S
C725   C727    1.402   .     A
C726   C728    1.402   .     A
C726   H738    1.084   .     S
C728   C517    1.467   1_565 S
Cu729  Cu730   2.675   .     S
Cu729  O756    1.959   .     S
Cu729  O749    1.953   .     S
Cu729  N748    2.009   .     S
Cu729  O753    1.957   .     S
Cu729  O752    1.952   .     S
Cu730  O751    1.952   .     S
Cu730  O755    1.959   .     S
Cu730  O754    1.957   .     S
Cu730  O750    1.953   .     S
Cu730  N747    2.009   .     S
H731   C785    1.087   .     S
C757   H762    1.108   .     S
C757   C758    1.526   .     S
C757   H763    1.112   .     S
C758   H759    1.111   .     S
H760   C548    1.108   1_565 S
H761   C548    1.110   1_565 S
C764   C765    1.526   .     S
C764   H769    1.107   .     S
C764   H770    1.112   .     S
C765   H766    1.111   .     S
C765   H557    1.108   1_565 S
C765   H558    1.110   1_565 S
C771   C791    1.456   .     S
C771   O821    1.292   .     A
C771   O819    1.291   .     A
C772   C792    1.458   .     S
C772   O822    1.293   .     A
C772   O820    1.292   .     A
C773   C781    1.411   .     A
C773   C775    1.407   .     A
C773   H809    1.081   .     S
C774   C782    1.411   .     A
C774   H810    1.081   .     S
C774   C776    1.407   .     A
C775   N817    1.364   .     A
C775   H811    1.081   .     S
C776   H812    1.081   .     S
C776   N818    1.364   .     A
C777   H813    1.081   .     S
C777   N817    1.364   .     A
C777   C779    1.407   .     A
C778   N818    1.364   .     A
C778   H814    1.081   .     S
C778   C780    1.407   .     A
C779   H815    1.081   .     S
C779   C781    1.411   .     A
C780   C782    1.411   .     A
C780   H816    1.081   .     S
C782   C361    1.517   1_556 S
C783   O823    1.285   .     A
C783   C785    1.434   .     S
C783   O825    1.287   .     A
C784   O826    1.287   .     A
C784   C786    1.434   .     S
C784   O824    1.285   .     A
C786   C645    1.335   1_655 S
C786   H662    1.087   1_655 S
C787   C797    1.420   .     A
C787   C827    1.520   .     S
C787   C789    1.401   .     A
C788   C834    1.520   .     S
C788   C790    1.400   .     A
C788   C798    1.420   .     A
C789   C791    1.400   .     A
C789   H803    1.084   .     S
C790   H804    1.084   .     S
C790   C792    1.401   .     A
C791   C793    1.396   .     A
C792   C794    1.396   .     A
C793   H805    1.083   .     S
C793   C795    1.387   .     A
C794   H806    1.083   .     S
C794   C796    1.387   .     A
C795   H807    1.084   .     S
C795   C797    1.402   .     A
C796   C798    1.402   .     A
C796   H808    1.084   .     S
C798   C587    1.467   1_565 S
Cu799  Cu800   2.675   .     S
Cu799  O826    1.959   .     S
Cu799  O819    1.953   .     S
Cu799  N818    2.009   .     S
Cu799  O823    1.957   .     S
Cu799  O822    1.952   .     S
Cu800  O821    1.952   .     S
Cu800  O825    1.959   .     S
Cu800  O824    1.957   .     S
Cu800  O820    1.953   .     S
Cu800  N817    2.009   .     S
H801   C645    1.087   1_655 S
C827   H832    1.108   .     S
C827   C828    1.526   .     S
C827   H833    1.112   .     S
C828   H829    1.111   .     S
H830   C618    1.108   1_565 S
H831   C618    1.110   1_565 S
C834   C835    1.526   .     S
C834   H839    1.107   .     S
C834   H840    1.112   .     S
C835   H836    1.111   .     S
C835   H627    1.108   1_565 S
C835   H628    1.110   1_565 S
