data_str_m2_o2_o5_pcu_sym.14
_audit_creation_date              2020-01-03
_audit_creation_method            'Materials Studio'
_symmetry_space_group_name_H-M    'P1'
_symmetry_Int_Tables_number       1
_symmetry_cell_setting            triclinic
loop_
_symmetry_equiv_pos_as_xyz
  x,y,z
_cell_length_a                    30.5326
_cell_length_b                    27.7057
_cell_length_c                    27.2674
_cell_angle_alpha                 89.6584
_cell_angle_beta                  90.0943
_cell_angle_gamma                 89.9949
loop_
_atom_site_label
_atom_site_type_symbol
_atom_site_fract_x
_atom_site_fract_y
_atom_site_fract_z
_atom_site_U_iso_or_equiv
_atom_site_adp_type
_atom_site_occupancy
C1     C     0.16488   0.25004   0.16712   0.00000  Uiso   1.00
C2     C     0.26630   0.44641   0.20649   0.00000  Uiso   1.00
C3     C     0.24999   0.25009   0.07350   0.00000  Uiso   1.00
C4     C     0.24999   0.24991   0.25984   0.00000  Uiso   1.00
C5     C     0.24720   0.02730   0.16663   0.00000  Uiso   1.00
C6     C     0.24715   0.47265   0.16723   0.00000  Uiso   1.00
C7     C     0.24998   0.25012   0.02183   0.00000  Uiso   1.00
C8     C     0.24998   0.24988   0.31150   0.00000  Uiso   1.00
C9     C     0.04750   0.29381   0.16234   0.00000  Uiso   1.00
C10    C     0.45299   0.21258   0.14923   0.00000  Uiso   1.00
C11    C     0.45102   0.28803   0.19406   0.00000  Uiso   1.00
C12    C     0.33509   0.25002   0.16683   0.00000  Uiso   1.00
C13    C     0.04791   0.20846   0.18380   0.00000  Uiso   1.00
C14    C     0.09322   0.29429   0.16598   0.00000  Uiso   1.00
C15    C     0.40750   0.20882   0.15527   0.00000  Uiso   1.00
C16    C     0.40639   0.29164   0.18336   0.00000  Uiso   1.00
C17    C     0.09300   0.20689   0.17530   0.00000  Uiso   1.00
C18    C     0.11656   0.25033   0.16902   0.00000  Uiso   1.00
C19    C     0.38335   0.25019   0.16819   0.00000  Uiso   1.00
C20    C     0.02421   0.25108   0.17331   0.00000  Uiso   1.00
C21    C     0.47562   0.25040   0.17272   0.00000  Uiso   1.00
C22    C     0.02494   0.34687   0.10295   0.00000  Uiso   1.00
C23    C     0.23257   0.10497   0.20559   0.00000  Uiso   1.00
C24    C     0.02339   0.40126   0.09517   0.00000  Uiso   1.00
C25    C     0.46872   0.18092   0.07376   0.00000  Uiso   1.00
C26    C     0.00438   0.21220   0.05080   0.00000  Uiso   1.00
C27    C     0.48116   0.30545   0.26815   0.00000  Uiso   1.00
C28    C     0.49413   0.34679   0.30141   0.00000  Uiso   1.00
C29    C     0.02027   0.16953   0.25065   0.00000  Uiso   1.00
C30    C     0.01457   0.11883   0.27135   0.00000  Uiso   1.00
C31    C     0.11415   0.35743   0.21286   0.00000  Uiso   1.00
C32    C     0.13085   0.40905   0.21184   0.00000  Uiso   1.00
C33    C     0.39416   0.13693   0.19133   0.00000  Uiso   1.00
C34    C     0.23128   0.39511   0.12852   0.00000  Uiso   1.00
C35    C     0.37805   0.08575   0.18383   0.00000  Uiso   1.00
C36    C     0.39392   0.36163   0.14336   0.00000  Uiso   1.00
C37    C     0.37846   0.41341   0.14794   0.00000  Uiso   1.00
C38    C     0.10829   0.14145   0.12919   0.00000  Uiso   1.00
C39    C     0.12772   0.09099   0.12934   0.00000  Uiso   1.00
C40    C     0.16649   0.03336   0.24410   0.00000  Uiso   1.00
C41    C     0.16335   0.46619   0.09360   0.00000  Uiso   1.00
C42    C     0.32564   0.02776   0.08605   0.00000  Uiso   1.00
C43    C     0.32783   0.47128   0.24597   0.00000  Uiso   1.00
C44    C     0.26556   0.10442   0.12739   0.00000  Uiso   1.00
C45    C     0.26676   0.39542   0.20548   0.00000  Uiso   1.00
C46    C     0.23001   0.05408   0.20622   0.00000  Uiso   1.00
C47    C     0.22856   0.44600   0.12826   0.00000  Uiso   1.00
C48    C     0.26510   0.05342   0.12661   0.00000  Uiso   1.00
Cu49   Cu    0.25000   0.29822   0.16667   0.00000  Uiso   1.00
Cu50   Cu    0.25000   0.20179   0.16667   0.00000  Uiso   1.00
H51    H     0.21971   0.12494   0.23629   0.00000  Uiso   1.00
H52    H     0.43579   0.19529   0.06347   0.00000  Uiso   1.00
H53    H     0.47091   0.14432   0.05761   0.00000  Uiso   1.00
H54    H     0.03713   0.19623   0.05801   0.00000  Uiso   1.00
H55    H     0.49911   0.21491   0.01067   0.00000  Uiso   1.00
H56    H     0.00326   0.24903   0.06623   0.00000  Uiso   1.00
H57    H     0.00960   0.28056   0.26550   0.00000  Uiso   1.00
H58    H     0.45307   0.28604   0.28544   0.00000  Uiso   1.00
H59    H     0.46519   0.36973   0.30936   0.00000  Uiso   1.00
H60    H     0.00728   0.33185   0.00281   0.00000  Uiso   1.00
H61    H     0.01985   0.36923   0.28383   0.00000  Uiso   1.00
H62    H     0.21741   0.37517   0.09829   0.00000  Uiso   1.00
H63    H     0.48988   0.19042   0.25777   0.00000  Uiso   1.00
H64    H     0.04826   0.18658   0.27052   0.00000  Uiso   1.00
H65    H     0.04469   0.09734   0.26482   0.00000  Uiso   1.00
H66    H     0.00855   0.12057   0.31143   0.00000  Uiso   1.00
H67    H     0.48638   0.10065   0.25353   0.00000  Uiso   1.00
H68    H     0.13572   0.33570   0.23748   0.00000  Uiso   1.00
H69    H     0.08050   0.35816   0.22854   0.00000  Uiso   1.00
H70    H     0.10990   0.43146   0.18739   0.00000  Uiso   1.00
H71    H     0.12991   0.42429   0.24939   0.00000  Uiso   1.00
H72    H     0.16508   0.40999   0.19854   0.00000  Uiso   1.00
H73    H     0.27877   0.12393   0.09633   0.00000  Uiso   1.00
H74    H     0.37588   0.15289   0.22264   0.00000  Uiso   1.00
H75    H     0.42952   0.13453   0.20120   0.00000  Uiso   1.00
H76    H     0.39497   0.06939   0.15198   0.00000  Uiso   1.00
H77    H     0.38530   0.06381   0.21706   0.00000  Uiso   1.00
H78    H     0.34221   0.08580   0.17770   0.00000  Uiso   1.00
H79    H     0.37594   0.34455   0.11240   0.00000  Uiso   1.00
H80    H     0.42947   0.36297   0.13428   0.00000  Uiso   1.00
H81    H     0.39551   0.43110   0.17899   0.00000  Uiso   1.00
H82    H     0.38611   0.43353   0.11367   0.00000  Uiso   1.00
H83    H     0.34259   0.41428   0.15370   0.00000  Uiso   1.00
H84    H     0.28085   0.37574   0.23600   0.00000  Uiso   1.00
H85    H     0.12528   0.16328   0.10052   0.00000  Uiso   1.00
H86    H     0.07298   0.13807   0.11933   0.00000  Uiso   1.00
H87    H     0.11081   0.06823   0.15708   0.00000  Uiso   1.00
H88    H     0.12338   0.07442   0.09267   0.00000  Uiso   1.00
H89    H     0.16318   0.09258   0.13782   0.00000  Uiso   1.00
H90    H     0.15399   0.01481   0.21088   0.00000  Uiso   1.00
H91    H     0.15467   0.07134   0.24509   0.00000  Uiso   1.00
H92    H     0.15268   0.01442   0.27652   0.00000  Uiso   1.00
H93    H     0.15196   0.48385   0.12778   0.00000  Uiso   1.00
H94    H     0.15192   0.42808   0.09236   0.00000  Uiso   1.00
H95    H     0.49465   0.33088   0.08739   0.00000  Uiso   1.00
H96    H     0.14803   0.48557   0.06227   0.00000  Uiso   1.00
H97    H     0.33798   0.00989   0.12000   0.00000  Uiso   1.00
H98    H     0.33994   0.06446   0.08182   0.00000  Uiso   1.00
H99    H     0.33685   0.00591   0.05451   0.00000  Uiso   1.00
H100   H     0.33976   0.48883   0.21172   0.00000  Uiso   1.00
H101   H     0.34180   0.43441   0.25015   0.00000  Uiso   1.00
H102   H     0.33980   0.49313   0.27720   0.00000  Uiso   1.00
H103   H     0.05394   0.33274   0.08266   0.00000  Uiso   1.00
H104   H     0.05352   0.41805   0.11031   0.00000  Uiso   1.00
H105   H     0.02130   0.40971   0.05539   0.00000  Uiso   1.00
H106   H     0.49435   0.41672   0.11386   0.00000  Uiso   1.00
N107   N     0.25000   0.12935   0.16667   0.00000  Uiso   1.00
N108   N     0.25000   0.37066   0.16667   0.00000  Uiso   1.00
O109   O     0.18573   0.29072   0.16667   0.00000  Uiso   1.00
O110   O     0.47542   0.17643   0.12495   0.00000  Uiso   1.00
O111   O     0.47002   0.32421   0.22156   0.00000  Uiso   1.00
O112   O     0.02744   0.16664   0.19963   0.00000  Uiso   1.00
O113   O     0.11457   0.33835   0.16484   0.00000  Uiso   1.00
O114   O     0.38742   0.16467   0.14815   0.00000  Uiso   1.00
O115   O     0.38606   0.33601   0.18764   0.00000  Uiso   1.00
O116   O     0.11387   0.16257   0.17591   0.00000  Uiso   1.00
O117   O     0.21252   0.03074   0.24664   0.00000  Uiso   1.00
O118   O     0.20922   0.46952   0.08894   0.00000  Uiso   1.00
O119   O     0.27957   0.02943   0.08537   0.00000  Uiso   1.00
O120   O     0.31427   0.20929   0.16666   0.00000  Uiso   1.00
O121   O     0.28177   0.47026   0.24742   0.00000  Uiso   1.00
O122   O     0.31427   0.29072   0.16666   0.00000  Uiso   1.00
O123   O     0.18573   0.20929   0.16667   0.00000  Uiso   1.00
O124   O     0.25000   0.29071   0.09613   0.00000  Uiso   1.00
O125   O     0.25000   0.20929   0.23720   0.00000  Uiso   1.00
O126   O     0.25000   0.29071   0.23720   0.00000  Uiso   1.00
O127   O     0.25000   0.20929   0.09613   0.00000  Uiso   1.00
O128   O     0.02609   0.33701   0.15372   0.00000  Uiso   1.00
C129   C     0.66488   0.25004   0.16712   0.00000  Uiso   1.00
C130   C     0.76630   0.44641   0.20649   0.00000  Uiso   1.00
C131   C     0.74999   0.25009   0.07350   0.00000  Uiso   1.00
C132   C     0.74999   0.24991   0.25984   0.00000  Uiso   1.00
C133   C     0.74720   0.02730   0.16663   0.00000  Uiso   1.00
C134   C     0.74715   0.47265   0.16723   0.00000  Uiso   1.00
C135   C     0.74998   0.25012   0.02183   0.00000  Uiso   1.00
C136   C     0.74998   0.24988   0.31150   0.00000  Uiso   1.00
C137   C     0.54750   0.29381   0.16234   0.00000  Uiso   1.00
C138   C     0.95299   0.21258   0.14923   0.00000  Uiso   1.00
C139   C     0.95102   0.28803   0.19406   0.00000  Uiso   1.00
C140   C     0.83509   0.25002   0.16683   0.00000  Uiso   1.00
C141   C     0.54791   0.20846   0.18380   0.00000  Uiso   1.00
C142   C     0.59322   0.29429   0.16598   0.00000  Uiso   1.00
C143   C     0.90750   0.20882   0.15527   0.00000  Uiso   1.00
C144   C     0.90639   0.29164   0.18336   0.00000  Uiso   1.00
C145   C     0.59300   0.20689   0.17530   0.00000  Uiso   1.00
C146   C     0.61656   0.25033   0.16902   0.00000  Uiso   1.00
C147   C     0.88335   0.25019   0.16819   0.00000  Uiso   1.00
C148   C     0.52421   0.25108   0.17331   0.00000  Uiso   1.00
C149   C     0.97562   0.25040   0.17272   0.00000  Uiso   1.00
C150   C     0.52494   0.34687   0.10295   0.00000  Uiso   1.00
C151   C     0.73257   0.10497   0.20559   0.00000  Uiso   1.00
C152   C     0.52339   0.40126   0.09517   0.00000  Uiso   1.00
C153   C     0.96872   0.18092   0.07376   0.00000  Uiso   1.00
C154   C     0.50438   0.21220   0.05080   0.00000  Uiso   1.00
C155   C     0.98116   0.30545   0.26815   0.00000  Uiso   1.00
C156   C     0.99413   0.34679   0.30141   0.00000  Uiso   1.00
C157   C     0.52027   0.16953   0.25065   0.00000  Uiso   1.00
C158   C     0.51457   0.11883   0.27135   0.00000  Uiso   1.00
C159   C     0.61415   0.35743   0.21286   0.00000  Uiso   1.00
C160   C     0.63085   0.40905   0.21184   0.00000  Uiso   1.00
C161   C     0.89416   0.13693   0.19133   0.00000  Uiso   1.00
C162   C     0.73128   0.39511   0.12852   0.00000  Uiso   1.00
C163   C     0.87805   0.08575   0.18383   0.00000  Uiso   1.00
C164   C     0.89392   0.36163   0.14336   0.00000  Uiso   1.00
C165   C     0.87846   0.41341   0.14794   0.00000  Uiso   1.00
C166   C     0.60829   0.14145   0.12919   0.00000  Uiso   1.00
C167   C     0.62772   0.09099   0.12934   0.00000  Uiso   1.00
C168   C     0.66649   0.03336   0.24410   0.00000  Uiso   1.00
C169   C     0.66335   0.46619   0.09360   0.00000  Uiso   1.00
C170   C     0.82564   0.02776   0.08605   0.00000  Uiso   1.00
C171   C     0.82783   0.47128   0.24597   0.00000  Uiso   1.00
C172   C     0.76556   0.10442   0.12739   0.00000  Uiso   1.00
C173   C     0.76676   0.39542   0.20548   0.00000  Uiso   1.00
C174   C     0.73001   0.05408   0.20622   0.00000  Uiso   1.00
C175   C     0.72856   0.44600   0.12826   0.00000  Uiso   1.00
C176   C     0.76510   0.05342   0.12661   0.00000  Uiso   1.00
Cu177  Cu    0.75000   0.29822   0.16667   0.00000  Uiso   1.00
Cu178  Cu    0.75000   0.20179   0.16667   0.00000  Uiso   1.00
H179   H     0.71971   0.12494   0.23629   0.00000  Uiso   1.00
H180   H     0.93579   0.19529   0.06347   0.00000  Uiso   1.00
H181   H     0.97091   0.14432   0.05761   0.00000  Uiso   1.00
H182   H     0.53713   0.19623   0.05801   0.00000  Uiso   1.00
H183   H     0.99911   0.21491   0.01067   0.00000  Uiso   1.00
H184   H     0.50326   0.24903   0.06623   0.00000  Uiso   1.00
H185   H     0.50960   0.28056   0.26550   0.00000  Uiso   1.00
H186   H     0.95307   0.28604   0.28544   0.00000  Uiso   1.00
H187   H     0.96519   0.36973   0.30936   0.00000  Uiso   1.00
H188   H     0.50728   0.33185   0.00281   0.00000  Uiso   1.00
H189   H     0.51985   0.36923   0.28383   0.00000  Uiso   1.00
H190   H     0.71741   0.37517   0.09829   0.00000  Uiso   1.00
H191   H     0.98988   0.19042   0.25777   0.00000  Uiso   1.00
H192   H     0.54826   0.18658   0.27052   0.00000  Uiso   1.00
H193   H     0.54469   0.09734   0.26482   0.00000  Uiso   1.00
H194   H     0.50855   0.12057   0.31143   0.00000  Uiso   1.00
H195   H     0.98638   0.10065   0.25353   0.00000  Uiso   1.00
H196   H     0.63572   0.33570   0.23748   0.00000  Uiso   1.00
H197   H     0.58050   0.35816   0.22854   0.00000  Uiso   1.00
H198   H     0.60990   0.43146   0.18739   0.00000  Uiso   1.00
H199   H     0.62991   0.42429   0.24939   0.00000  Uiso   1.00
H200   H     0.66508   0.40999   0.19854   0.00000  Uiso   1.00
H201   H     0.77877   0.12393   0.09633   0.00000  Uiso   1.00
H202   H     0.87588   0.15289   0.22264   0.00000  Uiso   1.00
H203   H     0.92952   0.13453   0.20120   0.00000  Uiso   1.00
H204   H     0.89497   0.06939   0.15198   0.00000  Uiso   1.00
H205   H     0.88530   0.06381   0.21706   0.00000  Uiso   1.00
H206   H     0.84221   0.08580   0.17770   0.00000  Uiso   1.00
H207   H     0.87594   0.34455   0.11240   0.00000  Uiso   1.00
H208   H     0.92947   0.36297   0.13428   0.00000  Uiso   1.00
H209   H     0.89551   0.43110   0.17899   0.00000  Uiso   1.00
H210   H     0.88611   0.43353   0.11367   0.00000  Uiso   1.00
H211   H     0.84259   0.41428   0.15370   0.00000  Uiso   1.00
H212   H     0.78085   0.37574   0.23600   0.00000  Uiso   1.00
H213   H     0.62528   0.16328   0.10052   0.00000  Uiso   1.00
H214   H     0.57298   0.13807   0.11933   0.00000  Uiso   1.00
H215   H     0.61081   0.06823   0.15708   0.00000  Uiso   1.00
H216   H     0.62338   0.07442   0.09267   0.00000  Uiso   1.00
H217   H     0.66318   0.09258   0.13782   0.00000  Uiso   1.00
H218   H     0.65399   0.01481   0.21088   0.00000  Uiso   1.00
H219   H     0.65467   0.07134   0.24509   0.00000  Uiso   1.00
H220   H     0.65268   0.01442   0.27652   0.00000  Uiso   1.00
H221   H     0.65196   0.48385   0.12778   0.00000  Uiso   1.00
H222   H     0.65192   0.42808   0.09236   0.00000  Uiso   1.00
H223   H     0.99465   0.33088   0.08739   0.00000  Uiso   1.00
H224   H     0.64803   0.48557   0.06227   0.00000  Uiso   1.00
H225   H     0.83798   0.00989   0.12000   0.00000  Uiso   1.00
H226   H     0.83994   0.06446   0.08182   0.00000  Uiso   1.00
H227   H     0.83685   0.00591   0.05451   0.00000  Uiso   1.00
H228   H     0.83976   0.48883   0.21172   0.00000  Uiso   1.00
H229   H     0.84180   0.43441   0.25015   0.00000  Uiso   1.00
H230   H     0.83980   0.49313   0.27720   0.00000  Uiso   1.00
H231   H     0.55394   0.33274   0.08266   0.00000  Uiso   1.00
H232   H     0.55352   0.41805   0.11031   0.00000  Uiso   1.00
H233   H     0.52130   0.40971   0.05539   0.00000  Uiso   1.00
H234   H     0.99435   0.41672   0.11386   0.00000  Uiso   1.00
N235   N     0.75000   0.12935   0.16667   0.00000  Uiso   1.00
N236   N     0.75000   0.37066   0.16667   0.00000  Uiso   1.00
O237   O     0.68573   0.29072   0.16667   0.00000  Uiso   1.00
O238   O     0.97542   0.17643   0.12495   0.00000  Uiso   1.00
O239   O     0.97002   0.32421   0.22156   0.00000  Uiso   1.00
O240   O     0.52744   0.16664   0.19963   0.00000  Uiso   1.00
O241   O     0.61457   0.33835   0.16484   0.00000  Uiso   1.00
O242   O     0.88742   0.16467   0.14815   0.00000  Uiso   1.00
O243   O     0.88606   0.33601   0.18764   0.00000  Uiso   1.00
O244   O     0.61387   0.16257   0.17591   0.00000  Uiso   1.00
O245   O     0.71252   0.03074   0.24664   0.00000  Uiso   1.00
O246   O     0.70922   0.46952   0.08894   0.00000  Uiso   1.00
O247   O     0.77957   0.02943   0.08537   0.00000  Uiso   1.00
O248   O     0.81427   0.20929   0.16666   0.00000  Uiso   1.00
O249   O     0.78177   0.47026   0.24742   0.00000  Uiso   1.00
O250   O     0.81427   0.29072   0.16666   0.00000  Uiso   1.00
O251   O     0.68573   0.20929   0.16667   0.00000  Uiso   1.00
O252   O     0.75000   0.29071   0.09613   0.00000  Uiso   1.00
O253   O     0.75000   0.20929   0.23720   0.00000  Uiso   1.00
O254   O     0.75000   0.29071   0.23720   0.00000  Uiso   1.00
O255   O     0.75000   0.20929   0.09613   0.00000  Uiso   1.00
O256   O     0.52609   0.33701   0.15372   0.00000  Uiso   1.00
C257   C     0.16488   0.75004   0.16712   0.00000  Uiso   1.00
C258   C     0.26630   0.94641   0.20649   0.00000  Uiso   1.00
C259   C     0.24999   0.75009   0.07350   0.00000  Uiso   1.00
C260   C     0.24999   0.74991   0.25984   0.00000  Uiso   1.00
C261   C     0.24720   0.52730   0.16663   0.00000  Uiso   1.00
C262   C     0.24715   0.97265   0.16723   0.00000  Uiso   1.00
C263   C     0.24998   0.75012   0.02183   0.00000  Uiso   1.00
C264   C     0.24998   0.74988   0.31150   0.00000  Uiso   1.00
C265   C     0.04750   0.79381   0.16234   0.00000  Uiso   1.00
C266   C     0.45299   0.71258   0.14923   0.00000  Uiso   1.00
C267   C     0.45102   0.78803   0.19406   0.00000  Uiso   1.00
C268   C     0.33509   0.75002   0.16683   0.00000  Uiso   1.00
C269   C     0.04791   0.70846   0.18380   0.00000  Uiso   1.00
C270   C     0.09322   0.79429   0.16598   0.00000  Uiso   1.00
C271   C     0.40750   0.70882   0.15527   0.00000  Uiso   1.00
C272   C     0.40639   0.79164   0.18336   0.00000  Uiso   1.00
C273   C     0.09300   0.70689   0.17530   0.00000  Uiso   1.00
C274   C     0.11656   0.75033   0.16902   0.00000  Uiso   1.00
C275   C     0.38335   0.75019   0.16819   0.00000  Uiso   1.00
C276   C     0.02421   0.75108   0.17331   0.00000  Uiso   1.00
C277   C     0.47562   0.75040   0.17272   0.00000  Uiso   1.00
C278   C     0.02494   0.84687   0.10295   0.00000  Uiso   1.00
C279   C     0.23257   0.60497   0.20559   0.00000  Uiso   1.00
C280   C     0.02339   0.90126   0.09517   0.00000  Uiso   1.00
C281   C     0.46872   0.68092   0.07376   0.00000  Uiso   1.00
C282   C     0.00438   0.71220   0.05080   0.00000  Uiso   1.00
C283   C     0.48116   0.80545   0.26815   0.00000  Uiso   1.00
C284   C     0.49413   0.84679   0.30141   0.00000  Uiso   1.00
C285   C     0.02027   0.66953   0.25065   0.00000  Uiso   1.00
C286   C     0.01457   0.61883   0.27135   0.00000  Uiso   1.00
C287   C     0.11415   0.85743   0.21286   0.00000  Uiso   1.00
C288   C     0.13085   0.90905   0.21184   0.00000  Uiso   1.00
C289   C     0.39416   0.63693   0.19133   0.00000  Uiso   1.00
C290   C     0.23128   0.89511   0.12852   0.00000  Uiso   1.00
C291   C     0.37805   0.58575   0.18383   0.00000  Uiso   1.00
C292   C     0.39392   0.86163   0.14336   0.00000  Uiso   1.00
C293   C     0.37846   0.91341   0.14794   0.00000  Uiso   1.00
C294   C     0.10829   0.64145   0.12919   0.00000  Uiso   1.00
C295   C     0.12772   0.59099   0.12934   0.00000  Uiso   1.00
C296   C     0.16649   0.53336   0.24410   0.00000  Uiso   1.00
C297   C     0.16335   0.96619   0.09360   0.00000  Uiso   1.00
C298   C     0.32564   0.52776   0.08605   0.00000  Uiso   1.00
C299   C     0.32783   0.97128   0.24597   0.00000  Uiso   1.00
C300   C     0.26556   0.60442   0.12739   0.00000  Uiso   1.00
C301   C     0.26676   0.89542   0.20548   0.00000  Uiso   1.00
C302   C     0.23001   0.55408   0.20622   0.00000  Uiso   1.00
C303   C     0.22856   0.94600   0.12826   0.00000  Uiso   1.00
C304   C     0.26510   0.55342   0.12661   0.00000  Uiso   1.00
Cu305  Cu    0.25000   0.79822   0.16667   0.00000  Uiso   1.00
Cu306  Cu    0.25000   0.70179   0.16667   0.00000  Uiso   1.00
H307   H     0.21971   0.62494   0.23629   0.00000  Uiso   1.00
H308   H     0.43579   0.69529   0.06347   0.00000  Uiso   1.00
H309   H     0.47091   0.64432   0.05761   0.00000  Uiso   1.00
H310   H     0.03713   0.69623   0.05801   0.00000  Uiso   1.00
H311   H     0.49911   0.71491   0.01067   0.00000  Uiso   1.00
H312   H     0.00326   0.74903   0.06623   0.00000  Uiso   1.00
H313   H     0.00960   0.78056   0.26550   0.00000  Uiso   1.00
H314   H     0.45307   0.78604   0.28544   0.00000  Uiso   1.00
H315   H     0.46519   0.86973   0.30936   0.00000  Uiso   1.00
H316   H     0.00728   0.83185   0.00281   0.00000  Uiso   1.00
H317   H     0.01985   0.86923   0.28383   0.00000  Uiso   1.00
H318   H     0.21741   0.87517   0.09829   0.00000  Uiso   1.00
H319   H     0.48988   0.69042   0.25777   0.00000  Uiso   1.00
H320   H     0.04826   0.68658   0.27052   0.00000  Uiso   1.00
H321   H     0.04469   0.59734   0.26482   0.00000  Uiso   1.00
H322   H     0.00855   0.62057   0.31143   0.00000  Uiso   1.00
H323   H     0.48638   0.60065   0.25353   0.00000  Uiso   1.00
H324   H     0.13572   0.83570   0.23748   0.00000  Uiso   1.00
H325   H     0.08050   0.85816   0.22854   0.00000  Uiso   1.00
H326   H     0.10990   0.93146   0.18739   0.00000  Uiso   1.00
H327   H     0.12991   0.92429   0.24939   0.00000  Uiso   1.00
H328   H     0.16508   0.90999   0.19854   0.00000  Uiso   1.00
H329   H     0.27877   0.62393   0.09633   0.00000  Uiso   1.00
H330   H     0.37588   0.65289   0.22264   0.00000  Uiso   1.00
H331   H     0.42952   0.63453   0.20120   0.00000  Uiso   1.00
H332   H     0.39497   0.56939   0.15198   0.00000  Uiso   1.00
H333   H     0.38530   0.56381   0.21706   0.00000  Uiso   1.00
H334   H     0.34221   0.58580   0.17770   0.00000  Uiso   1.00
H335   H     0.37594   0.84455   0.11240   0.00000  Uiso   1.00
H336   H     0.42947   0.86297   0.13428   0.00000  Uiso   1.00
H337   H     0.39551   0.93110   0.17899   0.00000  Uiso   1.00
H338   H     0.38611   0.93353   0.11367   0.00000  Uiso   1.00
H339   H     0.34259   0.91428   0.15370   0.00000  Uiso   1.00
H340   H     0.28085   0.87574   0.23600   0.00000  Uiso   1.00
H341   H     0.12528   0.66328   0.10052   0.00000  Uiso   1.00
H342   H     0.07298   0.63807   0.11933   0.00000  Uiso   1.00
H343   H     0.11081   0.56823   0.15708   0.00000  Uiso   1.00
H344   H     0.12338   0.57442   0.09267   0.00000  Uiso   1.00
H345   H     0.16318   0.59258   0.13782   0.00000  Uiso   1.00
H346   H     0.15399   0.51481   0.21088   0.00000  Uiso   1.00
H347   H     0.15467   0.57134   0.24509   0.00000  Uiso   1.00
H348   H     0.15268   0.51442   0.27652   0.00000  Uiso   1.00
H349   H     0.15196   0.98385   0.12778   0.00000  Uiso   1.00
H350   H     0.15192   0.92808   0.09236   0.00000  Uiso   1.00
H351   H     0.49465   0.83088   0.08739   0.00000  Uiso   1.00
H352   H     0.14803   0.98557   0.06227   0.00000  Uiso   1.00
H353   H     0.33798   0.50989   0.12000   0.00000  Uiso   1.00
H354   H     0.33994   0.56446   0.08182   0.00000  Uiso   1.00
H355   H     0.33685   0.50591   0.05451   0.00000  Uiso   1.00
H356   H     0.33976   0.98883   0.21172   0.00000  Uiso   1.00
H357   H     0.34180   0.93441   0.25015   0.00000  Uiso   1.00
H358   H     0.33980   0.99313   0.27720   0.00000  Uiso   1.00
H359   H     0.05394   0.83274   0.08266   0.00000  Uiso   1.00
H360   H     0.05352   0.91805   0.11031   0.00000  Uiso   1.00
H361   H     0.02130   0.90971   0.05539   0.00000  Uiso   1.00
H362   H     0.49435   0.91672   0.11386   0.00000  Uiso   1.00
N363   N     0.25000   0.62935   0.16667   0.00000  Uiso   1.00
N364   N     0.25000   0.87066   0.16667   0.00000  Uiso   1.00
O365   O     0.18573   0.79072   0.16667   0.00000  Uiso   1.00
O366   O     0.47542   0.67643   0.12495   0.00000  Uiso   1.00
O367   O     0.47002   0.82421   0.22156   0.00000  Uiso   1.00
O368   O     0.02744   0.66664   0.19963   0.00000  Uiso   1.00
O369   O     0.11457   0.83835   0.16484   0.00000  Uiso   1.00
O370   O     0.38742   0.66467   0.14815   0.00000  Uiso   1.00
O371   O     0.38606   0.83601   0.18764   0.00000  Uiso   1.00
O372   O     0.11387   0.66257   0.17591   0.00000  Uiso   1.00
O373   O     0.21252   0.53074   0.24664   0.00000  Uiso   1.00
O374   O     0.20922   0.96952   0.08894   0.00000  Uiso   1.00
O375   O     0.27957   0.52943   0.08537   0.00000  Uiso   1.00
O376   O     0.31427   0.70929   0.16666   0.00000  Uiso   1.00
O377   O     0.28177   0.97026   0.24742   0.00000  Uiso   1.00
O378   O     0.31427   0.79072   0.16666   0.00000  Uiso   1.00
O379   O     0.18573   0.70929   0.16667   0.00000  Uiso   1.00
O380   O     0.25000   0.79071   0.09613   0.00000  Uiso   1.00
O381   O     0.25000   0.70929   0.23720   0.00000  Uiso   1.00
O382   O     0.25000   0.79071   0.23720   0.00000  Uiso   1.00
O383   O     0.25000   0.70929   0.09613   0.00000  Uiso   1.00
O384   O     0.02609   0.83701   0.15372   0.00000  Uiso   1.00
C385   C     0.66488   0.75004   0.16712   0.00000  Uiso   1.00
C386   C     0.76630   0.94641   0.20649   0.00000  Uiso   1.00
C387   C     0.74999   0.75009   0.07350   0.00000  Uiso   1.00
C388   C     0.74999   0.74991   0.25984   0.00000  Uiso   1.00
C389   C     0.74720   0.52730   0.16663   0.00000  Uiso   1.00
C390   C     0.74715   0.97265   0.16723   0.00000  Uiso   1.00
C391   C     0.74998   0.75012   0.02183   0.00000  Uiso   1.00
C392   C     0.74998   0.74988   0.31150   0.00000  Uiso   1.00
C393   C     0.54750   0.79381   0.16234   0.00000  Uiso   1.00
C394   C     0.95299   0.71258   0.14923   0.00000  Uiso   1.00
C395   C     0.95102   0.78803   0.19406   0.00000  Uiso   1.00
C396   C     0.83509   0.75002   0.16683   0.00000  Uiso   1.00
C397   C     0.54791   0.70846   0.18380   0.00000  Uiso   1.00
C398   C     0.59322   0.79429   0.16598   0.00000  Uiso   1.00
C399   C     0.90750   0.70882   0.15527   0.00000  Uiso   1.00
C400   C     0.90639   0.79164   0.18336   0.00000  Uiso   1.00
C401   C     0.59300   0.70689   0.17530   0.00000  Uiso   1.00
C402   C     0.61656   0.75033   0.16902   0.00000  Uiso   1.00
C403   C     0.88335   0.75019   0.16819   0.00000  Uiso   1.00
C404   C     0.52421   0.75108   0.17331   0.00000  Uiso   1.00
C405   C     0.97562   0.75040   0.17272   0.00000  Uiso   1.00
C406   C     0.52494   0.84687   0.10295   0.00000  Uiso   1.00
C407   C     0.73257   0.60497   0.20559   0.00000  Uiso   1.00
C408   C     0.52339   0.90126   0.09517   0.00000  Uiso   1.00
C409   C     0.96872   0.68092   0.07376   0.00000  Uiso   1.00
C410   C     0.50438   0.71220   0.05080   0.00000  Uiso   1.00
C411   C     0.98116   0.80545   0.26815   0.00000  Uiso   1.00
C412   C     0.99413   0.84679   0.30141   0.00000  Uiso   1.00
C413   C     0.52027   0.66953   0.25065   0.00000  Uiso   1.00
C414   C     0.51457   0.61883   0.27135   0.00000  Uiso   1.00
C415   C     0.61415   0.85743   0.21286   0.00000  Uiso   1.00
C416   C     0.63085   0.90905   0.21184   0.00000  Uiso   1.00
C417   C     0.89416   0.63693   0.19133   0.00000  Uiso   1.00
C418   C     0.73128   0.89511   0.12852   0.00000  Uiso   1.00
C419   C     0.87805   0.58575   0.18383   0.00000  Uiso   1.00
C420   C     0.89392   0.86163   0.14336   0.00000  Uiso   1.00
C421   C     0.87846   0.91341   0.14794   0.00000  Uiso   1.00
C422   C     0.60829   0.64145   0.12919   0.00000  Uiso   1.00
C423   C     0.62772   0.59099   0.12934   0.00000  Uiso   1.00
C424   C     0.66649   0.53336   0.24410   0.00000  Uiso   1.00
C425   C     0.66335   0.96619   0.09360   0.00000  Uiso   1.00
C426   C     0.82564   0.52776   0.08605   0.00000  Uiso   1.00
C427   C     0.82783   0.97128   0.24597   0.00000  Uiso   1.00
C428   C     0.76556   0.60442   0.12739   0.00000  Uiso   1.00
C429   C     0.76676   0.89542   0.20548   0.00000  Uiso   1.00
C430   C     0.73001   0.55408   0.20622   0.00000  Uiso   1.00
C431   C     0.72856   0.94600   0.12826   0.00000  Uiso   1.00
C432   C     0.76510   0.55342   0.12661   0.00000  Uiso   1.00
Cu433  Cu    0.75000   0.79822   0.16667   0.00000  Uiso   1.00
Cu434  Cu    0.75000   0.70179   0.16667   0.00000  Uiso   1.00
H435   H     0.71971   0.62494   0.23629   0.00000  Uiso   1.00
H436   H     0.93579   0.69529   0.06347   0.00000  Uiso   1.00
H437   H     0.97091   0.64432   0.05761   0.00000  Uiso   1.00
H438   H     0.53713   0.69623   0.05801   0.00000  Uiso   1.00
H439   H     0.99911   0.71491   0.01067   0.00000  Uiso   1.00
H440   H     0.50326   0.74903   0.06623   0.00000  Uiso   1.00
H441   H     0.50960   0.78056   0.26550   0.00000  Uiso   1.00
H442   H     0.95307   0.78604   0.28544   0.00000  Uiso   1.00
H443   H     0.96519   0.86973   0.30936   0.00000  Uiso   1.00
H444   H     0.50728   0.83185   0.00281   0.00000  Uiso   1.00
H445   H     0.51985   0.86923   0.28383   0.00000  Uiso   1.00
H446   H     0.71741   0.87517   0.09829   0.00000  Uiso   1.00
H447   H     0.98988   0.69042   0.25777   0.00000  Uiso   1.00
H448   H     0.54826   0.68658   0.27052   0.00000  Uiso   1.00
H449   H     0.54469   0.59734   0.26482   0.00000  Uiso   1.00
H450   H     0.50855   0.62057   0.31143   0.00000  Uiso   1.00
H451   H     0.98638   0.60065   0.25353   0.00000  Uiso   1.00
H452   H     0.63572   0.83570   0.23748   0.00000  Uiso   1.00
H453   H     0.58050   0.85816   0.22854   0.00000  Uiso   1.00
H454   H     0.60990   0.93146   0.18739   0.00000  Uiso   1.00
H455   H     0.62991   0.92429   0.24939   0.00000  Uiso   1.00
H456   H     0.66508   0.90999   0.19854   0.00000  Uiso   1.00
H457   H     0.77877   0.62393   0.09633   0.00000  Uiso   1.00
H458   H     0.87588   0.65289   0.22264   0.00000  Uiso   1.00
H459   H     0.92952   0.63453   0.20120   0.00000  Uiso   1.00
H460   H     0.89497   0.56939   0.15198   0.00000  Uiso   1.00
H461   H     0.88530   0.56381   0.21706   0.00000  Uiso   1.00
H462   H     0.84221   0.58580   0.17770   0.00000  Uiso   1.00
H463   H     0.87594   0.84455   0.11240   0.00000  Uiso   1.00
H464   H     0.92947   0.86297   0.13428   0.00000  Uiso   1.00
H465   H     0.89551   0.93110   0.17899   0.00000  Uiso   1.00
H466   H     0.88611   0.93353   0.11367   0.00000  Uiso   1.00
H467   H     0.84259   0.91428   0.15370   0.00000  Uiso   1.00
H468   H     0.78085   0.87574   0.23600   0.00000  Uiso   1.00
H469   H     0.62528   0.66328   0.10052   0.00000  Uiso   1.00
H470   H     0.57298   0.63807   0.11933   0.00000  Uiso   1.00
H471   H     0.61081   0.56823   0.15708   0.00000  Uiso   1.00
H472   H     0.62338   0.57442   0.09267   0.00000  Uiso   1.00
H473   H     0.66318   0.59258   0.13782   0.00000  Uiso   1.00
H474   H     0.65399   0.51481   0.21088   0.00000  Uiso   1.00
H475   H     0.65467   0.57134   0.24509   0.00000  Uiso   1.00
H476   H     0.65268   0.51442   0.27652   0.00000  Uiso   1.00
H477   H     0.65196   0.98385   0.12778   0.00000  Uiso   1.00
H478   H     0.65192   0.92808   0.09236   0.00000  Uiso   1.00
H479   H     0.99465   0.83088   0.08739   0.00000  Uiso   1.00
H480   H     0.64803   0.98557   0.06227   0.00000  Uiso   1.00
H481   H     0.83798   0.50989   0.12000   0.00000  Uiso   1.00
H482   H     0.83994   0.56446   0.08182   0.00000  Uiso   1.00
H483   H     0.83685   0.50591   0.05451   0.00000  Uiso   1.00
H484   H     0.83976   0.98883   0.21172   0.00000  Uiso   1.00
H485   H     0.84180   0.93441   0.25015   0.00000  Uiso   1.00
H486   H     0.83980   0.99313   0.27720   0.00000  Uiso   1.00
H487   H     0.55394   0.83274   0.08266   0.00000  Uiso   1.00
H488   H     0.55352   0.91805   0.11031   0.00000  Uiso   1.00
H489   H     0.52130   0.90971   0.05539   0.00000  Uiso   1.00
H490   H     0.99435   0.91672   0.11386   0.00000  Uiso   1.00
N491   N     0.75000   0.62935   0.16667   0.00000  Uiso   1.00
N492   N     0.75000   0.87066   0.16667   0.00000  Uiso   1.00
O493   O     0.68573   0.79072   0.16667   0.00000  Uiso   1.00
O494   O     0.97542   0.67643   0.12495   0.00000  Uiso   1.00
O495   O     0.97002   0.82421   0.22156   0.00000  Uiso   1.00
O496   O     0.52744   0.66664   0.19963   0.00000  Uiso   1.00
O497   O     0.61457   0.83835   0.16484   0.00000  Uiso   1.00
O498   O     0.88742   0.66467   0.14815   0.00000  Uiso   1.00
O499   O     0.88606   0.83601   0.18764   0.00000  Uiso   1.00
O500   O     0.61387   0.66257   0.17591   0.00000  Uiso   1.00
O501   O     0.71252   0.53074   0.24664   0.00000  Uiso   1.00
O502   O     0.70922   0.96952   0.08894   0.00000  Uiso   1.00
O503   O     0.77957   0.52943   0.08537   0.00000  Uiso   1.00
O504   O     0.81427   0.70929   0.16666   0.00000  Uiso   1.00
O505   O     0.78177   0.97026   0.24742   0.00000  Uiso   1.00
O506   O     0.81427   0.79072   0.16666   0.00000  Uiso   1.00
O507   O     0.68573   0.70929   0.16667   0.00000  Uiso   1.00
O508   O     0.75000   0.79071   0.09613   0.00000  Uiso   1.00
O509   O     0.75000   0.70929   0.23720   0.00000  Uiso   1.00
O510   O     0.75000   0.79071   0.23720   0.00000  Uiso   1.00
O511   O     0.75000   0.70929   0.09613   0.00000  Uiso   1.00
O512   O     0.52609   0.83701   0.15372   0.00000  Uiso   1.00
C513   C     0.16488   0.25004   0.50046   0.00000  Uiso   1.00
C514   C     0.26630   0.44641   0.53982   0.00000  Uiso   1.00
C515   C     0.24999   0.25009   0.40683   0.00000  Uiso   1.00
C516   C     0.24999   0.24991   0.59317   0.00000  Uiso   1.00
C517   C     0.24720   0.02730   0.49996   0.00000  Uiso   1.00
C518   C     0.24715   0.47265   0.50056   0.00000  Uiso   1.00
C519   C     0.24998   0.25012   0.35516   0.00000  Uiso   1.00
C520   C     0.24998   0.24988   0.64484   0.00000  Uiso   1.00
C521   C     0.04750   0.29381   0.49567   0.00000  Uiso   1.00
C522   C     0.45299   0.21258   0.48257   0.00000  Uiso   1.00
C523   C     0.45102   0.28803   0.52739   0.00000  Uiso   1.00
C524   C     0.33509   0.25002   0.50016   0.00000  Uiso   1.00
C525   C     0.04791   0.20846   0.51713   0.00000  Uiso   1.00
C526   C     0.09322   0.29429   0.49931   0.00000  Uiso   1.00
C527   C     0.40750   0.20882   0.48860   0.00000  Uiso   1.00
C528   C     0.40639   0.29164   0.51669   0.00000  Uiso   1.00
C529   C     0.09300   0.20689   0.50864   0.00000  Uiso   1.00
C530   C     0.11656   0.25033   0.50235   0.00000  Uiso   1.00
C531   C     0.38335   0.25019   0.50153   0.00000  Uiso   1.00
C532   C     0.02421   0.25108   0.50664   0.00000  Uiso   1.00
C533   C     0.47562   0.25040   0.50605   0.00000  Uiso   1.00
C534   C     0.02494   0.34687   0.43629   0.00000  Uiso   1.00
C535   C     0.23257   0.10497   0.53892   0.00000  Uiso   1.00
C536   C     0.02339   0.40126   0.42850   0.00000  Uiso   1.00
C537   C     0.46872   0.18092   0.40709   0.00000  Uiso   1.00
C538   C     0.00438   0.21220   0.38414   0.00000  Uiso   1.00
C539   C     0.48116   0.30545   0.60148   0.00000  Uiso   1.00
C540   C     0.49413   0.34679   0.63475   0.00000  Uiso   1.00
C541   C     0.02027   0.16953   0.58398   0.00000  Uiso   1.00
C542   C     0.01457   0.11883   0.60469   0.00000  Uiso   1.00
C543   C     0.11415   0.35743   0.54620   0.00000  Uiso   1.00
C544   C     0.13085   0.40905   0.54517   0.00000  Uiso   1.00
C545   C     0.39416   0.13693   0.52467   0.00000  Uiso   1.00
C546   C     0.23128   0.39511   0.46185   0.00000  Uiso   1.00
C547   C     0.37805   0.08575   0.51716   0.00000  Uiso   1.00
C548   C     0.39392   0.36163   0.47670   0.00000  Uiso   1.00
C549   C     0.37846   0.41341   0.48128   0.00000  Uiso   1.00
C550   C     0.10829   0.14145   0.46252   0.00000  Uiso   1.00
C551   C     0.12772   0.09099   0.46267   0.00000  Uiso   1.00
C552   C     0.16649   0.03336   0.57743   0.00000  Uiso   1.00
C553   C     0.16335   0.46619   0.42693   0.00000  Uiso   1.00
C554   C     0.32564   0.02776   0.41939   0.00000  Uiso   1.00
C555   C     0.32783   0.47128   0.57930   0.00000  Uiso   1.00
C556   C     0.26556   0.10442   0.46072   0.00000  Uiso   1.00
C557   C     0.26676   0.39542   0.53881   0.00000  Uiso   1.00
C558   C     0.23001   0.05408   0.53955   0.00000  Uiso   1.00
C559   C     0.22856   0.44600   0.46159   0.00000  Uiso   1.00
C560   C     0.26510   0.05342   0.45995   0.00000  Uiso   1.00
Cu561  Cu    0.25000   0.29822   0.50000   0.00000  Uiso   1.00
Cu562  Cu    0.25000   0.20179   0.50000   0.00000  Uiso   1.00
H563   H     0.21971   0.12494   0.56962   0.00000  Uiso   1.00
H564   H     0.43579   0.19529   0.39680   0.00000  Uiso   1.00
H565   H     0.47091   0.14432   0.39095   0.00000  Uiso   1.00
H566   H     0.03713   0.19623   0.39134   0.00000  Uiso   1.00
H567   H     0.49911   0.21491   0.34400   0.00000  Uiso   1.00
H568   H     0.00326   0.24903   0.39957   0.00000  Uiso   1.00
H569   H     0.00960   0.28056   0.59883   0.00000  Uiso   1.00
H570   H     0.45307   0.28604   0.61878   0.00000  Uiso   1.00
H571   H     0.46519   0.36973   0.64269   0.00000  Uiso   1.00
H572   H     0.00728   0.33185   0.33615   0.00000  Uiso   1.00
H573   H     0.01985   0.36923   0.61716   0.00000  Uiso   1.00
H574   H     0.21741   0.37517   0.43162   0.00000  Uiso   1.00
H575   H     0.48988   0.19042   0.59111   0.00000  Uiso   1.00
H576   H     0.04826   0.18658   0.60385   0.00000  Uiso   1.00
H577   H     0.04469   0.09734   0.59815   0.00000  Uiso   1.00
H578   H     0.00855   0.12057   0.64476   0.00000  Uiso   1.00
H579   H     0.48638   0.10065   0.58687   0.00000  Uiso   1.00
H580   H     0.13572   0.33570   0.57082   0.00000  Uiso   1.00
H581   H     0.08050   0.35816   0.56188   0.00000  Uiso   1.00
H582   H     0.10990   0.43146   0.52072   0.00000  Uiso   1.00
H583   H     0.12991   0.42429   0.58272   0.00000  Uiso   1.00
H584   H     0.16508   0.40999   0.53187   0.00000  Uiso   1.00
H585   H     0.27877   0.12393   0.42966   0.00000  Uiso   1.00
H586   H     0.37588   0.15289   0.55598   0.00000  Uiso   1.00
H587   H     0.42952   0.13453   0.53453   0.00000  Uiso   1.00
H588   H     0.39497   0.06939   0.48532   0.00000  Uiso   1.00
H589   H     0.38530   0.06381   0.55040   0.00000  Uiso   1.00
H590   H     0.34221   0.08580   0.51103   0.00000  Uiso   1.00
H591   H     0.37594   0.34455   0.44573   0.00000  Uiso   1.00
H592   H     0.42947   0.36297   0.46761   0.00000  Uiso   1.00
H593   H     0.39551   0.43110   0.51233   0.00000  Uiso   1.00
H594   H     0.38611   0.43353   0.44701   0.00000  Uiso   1.00
H595   H     0.34259   0.41428   0.48704   0.00000  Uiso   1.00
H596   H     0.28085   0.37574   0.56933   0.00000  Uiso   1.00
H597   H     0.12528   0.16328   0.43385   0.00000  Uiso   1.00
H598   H     0.07298   0.13807   0.45266   0.00000  Uiso   1.00
H599   H     0.11081   0.06823   0.49041   0.00000  Uiso   1.00
H600   H     0.12338   0.07442   0.42601   0.00000  Uiso   1.00
H601   H     0.16318   0.09258   0.47115   0.00000  Uiso   1.00
H602   H     0.15399   0.01481   0.54421   0.00000  Uiso   1.00
H603   H     0.15467   0.07134   0.57843   0.00000  Uiso   1.00
H604   H     0.15268   0.01442   0.60985   0.00000  Uiso   1.00
H605   H     0.15196   0.48385   0.46111   0.00000  Uiso   1.00
H606   H     0.15192   0.42808   0.42570   0.00000  Uiso   1.00
H607   H     0.49465   0.33088   0.42073   0.00000  Uiso   1.00
H608   H     0.14803   0.48557   0.39560   0.00000  Uiso   1.00
H609   H     0.33798   0.00989   0.45334   0.00000  Uiso   1.00
H610   H     0.33994   0.06446   0.41515   0.00000  Uiso   1.00
H611   H     0.33685   0.00591   0.38784   0.00000  Uiso   1.00
H612   H     0.33976   0.48883   0.54505   0.00000  Uiso   1.00
H613   H     0.34180   0.43441   0.58348   0.00000  Uiso   1.00
H614   H     0.33980   0.49313   0.61053   0.00000  Uiso   1.00
H615   H     0.05394   0.33274   0.41599   0.00000  Uiso   1.00
H616   H     0.05352   0.41805   0.44365   0.00000  Uiso   1.00
H617   H     0.02130   0.40971   0.38872   0.00000  Uiso   1.00
H618   H     0.49435   0.41672   0.44719   0.00000  Uiso   1.00
N619   N     0.25000   0.12935   0.50000   0.00000  Uiso   1.00
N620   N     0.25000   0.37066   0.50000   0.00000  Uiso   1.00
O621   O     0.18573   0.29072   0.50000   0.00000  Uiso   1.00
O622   O     0.47542   0.17643   0.45829   0.00000  Uiso   1.00
O623   O     0.47002   0.32421   0.55489   0.00000  Uiso   1.00
O624   O     0.02744   0.16664   0.53296   0.00000  Uiso   1.00
O625   O     0.11457   0.33835   0.49817   0.00000  Uiso   1.00
O626   O     0.38742   0.16467   0.48149   0.00000  Uiso   1.00
O627   O     0.38606   0.33601   0.52097   0.00000  Uiso   1.00
O628   O     0.11387   0.16257   0.50924   0.00000  Uiso   1.00
O629   O     0.21252   0.03074   0.57997   0.00000  Uiso   1.00
O630   O     0.20922   0.46952   0.42228   0.00000  Uiso   1.00
O631   O     0.27957   0.02943   0.41870   0.00000  Uiso   1.00
O632   O     0.31427   0.20929   0.50000   0.00000  Uiso   1.00
O633   O     0.28177   0.47026   0.58076   0.00000  Uiso   1.00
O634   O     0.31427   0.29072   0.50000   0.00000  Uiso   1.00
O635   O     0.18573   0.20929   0.50000   0.00000  Uiso   1.00
O636   O     0.25000   0.29071   0.42946   0.00000  Uiso   1.00
O637   O     0.25000   0.20929   0.57054   0.00000  Uiso   1.00
O638   O     0.25000   0.29071   0.57054   0.00000  Uiso   1.00
O639   O     0.25000   0.20929   0.42946   0.00000  Uiso   1.00
O640   O     0.02609   0.33701   0.48705   0.00000  Uiso   1.00
C641   C     0.66488   0.25004   0.50046   0.00000  Uiso   1.00
C642   C     0.76630   0.44641   0.53982   0.00000  Uiso   1.00
C643   C     0.74999   0.25009   0.40683   0.00000  Uiso   1.00
C644   C     0.74999   0.24991   0.59317   0.00000  Uiso   1.00
C645   C     0.74720   0.02730   0.49996   0.00000  Uiso   1.00
C646   C     0.74715   0.47265   0.50056   0.00000  Uiso   1.00
C647   C     0.74998   0.25012   0.35516   0.00000  Uiso   1.00
C648   C     0.74998   0.24988   0.64484   0.00000  Uiso   1.00
C649   C     0.54750   0.29381   0.49567   0.00000  Uiso   1.00
C650   C     0.95299   0.21258   0.48257   0.00000  Uiso   1.00
C651   C     0.95102   0.28803   0.52739   0.00000  Uiso   1.00
C652   C     0.83509   0.25002   0.50016   0.00000  Uiso   1.00
C653   C     0.54791   0.20846   0.51713   0.00000  Uiso   1.00
C654   C     0.59322   0.29429   0.49931   0.00000  Uiso   1.00
C655   C     0.90750   0.20882   0.48860   0.00000  Uiso   1.00
C656   C     0.90639   0.29164   0.51669   0.00000  Uiso   1.00
C657   C     0.59300   0.20689   0.50864   0.00000  Uiso   1.00
C658   C     0.61656   0.25033   0.50235   0.00000  Uiso   1.00
C659   C     0.88335   0.25019   0.50153   0.00000  Uiso   1.00
C660   C     0.52421   0.25108   0.50664   0.00000  Uiso   1.00
C661   C     0.97562   0.25040   0.50605   0.00000  Uiso   1.00
C662   C     0.52494   0.34687   0.43629   0.00000  Uiso   1.00
C663   C     0.73257   0.10497   0.53892   0.00000  Uiso   1.00
C664   C     0.52339   0.40126   0.42850   0.00000  Uiso   1.00
C665   C     0.96872   0.18092   0.40709   0.00000  Uiso   1.00
C666   C     0.50438   0.21220   0.38414   0.00000  Uiso   1.00
C667   C     0.98116   0.30545   0.60148   0.00000  Uiso   1.00
C668   C     0.99413   0.34679   0.63475   0.00000  Uiso   1.00
C669   C     0.52027   0.16953   0.58398   0.00000  Uiso   1.00
C670   C     0.51457   0.11883   0.60469   0.00000  Uiso   1.00
C671   C     0.61415   0.35743   0.54620   0.00000  Uiso   1.00
C672   C     0.63085   0.40905   0.54517   0.00000  Uiso   1.00
C673   C     0.89416   0.13693   0.52467   0.00000  Uiso   1.00
C674   C     0.73128   0.39511   0.46185   0.00000  Uiso   1.00
C675   C     0.87805   0.08575   0.51716   0.00000  Uiso   1.00
C676   C     0.89392   0.36163   0.47670   0.00000  Uiso   1.00
C677   C     0.87846   0.41341   0.48128   0.00000  Uiso   1.00
C678   C     0.60829   0.14145   0.46252   0.00000  Uiso   1.00
C679   C     0.62772   0.09099   0.46267   0.00000  Uiso   1.00
C680   C     0.66649   0.03336   0.57743   0.00000  Uiso   1.00
C681   C     0.66335   0.46619   0.42693   0.00000  Uiso   1.00
C682   C     0.82564   0.02776   0.41939   0.00000  Uiso   1.00
C683   C     0.82783   0.47128   0.57930   0.00000  Uiso   1.00
C684   C     0.76556   0.10442   0.46072   0.00000  Uiso   1.00
C685   C     0.76676   0.39542   0.53881   0.00000  Uiso   1.00
C686   C     0.73001   0.05408   0.53955   0.00000  Uiso   1.00
C687   C     0.72856   0.44600   0.46159   0.00000  Uiso   1.00
C688   C     0.76510   0.05342   0.45995   0.00000  Uiso   1.00
Cu689  Cu    0.75000   0.29822   0.50000   0.00000  Uiso   1.00
Cu690  Cu    0.75000   0.20179   0.50000   0.00000  Uiso   1.00
H691   H     0.71971   0.12494   0.56962   0.00000  Uiso   1.00
H692   H     0.93579   0.19529   0.39680   0.00000  Uiso   1.00
H693   H     0.97091   0.14432   0.39095   0.00000  Uiso   1.00
H694   H     0.53713   0.19623   0.39134   0.00000  Uiso   1.00
H695   H     0.99911   0.21491   0.34400   0.00000  Uiso   1.00
H696   H     0.50326   0.24903   0.39957   0.00000  Uiso   1.00
H697   H     0.50960   0.28056   0.59883   0.00000  Uiso   1.00
H698   H     0.95307   0.28604   0.61878   0.00000  Uiso   1.00
H699   H     0.96519   0.36973   0.64269   0.00000  Uiso   1.00
H700   H     0.50728   0.33185   0.33615   0.00000  Uiso   1.00
H701   H     0.51985   0.36923   0.61716   0.00000  Uiso   1.00
H702   H     0.71741   0.37517   0.43162   0.00000  Uiso   1.00
H703   H     0.98988   0.19042   0.59111   0.00000  Uiso   1.00
H704   H     0.54826   0.18658   0.60385   0.00000  Uiso   1.00
H705   H     0.54469   0.09734   0.59815   0.00000  Uiso   1.00
H706   H     0.50855   0.12057   0.64476   0.00000  Uiso   1.00
H707   H     0.98638   0.10065   0.58687   0.00000  Uiso   1.00
H708   H     0.63572   0.33570   0.57082   0.00000  Uiso   1.00
H709   H     0.58050   0.35816   0.56188   0.00000  Uiso   1.00
H710   H     0.60990   0.43146   0.52072   0.00000  Uiso   1.00
H711   H     0.62991   0.42429   0.58272   0.00000  Uiso   1.00
H712   H     0.66508   0.40999   0.53187   0.00000  Uiso   1.00
H713   H     0.77877   0.12393   0.42966   0.00000  Uiso   1.00
H714   H     0.87588   0.15289   0.55598   0.00000  Uiso   1.00
H715   H     0.92952   0.13453   0.53453   0.00000  Uiso   1.00
H716   H     0.89497   0.06939   0.48532   0.00000  Uiso   1.00
H717   H     0.88530   0.06381   0.55040   0.00000  Uiso   1.00
H718   H     0.84221   0.08580   0.51103   0.00000  Uiso   1.00
H719   H     0.87594   0.34455   0.44573   0.00000  Uiso   1.00
H720   H     0.92947   0.36297   0.46761   0.00000  Uiso   1.00
H721   H     0.89551   0.43110   0.51233   0.00000  Uiso   1.00
H722   H     0.88611   0.43353   0.44701   0.00000  Uiso   1.00
H723   H     0.84259   0.41428   0.48704   0.00000  Uiso   1.00
H724   H     0.78085   0.37574   0.56933   0.00000  Uiso   1.00
H725   H     0.62528   0.16328   0.43385   0.00000  Uiso   1.00
H726   H     0.57298   0.13807   0.45266   0.00000  Uiso   1.00
H727   H     0.61081   0.06823   0.49041   0.00000  Uiso   1.00
H728   H     0.62338   0.07442   0.42601   0.00000  Uiso   1.00
H729   H     0.66318   0.09258   0.47115   0.00000  Uiso   1.00
H730   H     0.65399   0.01481   0.54421   0.00000  Uiso   1.00
H731   H     0.65467   0.07134   0.57843   0.00000  Uiso   1.00
H732   H     0.65268   0.01442   0.60985   0.00000  Uiso   1.00
H733   H     0.65196   0.48385   0.46111   0.00000  Uiso   1.00
H734   H     0.65192   0.42808   0.42570   0.00000  Uiso   1.00
H735   H     0.99465   0.33088   0.42073   0.00000  Uiso   1.00
H736   H     0.64803   0.48557   0.39560   0.00000  Uiso   1.00
H737   H     0.83798   0.00989   0.45334   0.00000  Uiso   1.00
H738   H     0.83994   0.06446   0.41515   0.00000  Uiso   1.00
H739   H     0.83685   0.00591   0.38784   0.00000  Uiso   1.00
H740   H     0.83976   0.48883   0.54505   0.00000  Uiso   1.00
H741   H     0.84180   0.43441   0.58348   0.00000  Uiso   1.00
H742   H     0.83980   0.49313   0.61053   0.00000  Uiso   1.00
H743   H     0.55394   0.33274   0.41599   0.00000  Uiso   1.00
H744   H     0.55352   0.41805   0.44365   0.00000  Uiso   1.00
H745   H     0.52130   0.40971   0.38872   0.00000  Uiso   1.00
H746   H     0.99435   0.41672   0.44719   0.00000  Uiso   1.00
N747   N     0.75000   0.12935   0.50000   0.00000  Uiso   1.00
N748   N     0.75000   0.37066   0.50000   0.00000  Uiso   1.00
O749   O     0.68573   0.29072   0.50000   0.00000  Uiso   1.00
O750   O     0.97542   0.17643   0.45829   0.00000  Uiso   1.00
O751   O     0.97002   0.32421   0.55489   0.00000  Uiso   1.00
O752   O     0.52744   0.16664   0.53296   0.00000  Uiso   1.00
O753   O     0.61457   0.33835   0.49817   0.00000  Uiso   1.00
O754   O     0.88742   0.16467   0.48149   0.00000  Uiso   1.00
O755   O     0.88606   0.33601   0.52097   0.00000  Uiso   1.00
O756   O     0.61387   0.16257   0.50924   0.00000  Uiso   1.00
O757   O     0.71252   0.03074   0.57997   0.00000  Uiso   1.00
O758   O     0.70922   0.46952   0.42228   0.00000  Uiso   1.00
O759   O     0.77957   0.02943   0.41870   0.00000  Uiso   1.00
O760   O     0.81427   0.20929   0.50000   0.00000  Uiso   1.00
O761   O     0.78177   0.47026   0.58076   0.00000  Uiso   1.00
O762   O     0.81427   0.29072   0.50000   0.00000  Uiso   1.00
O763   O     0.68573   0.20929   0.50000   0.00000  Uiso   1.00
O764   O     0.75000   0.29071   0.42946   0.00000  Uiso   1.00
O765   O     0.75000   0.20929   0.57054   0.00000  Uiso   1.00
O766   O     0.75000   0.29071   0.57054   0.00000  Uiso   1.00
O767   O     0.75000   0.20929   0.42946   0.00000  Uiso   1.00
O768   O     0.52609   0.33701   0.48705   0.00000  Uiso   1.00
C769   C     0.16488   0.75004   0.50046   0.00000  Uiso   1.00
C770   C     0.26630   0.94641   0.53982   0.00000  Uiso   1.00
C771   C     0.24999   0.75009   0.40683   0.00000  Uiso   1.00
C772   C     0.24999   0.74991   0.59317   0.00000  Uiso   1.00
C773   C     0.24720   0.52730   0.49996   0.00000  Uiso   1.00
C774   C     0.24715   0.97265   0.50056   0.00000  Uiso   1.00
C775   C     0.24998   0.75012   0.35516   0.00000  Uiso   1.00
C776   C     0.24998   0.74988   0.64484   0.00000  Uiso   1.00
C777   C     0.04750   0.79381   0.49567   0.00000  Uiso   1.00
C778   C     0.45299   0.71258   0.48257   0.00000  Uiso   1.00
C779   C     0.45102   0.78803   0.52739   0.00000  Uiso   1.00
C780   C     0.33509   0.75002   0.50016   0.00000  Uiso   1.00
C781   C     0.04791   0.70846   0.51713   0.00000  Uiso   1.00
C782   C     0.09322   0.79429   0.49931   0.00000  Uiso   1.00
C783   C     0.40750   0.70882   0.48860   0.00000  Uiso   1.00
C784   C     0.40639   0.79164   0.51669   0.00000  Uiso   1.00
C785   C     0.09300   0.70689   0.50864   0.00000  Uiso   1.00
C786   C     0.11656   0.75033   0.50235   0.00000  Uiso   1.00
C787   C     0.38335   0.75019   0.50153   0.00000  Uiso   1.00
C788   C     0.02421   0.75108   0.50664   0.00000  Uiso   1.00
C789   C     0.47562   0.75040   0.50605   0.00000  Uiso   1.00
C790   C     0.02494   0.84687   0.43629   0.00000  Uiso   1.00
C791   C     0.23257   0.60497   0.53892   0.00000  Uiso   1.00
C792   C     0.02339   0.90126   0.42850   0.00000  Uiso   1.00
C793   C     0.46872   0.68092   0.40709   0.00000  Uiso   1.00
C794   C     0.00438   0.71220   0.38414   0.00000  Uiso   1.00
C795   C     0.48116   0.80545   0.60148   0.00000  Uiso   1.00
C796   C     0.49413   0.84679   0.63475   0.00000  Uiso   1.00
C797   C     0.02027   0.66953   0.58398   0.00000  Uiso   1.00
C798   C     0.01457   0.61883   0.60469   0.00000  Uiso   1.00
C799   C     0.11415   0.85743   0.54620   0.00000  Uiso   1.00
C800   C     0.13085   0.90905   0.54517   0.00000  Uiso   1.00
C801   C     0.39416   0.63693   0.52467   0.00000  Uiso   1.00
C802   C     0.23128   0.89511   0.46185   0.00000  Uiso   1.00
C803   C     0.37805   0.58575   0.51716   0.00000  Uiso   1.00
C804   C     0.39392   0.86163   0.47670   0.00000  Uiso   1.00
C805   C     0.37846   0.91341   0.48128   0.00000  Uiso   1.00
C806   C     0.10829   0.64145   0.46252   0.00000  Uiso   1.00
C807   C     0.12772   0.59099   0.46267   0.00000  Uiso   1.00
C808   C     0.16649   0.53336   0.57743   0.00000  Uiso   1.00
C809   C     0.16335   0.96619   0.42693   0.00000  Uiso   1.00
C810   C     0.32564   0.52776   0.41939   0.00000  Uiso   1.00
C811   C     0.32783   0.97128   0.57930   0.00000  Uiso   1.00
C812   C     0.26556   0.60442   0.46072   0.00000  Uiso   1.00
C813   C     0.26676   0.89542   0.53881   0.00000  Uiso   1.00
C814   C     0.23001   0.55408   0.53955   0.00000  Uiso   1.00
C815   C     0.22856   0.94600   0.46159   0.00000  Uiso   1.00
C816   C     0.26510   0.55342   0.45995   0.00000  Uiso   1.00
Cu817  Cu    0.25000   0.79822   0.50000   0.00000  Uiso   1.00
Cu818  Cu    0.25000   0.70179   0.50000   0.00000  Uiso   1.00
H819   H     0.21971   0.62494   0.56962   0.00000  Uiso   1.00
H820   H     0.43579   0.69529   0.39680   0.00000  Uiso   1.00
H821   H     0.47091   0.64432   0.39095   0.00000  Uiso   1.00
H822   H     0.03713   0.69623   0.39134   0.00000  Uiso   1.00
H823   H     0.49911   0.71491   0.34400   0.00000  Uiso   1.00
H824   H     0.00326   0.74903   0.39957   0.00000  Uiso   1.00
H825   H     0.00960   0.78056   0.59883   0.00000  Uiso   1.00
H826   H     0.45307   0.78604   0.61878   0.00000  Uiso   1.00
H827   H     0.46519   0.86973   0.64269   0.00000  Uiso   1.00
H828   H     0.00728   0.83185   0.33615   0.00000  Uiso   1.00
H829   H     0.01985   0.86923   0.61716   0.00000  Uiso   1.00
H830   H     0.21741   0.87517   0.43162   0.00000  Uiso   1.00
H831   H     0.48988   0.69042   0.59111   0.00000  Uiso   1.00
H832   H     0.04826   0.68658   0.60385   0.00000  Uiso   1.00
H833   H     0.04469   0.59734   0.59815   0.00000  Uiso   1.00
H834   H     0.00855   0.62057   0.64476   0.00000  Uiso   1.00
H835   H     0.48638   0.60065   0.58687   0.00000  Uiso   1.00
H836   H     0.13572   0.83570   0.57082   0.00000  Uiso   1.00
H837   H     0.08050   0.85816   0.56188   0.00000  Uiso   1.00
H838   H     0.10990   0.93146   0.52072   0.00000  Uiso   1.00
H839   H     0.12991   0.92429   0.58272   0.00000  Uiso   1.00
H840   H     0.16508   0.90999   0.53187   0.00000  Uiso   1.00
H841   H     0.27877   0.62393   0.42966   0.00000  Uiso   1.00
H842   H     0.37588   0.65289   0.55598   0.00000  Uiso   1.00
H843   H     0.42952   0.63453   0.53453   0.00000  Uiso   1.00
H844   H     0.39497   0.56939   0.48532   0.00000  Uiso   1.00
H845   H     0.38530   0.56381   0.55040   0.00000  Uiso   1.00
H846   H     0.34221   0.58580   0.51103   0.00000  Uiso   1.00
H847   H     0.37594   0.84455   0.44573   0.00000  Uiso   1.00
H848   H     0.42947   0.86297   0.46761   0.00000  Uiso   1.00
H849   H     0.39551   0.93110   0.51233   0.00000  Uiso   1.00
H850   H     0.38611   0.93353   0.44701   0.00000  Uiso   1.00
H851   H     0.34259   0.91428   0.48704   0.00000  Uiso   1.00
H852   H     0.28085   0.87574   0.56933   0.00000  Uiso   1.00
H853   H     0.12528   0.66328   0.43385   0.00000  Uiso   1.00
H854   H     0.07298   0.63807   0.45266   0.00000  Uiso   1.00
H855   H     0.11081   0.56823   0.49041   0.00000  Uiso   1.00
H856   H     0.12338   0.57442   0.42601   0.00000  Uiso   1.00
H857   H     0.16318   0.59258   0.47115   0.00000  Uiso   1.00
H858   H     0.15399   0.51481   0.54421   0.00000  Uiso   1.00
H859   H     0.15467   0.57134   0.57843   0.00000  Uiso   1.00
H860   H     0.15268   0.51442   0.60985   0.00000  Uiso   1.00
H861   H     0.15196   0.98385   0.46111   0.00000  Uiso   1.00
H862   H     0.15192   0.92808   0.42570   0.00000  Uiso   1.00
H863   H     0.49465   0.83088   0.42073   0.00000  Uiso   1.00
H864   H     0.14803   0.98557   0.39560   0.00000  Uiso   1.00
H865   H     0.33798   0.50989   0.45334   0.00000  Uiso   1.00
H866   H     0.33994   0.56446   0.41515   0.00000  Uiso   1.00
H867   H     0.33685   0.50591   0.38784   0.00000  Uiso   1.00
H868   H     0.33976   0.98883   0.54505   0.00000  Uiso   1.00
H869   H     0.34180   0.93441   0.58348   0.00000  Uiso   1.00
H870   H     0.33980   0.99313   0.61053   0.00000  Uiso   1.00
H871   H     0.05394   0.83274   0.41599   0.00000  Uiso   1.00
H872   H     0.05352   0.91805   0.44365   0.00000  Uiso   1.00
H873   H     0.02130   0.90971   0.38872   0.00000  Uiso   1.00
H874   H     0.49435   0.91672   0.44719   0.00000  Uiso   1.00
N875   N     0.25000   0.62935   0.50000   0.00000  Uiso   1.00
N876   N     0.25000   0.87066   0.50000   0.00000  Uiso   1.00
O877   O     0.18573   0.79072   0.50000   0.00000  Uiso   1.00
O878   O     0.47542   0.67643   0.45829   0.00000  Uiso   1.00
O879   O     0.47002   0.82421   0.55489   0.00000  Uiso   1.00
O880   O     0.02744   0.66664   0.53296   0.00000  Uiso   1.00
O881   O     0.11457   0.83835   0.49817   0.00000  Uiso   1.00
O882   O     0.38742   0.66467   0.48149   0.00000  Uiso   1.00
O883   O     0.38606   0.83601   0.52097   0.00000  Uiso   1.00
O884   O     0.11387   0.66257   0.50924   0.00000  Uiso   1.00
O885   O     0.21252   0.53074   0.57997   0.00000  Uiso   1.00
O886   O     0.20922   0.96952   0.42228   0.00000  Uiso   1.00
O887   O     0.27957   0.52943   0.41870   0.00000  Uiso   1.00
O888   O     0.31427   0.70929   0.50000   0.00000  Uiso   1.00
O889   O     0.28177   0.97026   0.58076   0.00000  Uiso   1.00
O890   O     0.31427   0.79072   0.50000   0.00000  Uiso   1.00
O891   O     0.18573   0.70929   0.50000   0.00000  Uiso   1.00
O892   O     0.25000   0.79071   0.42946   0.00000  Uiso   1.00
O893   O     0.25000   0.70929   0.57054   0.00000  Uiso   1.00
O894   O     0.25000   0.79071   0.57054   0.00000  Uiso   1.00
O895   O     0.25000   0.70929   0.42946   0.00000  Uiso   1.00
O896   O     0.02609   0.83701   0.48705   0.00000  Uiso   1.00
C897   C     0.66488   0.75004   0.50046   0.00000  Uiso   1.00
C898   C     0.76630   0.94641   0.53982   0.00000  Uiso   1.00
C899   C     0.74999   0.75009   0.40683   0.00000  Uiso   1.00
C900   C     0.74999   0.74991   0.59317   0.00000  Uiso   1.00
C901   C     0.74720   0.52730   0.49996   0.00000  Uiso   1.00
C902   C     0.74715   0.97265   0.50056   0.00000  Uiso   1.00
C903   C     0.74998   0.75012   0.35516   0.00000  Uiso   1.00
C904   C     0.74998   0.74988   0.64484   0.00000  Uiso   1.00
C905   C     0.54750   0.79381   0.49567   0.00000  Uiso   1.00
C906   C     0.95299   0.71258   0.48257   0.00000  Uiso   1.00
C907   C     0.95102   0.78803   0.52739   0.00000  Uiso   1.00
C908   C     0.83509   0.75002   0.50016   0.00000  Uiso   1.00
C909   C     0.54791   0.70846   0.51713   0.00000  Uiso   1.00
C910   C     0.59322   0.79429   0.49931   0.00000  Uiso   1.00
C911   C     0.90750   0.70882   0.48860   0.00000  Uiso   1.00
C912   C     0.90639   0.79164   0.51669   0.00000  Uiso   1.00
C913   C     0.59300   0.70689   0.50864   0.00000  Uiso   1.00
C914   C     0.61656   0.75033   0.50235   0.00000  Uiso   1.00
C915   C     0.88335   0.75019   0.50153   0.00000  Uiso   1.00
C916   C     0.52421   0.75108   0.50664   0.00000  Uiso   1.00
C917   C     0.97562   0.75040   0.50605   0.00000  Uiso   1.00
C918   C     0.52494   0.84687   0.43629   0.00000  Uiso   1.00
C919   C     0.73257   0.60497   0.53892   0.00000  Uiso   1.00
C920   C     0.52339   0.90126   0.42850   0.00000  Uiso   1.00
C921   C     0.96872   0.68092   0.40709   0.00000  Uiso   1.00
C922   C     0.50438   0.71220   0.38414   0.00000  Uiso   1.00
C923   C     0.98116   0.80545   0.60148   0.00000  Uiso   1.00
C924   C     0.99413   0.84679   0.63475   0.00000  Uiso   1.00
C925   C     0.52027   0.66953   0.58398   0.00000  Uiso   1.00
C926   C     0.51457   0.61883   0.60469   0.00000  Uiso   1.00
C927   C     0.61415   0.85743   0.54620   0.00000  Uiso   1.00
C928   C     0.63085   0.90905   0.54517   0.00000  Uiso   1.00
C929   C     0.89416   0.63693   0.52467   0.00000  Uiso   1.00
C930   C     0.73128   0.89511   0.46185   0.00000  Uiso   1.00
C931   C     0.87805   0.58575   0.51716   0.00000  Uiso   1.00
C932   C     0.89392   0.86163   0.47670   0.00000  Uiso   1.00
C933   C     0.87846   0.91341   0.48128   0.00000  Uiso   1.00
C934   C     0.60829   0.64145   0.46252   0.00000  Uiso   1.00
C935   C     0.62772   0.59099   0.46267   0.00000  Uiso   1.00
C936   C     0.66649   0.53336   0.57743   0.00000  Uiso   1.00
C937   C     0.66335   0.96619   0.42693   0.00000  Uiso   1.00
C938   C     0.82564   0.52776   0.41939   0.00000  Uiso   1.00
C939   C     0.82783   0.97128   0.57930   0.00000  Uiso   1.00
C940   C     0.76556   0.60442   0.46072   0.00000  Uiso   1.00
C941   C     0.76676   0.89542   0.53881   0.00000  Uiso   1.00
C942   C     0.73001   0.55408   0.53955   0.00000  Uiso   1.00
C943   C     0.72856   0.94600   0.46159   0.00000  Uiso   1.00
C944   C     0.76510   0.55342   0.45995   0.00000  Uiso   1.00
Cu945  Cu    0.75000   0.79822   0.50000   0.00000  Uiso   1.00
Cu946  Cu    0.75000   0.70179   0.50000   0.00000  Uiso   1.00
H947   H     0.71971   0.62494   0.56962   0.00000  Uiso   1.00
H948   H     0.93579   0.69529   0.39680   0.00000  Uiso   1.00
H949   H     0.97091   0.64432   0.39095   0.00000  Uiso   1.00
H950   H     0.53713   0.69623   0.39134   0.00000  Uiso   1.00
H951   H     0.99911   0.71491   0.34400   0.00000  Uiso   1.00
H952   H     0.50326   0.74903   0.39957   0.00000  Uiso   1.00
H953   H     0.50960   0.78056   0.59883   0.00000  Uiso   1.00
H954   H     0.95307   0.78604   0.61878   0.00000  Uiso   1.00
H955   H     0.96519   0.86973   0.64269   0.00000  Uiso   1.00
H956   H     0.50728   0.83185   0.33615   0.00000  Uiso   1.00
H957   H     0.51985   0.86923   0.61716   0.00000  Uiso   1.00
H958   H     0.71741   0.87517   0.43162   0.00000  Uiso   1.00
H959   H     0.98988   0.69042   0.59111   0.00000  Uiso   1.00
H960   H     0.54826   0.68658   0.60385   0.00000  Uiso   1.00
H961   H     0.54469   0.59734   0.59815   0.00000  Uiso   1.00
H962   H     0.50855   0.62057   0.64476   0.00000  Uiso   1.00
H963   H     0.98638   0.60065   0.58687   0.00000  Uiso   1.00
H964   H     0.63572   0.83570   0.57082   0.00000  Uiso   1.00
H965   H     0.58050   0.85816   0.56188   0.00000  Uiso   1.00
H966   H     0.60990   0.93146   0.52072   0.00000  Uiso   1.00
H967   H     0.62991   0.92429   0.58272   0.00000  Uiso   1.00
H968   H     0.66508   0.90999   0.53187   0.00000  Uiso   1.00
H969   H     0.77877   0.62393   0.42966   0.00000  Uiso   1.00
H970   H     0.87588   0.65289   0.55598   0.00000  Uiso   1.00
H971   H     0.92952   0.63453   0.53453   0.00000  Uiso   1.00
H972   H     0.89497   0.56939   0.48532   0.00000  Uiso   1.00
H973   H     0.88530   0.56381   0.55040   0.00000  Uiso   1.00
H974   H     0.84221   0.58580   0.51103   0.00000  Uiso   1.00
H975   H     0.87594   0.84455   0.44573   0.00000  Uiso   1.00
H976   H     0.92947   0.86297   0.46761   0.00000  Uiso   1.00
H977   H     0.89551   0.93110   0.51233   0.00000  Uiso   1.00
H978   H     0.88611   0.93353   0.44701   0.00000  Uiso   1.00
H979   H     0.84259   0.91428   0.48704   0.00000  Uiso   1.00
H980   H     0.78085   0.87574   0.56933   0.00000  Uiso   1.00
H981   H     0.62528   0.66328   0.43385   0.00000  Uiso   1.00
H982   H     0.57298   0.63807   0.45266   0.00000  Uiso   1.00
H983   H     0.61081   0.56823   0.49041   0.00000  Uiso   1.00
H984   H     0.62338   0.57442   0.42601   0.00000  Uiso   1.00
H985   H     0.66318   0.59258   0.47115   0.00000  Uiso   1.00
H986   H     0.65399   0.51481   0.54421   0.00000  Uiso   1.00
H987   H     0.65467   0.57134   0.57843   0.00000  Uiso   1.00
H988   H     0.65268   0.51442   0.60985   0.00000  Uiso   1.00
H989   H     0.65196   0.98385   0.46111   0.00000  Uiso   1.00
H990   H     0.65192   0.92808   0.42570   0.00000  Uiso   1.00
H991   H     0.99465   0.83088   0.42073   0.00000  Uiso   1.00
H992   H     0.64803   0.98557   0.39560   0.00000  Uiso   1.00
H993   H     0.83798   0.50989   0.45334   0.00000  Uiso   1.00
H994   H     0.83994   0.56446   0.41515   0.00000  Uiso   1.00
H995   H     0.83685   0.50591   0.38784   0.00000  Uiso   1.00
H996   H     0.83976   0.98883   0.54505   0.00000  Uiso   1.00
H997   H     0.84180   0.93441   0.58348   0.00000  Uiso   1.00
H998   H     0.83980   0.99313   0.61053   0.00000  Uiso   1.00
H999   H     0.55394   0.83274   0.41599   0.00000  Uiso   1.00
H1000  H     0.55352   0.91805   0.44365   0.00000  Uiso   1.00
H1001  H     0.52130   0.90971   0.38872   0.00000  Uiso   1.00
H1002  H     0.99435   0.91672   0.44719   0.00000  Uiso   1.00
N1003  N     0.75000   0.62935   0.50000   0.00000  Uiso   1.00
N1004  N     0.75000   0.87066   0.50000   0.00000  Uiso   1.00
O1005  O     0.68573   0.79072   0.50000   0.00000  Uiso   1.00
O1006  O     0.97542   0.67643   0.45829   0.00000  Uiso   1.00
O1007  O     0.97002   0.82421   0.55489   0.00000  Uiso   1.00
O1008  O     0.52744   0.66664   0.53296   0.00000  Uiso   1.00
O1009  O     0.61457   0.83835   0.49817   0.00000  Uiso   1.00
O1010  O     0.88742   0.66467   0.48149   0.00000  Uiso   1.00
O1011  O     0.88606   0.83601   0.52097   0.00000  Uiso   1.00
O1012  O     0.61387   0.66257   0.50924   0.00000  Uiso   1.00
O1013  O     0.71252   0.53074   0.57997   0.00000  Uiso   1.00
O1014  O     0.70922   0.96952   0.42228   0.00000  Uiso   1.00
O1015  O     0.77957   0.52943   0.41870   0.00000  Uiso   1.00
O1016  O     0.81427   0.70929   0.50000   0.00000  Uiso   1.00
O1017  O     0.78177   0.97026   0.58076   0.00000  Uiso   1.00
O1018  O     0.81427   0.79072   0.50000   0.00000  Uiso   1.00
O1019  O     0.68573   0.70929   0.50000   0.00000  Uiso   1.00
O1020  O     0.75000   0.79071   0.42946   0.00000  Uiso   1.00
O1021  O     0.75000   0.70929   0.57054   0.00000  Uiso   1.00
O1022  O     0.75000   0.79071   0.57054   0.00000  Uiso   1.00
O1023  O     0.75000   0.70929   0.42946   0.00000  Uiso   1.00
O1024  O     0.52609   0.83701   0.48705   0.00000  Uiso   1.00
C1025  C     0.16488   0.25004   0.83379   0.00000  Uiso   1.00
C1026  C     0.26630   0.44641   0.87316   0.00000  Uiso   1.00
C1027  C     0.24999   0.25009   0.74016   0.00000  Uiso   1.00
C1028  C     0.24999   0.24991   0.92650   0.00000  Uiso   1.00
C1029  C     0.24720   0.02730   0.83330   0.00000  Uiso   1.00
C1030  C     0.24715   0.47265   0.83389   0.00000  Uiso   1.00
C1031  C     0.24998   0.25012   0.68849   0.00000  Uiso   1.00
C1032  C     0.24998   0.24988   0.97817   0.00000  Uiso   1.00
C1033  C     0.04750   0.29381   0.82901   0.00000  Uiso   1.00
C1034  C     0.45299   0.21258   0.81590   0.00000  Uiso   1.00
C1035  C     0.45102   0.28803   0.86072   0.00000  Uiso   1.00
C1036  C     0.33509   0.25002   0.83350   0.00000  Uiso   1.00
C1037  C     0.04791   0.20846   0.85046   0.00000  Uiso   1.00
C1038  C     0.09322   0.29429   0.83265   0.00000  Uiso   1.00
C1039  C     0.40750   0.20882   0.82194   0.00000  Uiso   1.00
C1040  C     0.40639   0.29164   0.85002   0.00000  Uiso   1.00
C1041  C     0.09300   0.20689   0.84197   0.00000  Uiso   1.00
C1042  C     0.11656   0.25033   0.83568   0.00000  Uiso   1.00
C1043  C     0.38335   0.25019   0.83486   0.00000  Uiso   1.00
C1044  C     0.02421   0.25108   0.83997   0.00000  Uiso   1.00
C1045  C     0.47562   0.25040   0.83939   0.00000  Uiso   1.00
C1046  C     0.02494   0.34687   0.76962   0.00000  Uiso   1.00
C1047  C     0.23257   0.10497   0.87225   0.00000  Uiso   1.00
C1048  C     0.02339   0.40126   0.76184   0.00000  Uiso   1.00
C1049  C     0.46872   0.18092   0.74043   0.00000  Uiso   1.00
C1050  C     0.00438   0.21220   0.71747   0.00000  Uiso   1.00
C1051  C     0.48116   0.30545   0.93482   0.00000  Uiso   1.00
C1052  C     0.49413   0.34679   0.96808   0.00000  Uiso   1.00
C1053  C     0.02027   0.16953   0.91732   0.00000  Uiso   1.00
C1054  C     0.01457   0.11883   0.93802   0.00000  Uiso   1.00
C1055  C     0.11415   0.35743   0.87953   0.00000  Uiso   1.00
C1056  C     0.13085   0.40905   0.87850   0.00000  Uiso   1.00
C1057  C     0.39416   0.13693   0.85800   0.00000  Uiso   1.00
C1058  C     0.23128   0.39511   0.79519   0.00000  Uiso   1.00
C1059  C     0.37805   0.08575   0.85049   0.00000  Uiso   1.00
C1060  C     0.39392   0.36163   0.81003   0.00000  Uiso   1.00
C1061  C     0.37846   0.41341   0.81461   0.00000  Uiso   1.00
C1062  C     0.10829   0.14145   0.79586   0.00000  Uiso   1.00
C1063  C     0.12772   0.09099   0.79601   0.00000  Uiso   1.00
C1064  C     0.16649   0.03336   0.91076   0.00000  Uiso   1.00
C1065  C     0.16335   0.46619   0.76027   0.00000  Uiso   1.00
C1066  C     0.32564   0.02776   0.75272   0.00000  Uiso   1.00
C1067  C     0.32783   0.47128   0.91263   0.00000  Uiso   1.00
C1068  C     0.26556   0.10442   0.79406   0.00000  Uiso   1.00
C1069  C     0.26676   0.39542   0.87214   0.00000  Uiso   1.00
C1070  C     0.23001   0.05408   0.87289   0.00000  Uiso   1.00
C1071  C     0.22856   0.44600   0.79492   0.00000  Uiso   1.00
C1072  C     0.26510   0.05342   0.79328   0.00000  Uiso   1.00
Cu1073 Cu    0.25000   0.29822   0.83333   0.00000  Uiso   1.00
Cu1074 Cu    0.25000   0.20179   0.83333   0.00000  Uiso   1.00
H1075  H     0.21971   0.12494   0.90295   0.00000  Uiso   1.00
H1076  H     0.43579   0.19529   0.73014   0.00000  Uiso   1.00
H1077  H     0.47091   0.14432   0.72428   0.00000  Uiso   1.00
H1078  H     0.03713   0.19623   0.72467   0.00000  Uiso   1.00
H1079  H     0.49911   0.21491   0.67733   0.00000  Uiso   1.00
H1080  H     0.00326   0.24903   0.73290   0.00000  Uiso   1.00
H1081  H     0.00960   0.28056   0.93216   0.00000  Uiso   1.00
H1082  H     0.45307   0.28604   0.95211   0.00000  Uiso   1.00
H1083  H     0.46519   0.36973   0.97603   0.00000  Uiso   1.00
H1084  H     0.00728   0.33185   0.66948   0.00000  Uiso   1.00
H1085  H     0.01985   0.36923   0.95049   0.00000  Uiso   1.00
H1086  H     0.21741   0.37517   0.76496   0.00000  Uiso   1.00
H1087  H     0.48988   0.19042   0.92444   0.00000  Uiso   1.00
H1088  H     0.04826   0.18658   0.93719   0.00000  Uiso   1.00
H1089  H     0.04469   0.09734   0.93148   0.00000  Uiso   1.00
H1090  H     0.00855   0.12057   0.97810   0.00000  Uiso   1.00
H1091  H     0.48638   0.10065   0.92020   0.00000  Uiso   1.00
H1092  H     0.13572   0.33570   0.90415   0.00000  Uiso   1.00
H1093  H     0.08050   0.35816   0.89521   0.00000  Uiso   1.00
H1094  H     0.10990   0.43146   0.85405   0.00000  Uiso   1.00
H1095  H     0.12991   0.42429   0.91606   0.00000  Uiso   1.00
H1096  H     0.16508   0.40999   0.86520   0.00000  Uiso   1.00
H1097  H     0.27877   0.12393   0.76299   0.00000  Uiso   1.00
H1098  H     0.37588   0.15289   0.88931   0.00000  Uiso   1.00
H1099  H     0.42952   0.13453   0.86786   0.00000  Uiso   1.00
H1100  H     0.39497   0.06939   0.81865   0.00000  Uiso   1.00
H1101  H     0.38530   0.06381   0.88373   0.00000  Uiso   1.00
H1102  H     0.34221   0.08580   0.84436   0.00000  Uiso   1.00
H1103  H     0.37594   0.34455   0.77906   0.00000  Uiso   1.00
H1104  H     0.42947   0.36297   0.80094   0.00000  Uiso   1.00
H1105  H     0.39551   0.43110   0.84566   0.00000  Uiso   1.00
H1106  H     0.38611   0.43353   0.78034   0.00000  Uiso   1.00
H1107  H     0.34259   0.41428   0.82037   0.00000  Uiso   1.00
H1108  H     0.28085   0.37574   0.90266   0.00000  Uiso   1.00
H1109  H     0.12528   0.16328   0.76718   0.00000  Uiso   1.00
H1110  H     0.07298   0.13807   0.78599   0.00000  Uiso   1.00
H1111  H     0.11081   0.06823   0.82375   0.00000  Uiso   1.00
H1112  H     0.12338   0.07442   0.75934   0.00000  Uiso   1.00
H1113  H     0.16318   0.09258   0.80449   0.00000  Uiso   1.00
H1114  H     0.15399   0.01481   0.87755   0.00000  Uiso   1.00
H1115  H     0.15467   0.07134   0.91176   0.00000  Uiso   1.00
H1116  H     0.15268   0.01442   0.94318   0.00000  Uiso   1.00
H1117  H     0.15196   0.48385   0.79444   0.00000  Uiso   1.00
H1118  H     0.15192   0.42808   0.75903   0.00000  Uiso   1.00
H1119  H     0.49465   0.33088   0.75406   0.00000  Uiso   1.00
H1120  H     0.14803   0.48557   0.72894   0.00000  Uiso   1.00
H1121  H     0.33798   0.00989   0.78667   0.00000  Uiso   1.00
H1122  H     0.33994   0.06446   0.74849   0.00000  Uiso   1.00
H1123  H     0.33685   0.00591   0.72117   0.00000  Uiso   1.00
H1124  H     0.33976   0.48883   0.87839   0.00000  Uiso   1.00
H1125  H     0.34180   0.43441   0.91682   0.00000  Uiso   1.00
H1126  H     0.33980   0.49313   0.94386   0.00000  Uiso   1.00
H1127  H     0.05394   0.33274   0.74932   0.00000  Uiso   1.00
H1128  H     0.05352   0.41805   0.77698   0.00000  Uiso   1.00
H1129  H     0.02130   0.40971   0.72206   0.00000  Uiso   1.00
H1130  H     0.49435   0.41672   0.78053   0.00000  Uiso   1.00
N1131  N     0.25000   0.12935   0.83333   0.00000  Uiso   1.00
N1132  N     0.25000   0.37066   0.83333   0.00000  Uiso   1.00
O1133  O     0.18573   0.29072   0.83334   0.00000  Uiso   1.00
O1134  O     0.47542   0.17643   0.79162   0.00000  Uiso   1.00
O1135  O     0.47002   0.32421   0.88822   0.00000  Uiso   1.00
O1136  O     0.02744   0.16664   0.86629   0.00000  Uiso   1.00
O1137  O     0.11457   0.33835   0.83151   0.00000  Uiso   1.00
O1138  O     0.38742   0.16467   0.81482   0.00000  Uiso   1.00
O1139  O     0.38606   0.33601   0.85430   0.00000  Uiso   1.00
O1140  O     0.11387   0.16257   0.84258   0.00000  Uiso   1.00
O1141  O     0.21252   0.03074   0.91331   0.00000  Uiso   1.00
O1142  O     0.20922   0.46952   0.75561   0.00000  Uiso   1.00
O1143  O     0.27957   0.02943   0.75204   0.00000  Uiso   1.00
O1144  O     0.31427   0.20929   0.83333   0.00000  Uiso   1.00
O1145  O     0.28177   0.47026   0.91409   0.00000  Uiso   1.00
O1146  O     0.31427   0.29072   0.83333   0.00000  Uiso   1.00
O1147  O     0.18573   0.20929   0.83334   0.00000  Uiso   1.00
O1148  O     0.25000   0.29071   0.76280   0.00000  Uiso   1.00
O1149  O     0.25000   0.20929   0.90387   0.00000  Uiso   1.00
O1150  O     0.25000   0.29071   0.90387   0.00000  Uiso   1.00
O1151  O     0.25000   0.20929   0.76280   0.00000  Uiso   1.00
O1152  O     0.02609   0.33701   0.82039   0.00000  Uiso   1.00
C1153  C     0.66488   0.25004   0.83379   0.00000  Uiso   1.00
C1154  C     0.76630   0.44641   0.87316   0.00000  Uiso   1.00
C1155  C     0.74999   0.25009   0.74016   0.00000  Uiso   1.00
C1156  C     0.74999   0.24991   0.92650   0.00000  Uiso   1.00
C1157  C     0.74720   0.02730   0.83330   0.00000  Uiso   1.00
C1158  C     0.74715   0.47265   0.83389   0.00000  Uiso   1.00
C1159  C     0.74998   0.25012   0.68849   0.00000  Uiso   1.00
C1160  C     0.74998   0.24988   0.97817   0.00000  Uiso   1.00
C1161  C     0.54750   0.29381   0.82901   0.00000  Uiso   1.00
C1162  C     0.95299   0.21258   0.81590   0.00000  Uiso   1.00
C1163  C     0.95102   0.28803   0.86072   0.00000  Uiso   1.00
C1164  C     0.83509   0.25002   0.83350   0.00000  Uiso   1.00
C1165  C     0.54791   0.20846   0.85046   0.00000  Uiso   1.00
C1166  C     0.59322   0.29429   0.83265   0.00000  Uiso   1.00
C1167  C     0.90750   0.20882   0.82194   0.00000  Uiso   1.00
C1168  C     0.90639   0.29164   0.85002   0.00000  Uiso   1.00
C1169  C     0.59300   0.20689   0.84197   0.00000  Uiso   1.00
C1170  C     0.61656   0.25033   0.83568   0.00000  Uiso   1.00
C1171  C     0.88335   0.25019   0.83486   0.00000  Uiso   1.00
C1172  C     0.52421   0.25108   0.83997   0.00000  Uiso   1.00
C1173  C     0.97562   0.25040   0.83939   0.00000  Uiso   1.00
C1174  C     0.52494   0.34687   0.76962   0.00000  Uiso   1.00
C1175  C     0.73257   0.10497   0.87225   0.00000  Uiso   1.00
C1176  C     0.52339   0.40126   0.76184   0.00000  Uiso   1.00
C1177  C     0.96872   0.18092   0.74043   0.00000  Uiso   1.00
C1178  C     0.50438   0.21220   0.71747   0.00000  Uiso   1.00
C1179  C     0.98116   0.30545   0.93482   0.00000  Uiso   1.00
C1180  C     0.99413   0.34679   0.96808   0.00000  Uiso   1.00
C1181  C     0.52027   0.16953   0.91732   0.00000  Uiso   1.00
C1182  C     0.51457   0.11883   0.93802   0.00000  Uiso   1.00
C1183  C     0.61415   0.35743   0.87953   0.00000  Uiso   1.00
C1184  C     0.63085   0.40905   0.87850   0.00000  Uiso   1.00
C1185  C     0.89416   0.13693   0.85800   0.00000  Uiso   1.00
C1186  C     0.73128   0.39511   0.79519   0.00000  Uiso   1.00
C1187  C     0.87805   0.08575   0.85049   0.00000  Uiso   1.00
C1188  C     0.89392   0.36163   0.81003   0.00000  Uiso   1.00
C1189  C     0.87846   0.41341   0.81461   0.00000  Uiso   1.00
C1190  C     0.60829   0.14145   0.79586   0.00000  Uiso   1.00
C1191  C     0.62772   0.09099   0.79601   0.00000  Uiso   1.00
C1192  C     0.66649   0.03336   0.91076   0.00000  Uiso   1.00
C1193  C     0.66335   0.46619   0.76027   0.00000  Uiso   1.00
C1194  C     0.82564   0.02776   0.75272   0.00000  Uiso   1.00
C1195  C     0.82783   0.47128   0.91263   0.00000  Uiso   1.00
C1196  C     0.76556   0.10442   0.79406   0.00000  Uiso   1.00
C1197  C     0.76676   0.39542   0.87214   0.00000  Uiso   1.00
C1198  C     0.73001   0.05408   0.87289   0.00000  Uiso   1.00
C1199  C     0.72856   0.44600   0.79492   0.00000  Uiso   1.00
C1200  C     0.76510   0.05342   0.79328   0.00000  Uiso   1.00
Cu1201 Cu    0.75000   0.29822   0.83333   0.00000  Uiso   1.00
Cu1202 Cu    0.75000   0.20179   0.83333   0.00000  Uiso   1.00
H1203  H     0.71971   0.12494   0.90295   0.00000  Uiso   1.00
H1204  H     0.93579   0.19529   0.73014   0.00000  Uiso   1.00
H1205  H     0.97091   0.14432   0.72428   0.00000  Uiso   1.00
H1206  H     0.53713   0.19623   0.72467   0.00000  Uiso   1.00
H1207  H     0.99911   0.21491   0.67733   0.00000  Uiso   1.00
H1208  H     0.50326   0.24903   0.73290   0.00000  Uiso   1.00
H1209  H     0.50960   0.28056   0.93216   0.00000  Uiso   1.00
H1210  H     0.95307   0.28604   0.95211   0.00000  Uiso   1.00
H1211  H     0.96519   0.36973   0.97603   0.00000  Uiso   1.00
H1212  H     0.50728   0.33185   0.66948   0.00000  Uiso   1.00
H1213  H     0.51985   0.36923   0.95049   0.00000  Uiso   1.00
H1214  H     0.71741   0.37517   0.76496   0.00000  Uiso   1.00
H1215  H     0.98988   0.19042   0.92444   0.00000  Uiso   1.00
H1216  H     0.54826   0.18658   0.93719   0.00000  Uiso   1.00
H1217  H     0.54469   0.09734   0.93148   0.00000  Uiso   1.00
H1218  H     0.50855   0.12057   0.97810   0.00000  Uiso   1.00
H1219  H     0.98638   0.10065   0.92020   0.00000  Uiso   1.00
H1220  H     0.63572   0.33570   0.90415   0.00000  Uiso   1.00
H1221  H     0.58050   0.35816   0.89521   0.00000  Uiso   1.00
H1222  H     0.60990   0.43146   0.85405   0.00000  Uiso   1.00
H1223  H     0.62991   0.42429   0.91606   0.00000  Uiso   1.00
H1224  H     0.66508   0.40999   0.86520   0.00000  Uiso   1.00
H1225  H     0.77877   0.12393   0.76299   0.00000  Uiso   1.00
H1226  H     0.87588   0.15289   0.88931   0.00000  Uiso   1.00
H1227  H     0.92952   0.13453   0.86786   0.00000  Uiso   1.00
H1228  H     0.89497   0.06939   0.81865   0.00000  Uiso   1.00
H1229  H     0.88530   0.06381   0.88373   0.00000  Uiso   1.00
H1230  H     0.84221   0.08580   0.84436   0.00000  Uiso   1.00
H1231  H     0.87594   0.34455   0.77906   0.00000  Uiso   1.00
H1232  H     0.92947   0.36297   0.80094   0.00000  Uiso   1.00
H1233  H     0.89551   0.43110   0.84566   0.00000  Uiso   1.00
H1234  H     0.88611   0.43353   0.78034   0.00000  Uiso   1.00
H1235  H     0.84259   0.41428   0.82037   0.00000  Uiso   1.00
H1236  H     0.78085   0.37574   0.90266   0.00000  Uiso   1.00
H1237  H     0.62528   0.16328   0.76718   0.00000  Uiso   1.00
H1238  H     0.57298   0.13807   0.78599   0.00000  Uiso   1.00
H1239  H     0.61081   0.06823   0.82375   0.00000  Uiso   1.00
H1240  H     0.62338   0.07442   0.75934   0.00000  Uiso   1.00
H1241  H     0.66318   0.09258   0.80449   0.00000  Uiso   1.00
H1242  H     0.65399   0.01481   0.87755   0.00000  Uiso   1.00
H1243  H     0.65467   0.07134   0.91176   0.00000  Uiso   1.00
H1244  H     0.65268   0.01442   0.94318   0.00000  Uiso   1.00
H1245  H     0.65196   0.48385   0.79444   0.00000  Uiso   1.00
H1246  H     0.65192   0.42808   0.75903   0.00000  Uiso   1.00
H1247  H     0.99465   0.33088   0.75406   0.00000  Uiso   1.00
H1248  H     0.64803   0.48557   0.72894   0.00000  Uiso   1.00
H1249  H     0.83798   0.00989   0.78667   0.00000  Uiso   1.00
H1250  H     0.83994   0.06446   0.74849   0.00000  Uiso   1.00
H1251  H     0.83685   0.00591   0.72117   0.00000  Uiso   1.00
H1252  H     0.83976   0.48883   0.87839   0.00000  Uiso   1.00
H1253  H     0.84180   0.43441   0.91682   0.00000  Uiso   1.00
H1254  H     0.83980   0.49313   0.94386   0.00000  Uiso   1.00
H1255  H     0.55394   0.33274   0.74932   0.00000  Uiso   1.00
H1256  H     0.55352   0.41805   0.77698   0.00000  Uiso   1.00
H1257  H     0.52130   0.40971   0.72206   0.00000  Uiso   1.00
H1258  H     0.99435   0.41672   0.78053   0.00000  Uiso   1.00
N1259  N     0.75000   0.12935   0.83333   0.00000  Uiso   1.00
N1260  N     0.75000   0.37066   0.83333   0.00000  Uiso   1.00
O1261  O     0.68573   0.29072   0.83334   0.00000  Uiso   1.00
O1262  O     0.97542   0.17643   0.79162   0.00000  Uiso   1.00
O1263  O     0.97002   0.32421   0.88822   0.00000  Uiso   1.00
O1264  O     0.52744   0.16664   0.86629   0.00000  Uiso   1.00
O1265  O     0.61457   0.33835   0.83151   0.00000  Uiso   1.00
O1266  O     0.88742   0.16467   0.81482   0.00000  Uiso   1.00
O1267  O     0.88606   0.33601   0.85430   0.00000  Uiso   1.00
O1268  O     0.61387   0.16257   0.84258   0.00000  Uiso   1.00
O1269  O     0.71252   0.03074   0.91331   0.00000  Uiso   1.00
O1270  O     0.70922   0.46952   0.75561   0.00000  Uiso   1.00
O1271  O     0.77957   0.02943   0.75204   0.00000  Uiso   1.00
O1272  O     0.81427   0.20929   0.83333   0.00000  Uiso   1.00
O1273  O     0.78177   0.47026   0.91409   0.00000  Uiso   1.00
O1274  O     0.81427   0.29072   0.83333   0.00000  Uiso   1.00
O1275  O     0.68573   0.20929   0.83334   0.00000  Uiso   1.00
O1276  O     0.75000   0.29071   0.76280   0.00000  Uiso   1.00
O1277  O     0.75000   0.20929   0.90387   0.00000  Uiso   1.00
O1278  O     0.75000   0.29071   0.90387   0.00000  Uiso   1.00
O1279  O     0.75000   0.20929   0.76280   0.00000  Uiso   1.00
O1280  O     0.52609   0.33701   0.82039   0.00000  Uiso   1.00
C1281  C     0.16488   0.75004   0.83379   0.00000  Uiso   1.00
C1282  C     0.26630   0.94641   0.87316   0.00000  Uiso   1.00
C1283  C     0.24999   0.75009   0.74016   0.00000  Uiso   1.00
C1284  C     0.24999   0.74991   0.92650   0.00000  Uiso   1.00
C1285  C     0.24720   0.52730   0.83330   0.00000  Uiso   1.00
C1286  C     0.24715   0.97265   0.83389   0.00000  Uiso   1.00
C1287  C     0.24998   0.75012   0.68849   0.00000  Uiso   1.00
C1288  C     0.24998   0.74988   0.97817   0.00000  Uiso   1.00
C1289  C     0.04750   0.79381   0.82901   0.00000  Uiso   1.00
C1290  C     0.45299   0.71258   0.81590   0.00000  Uiso   1.00
C1291  C     0.45102   0.78803   0.86072   0.00000  Uiso   1.00
C1292  C     0.33509   0.75002   0.83350   0.00000  Uiso   1.00
C1293  C     0.04791   0.70846   0.85046   0.00000  Uiso   1.00
C1294  C     0.09322   0.79429   0.83265   0.00000  Uiso   1.00
C1295  C     0.40750   0.70882   0.82194   0.00000  Uiso   1.00
C1296  C     0.40639   0.79164   0.85002   0.00000  Uiso   1.00
C1297  C     0.09300   0.70689   0.84197   0.00000  Uiso   1.00
C1298  C     0.11656   0.75033   0.83568   0.00000  Uiso   1.00
C1299  C     0.38335   0.75019   0.83486   0.00000  Uiso   1.00
C1300  C     0.02421   0.75108   0.83997   0.00000  Uiso   1.00
C1301  C     0.47562   0.75040   0.83939   0.00000  Uiso   1.00
C1302  C     0.02494   0.84687   0.76962   0.00000  Uiso   1.00
C1303  C     0.23257   0.60497   0.87225   0.00000  Uiso   1.00
C1304  C     0.02339   0.90126   0.76184   0.00000  Uiso   1.00
C1305  C     0.46872   0.68092   0.74043   0.00000  Uiso   1.00
C1306  C     0.00438   0.71220   0.71747   0.00000  Uiso   1.00
C1307  C     0.48116   0.80545   0.93482   0.00000  Uiso   1.00
C1308  C     0.49413   0.84679   0.96808   0.00000  Uiso   1.00
C1309  C     0.02027   0.66953   0.91732   0.00000  Uiso   1.00
C1310  C     0.01457   0.61883   0.93802   0.00000  Uiso   1.00
C1311  C     0.11415   0.85743   0.87953   0.00000  Uiso   1.00
C1312  C     0.13085   0.90905   0.87850   0.00000  Uiso   1.00
C1313  C     0.39416   0.63693   0.85800   0.00000  Uiso   1.00
C1314  C     0.23128   0.89511   0.79519   0.00000  Uiso   1.00
C1315  C     0.37805   0.58575   0.85049   0.00000  Uiso   1.00
C1316  C     0.39392   0.86163   0.81003   0.00000  Uiso   1.00
C1317  C     0.37846   0.91341   0.81461   0.00000  Uiso   1.00
C1318  C     0.10829   0.64145   0.79586   0.00000  Uiso   1.00
C1319  C     0.12772   0.59099   0.79601   0.00000  Uiso   1.00
C1320  C     0.16649   0.53336   0.91076   0.00000  Uiso   1.00
C1321  C     0.16335   0.96619   0.76027   0.00000  Uiso   1.00
C1322  C     0.32564   0.52776   0.75272   0.00000  Uiso   1.00
C1323  C     0.32783   0.97128   0.91263   0.00000  Uiso   1.00
C1324  C     0.26556   0.60442   0.79406   0.00000  Uiso   1.00
C1325  C     0.26676   0.89542   0.87214   0.00000  Uiso   1.00
C1326  C     0.23001   0.55408   0.87289   0.00000  Uiso   1.00
C1327  C     0.22856   0.94600   0.79492   0.00000  Uiso   1.00
C1328  C     0.26510   0.55342   0.79328   0.00000  Uiso   1.00
Cu1329 Cu    0.25000   0.79822   0.83333   0.00000  Uiso   1.00
Cu1330 Cu    0.25000   0.70179   0.83333   0.00000  Uiso   1.00
H1331  H     0.21971   0.62494   0.90295   0.00000  Uiso   1.00
H1332  H     0.43579   0.69529   0.73014   0.00000  Uiso   1.00
H1333  H     0.47091   0.64432   0.72428   0.00000  Uiso   1.00
H1334  H     0.03713   0.69623   0.72467   0.00000  Uiso   1.00
H1335  H     0.49911   0.71491   0.67733   0.00000  Uiso   1.00
H1336  H     0.00326   0.74903   0.73290   0.00000  Uiso   1.00
H1337  H     0.00960   0.78056   0.93216   0.00000  Uiso   1.00
H1338  H     0.45307   0.78604   0.95211   0.00000  Uiso   1.00
H1339  H     0.46519   0.86973   0.97603   0.00000  Uiso   1.00
H1340  H     0.00728   0.83185   0.66948   0.00000  Uiso   1.00
H1341  H     0.01985   0.86923   0.95049   0.00000  Uiso   1.00
H1342  H     0.21741   0.87517   0.76496   0.00000  Uiso   1.00
H1343  H     0.48988   0.69042   0.92444   0.00000  Uiso   1.00
H1344  H     0.04826   0.68658   0.93719   0.00000  Uiso   1.00
H1345  H     0.04469   0.59734   0.93148   0.00000  Uiso   1.00
H1346  H     0.00855   0.62057   0.97810   0.00000  Uiso   1.00
H1347  H     0.48638   0.60065   0.92020   0.00000  Uiso   1.00
H1348  H     0.13572   0.83570   0.90415   0.00000  Uiso   1.00
H1349  H     0.08050   0.85816   0.89521   0.00000  Uiso   1.00
H1350  H     0.10990   0.93146   0.85405   0.00000  Uiso   1.00
H1351  H     0.12991   0.92429   0.91606   0.00000  Uiso   1.00
H1352  H     0.16508   0.90999   0.86520   0.00000  Uiso   1.00
H1353  H     0.27877   0.62393   0.76299   0.00000  Uiso   1.00
H1354  H     0.37588   0.65289   0.88931   0.00000  Uiso   1.00
H1355  H     0.42952   0.63453   0.86786   0.00000  Uiso   1.00
H1356  H     0.39497   0.56939   0.81865   0.00000  Uiso   1.00
H1357  H     0.38530   0.56381   0.88373   0.00000  Uiso   1.00
H1358  H     0.34221   0.58580   0.84436   0.00000  Uiso   1.00
H1359  H     0.37594   0.84455   0.77906   0.00000  Uiso   1.00
H1360  H     0.42947   0.86297   0.80094   0.00000  Uiso   1.00
H1361  H     0.39551   0.93110   0.84566   0.00000  Uiso   1.00
H1362  H     0.38611   0.93353   0.78034   0.00000  Uiso   1.00
H1363  H     0.34259   0.91428   0.82037   0.00000  Uiso   1.00
H1364  H     0.28085   0.87574   0.90266   0.00000  Uiso   1.00
H1365  H     0.12528   0.66328   0.76718   0.00000  Uiso   1.00
H1366  H     0.07298   0.63807   0.78599   0.00000  Uiso   1.00
H1367  H     0.11081   0.56823   0.82375   0.00000  Uiso   1.00
H1368  H     0.12338   0.57442   0.75934   0.00000  Uiso   1.00
H1369  H     0.16318   0.59258   0.80449   0.00000  Uiso   1.00
H1370  H     0.15399   0.51481   0.87755   0.00000  Uiso   1.00
H1371  H     0.15467   0.57134   0.91176   0.00000  Uiso   1.00
H1372  H     0.15268   0.51442   0.94318   0.00000  Uiso   1.00
H1373  H     0.15196   0.98385   0.79444   0.00000  Uiso   1.00
H1374  H     0.15192   0.92808   0.75903   0.00000  Uiso   1.00
H1375  H     0.49465   0.83088   0.75406   0.00000  Uiso   1.00
H1376  H     0.14803   0.98557   0.72894   0.00000  Uiso   1.00
H1377  H     0.33798   0.50989   0.78667   0.00000  Uiso   1.00
H1378  H     0.33994   0.56446   0.74849   0.00000  Uiso   1.00
H1379  H     0.33685   0.50591   0.72117   0.00000  Uiso   1.00
H1380  H     0.33976   0.98883   0.87839   0.00000  Uiso   1.00
H1381  H     0.34180   0.93441   0.91682   0.00000  Uiso   1.00
H1382  H     0.33980   0.99313   0.94386   0.00000  Uiso   1.00
H1383  H     0.05394   0.83274   0.74932   0.00000  Uiso   1.00
H1384  H     0.05352   0.91805   0.77698   0.00000  Uiso   1.00
H1385  H     0.02130   0.90971   0.72206   0.00000  Uiso   1.00
H1386  H     0.49435   0.91672   0.78053   0.00000  Uiso   1.00
N1387  N     0.25000   0.62935   0.83333   0.00000  Uiso   1.00
N1388  N     0.25000   0.87066   0.83333   0.00000  Uiso   1.00
O1389  O     0.18573   0.79072   0.83334   0.00000  Uiso   1.00
O1390  O     0.47542   0.67643   0.79162   0.00000  Uiso   1.00
O1391  O     0.47002   0.82421   0.88822   0.00000  Uiso   1.00
O1392  O     0.02744   0.66664   0.86629   0.00000  Uiso   1.00
O1393  O     0.11457   0.83835   0.83151   0.00000  Uiso   1.00
O1394  O     0.38742   0.66467   0.81482   0.00000  Uiso   1.00
O1395  O     0.38606   0.83601   0.85430   0.00000  Uiso   1.00
O1396  O     0.11387   0.66257   0.84258   0.00000  Uiso   1.00
O1397  O     0.21252   0.53074   0.91331   0.00000  Uiso   1.00
O1398  O     0.20922   0.96952   0.75561   0.00000  Uiso   1.00
O1399  O     0.27957   0.52943   0.75204   0.00000  Uiso   1.00
O1400  O     0.31427   0.70929   0.83333   0.00000  Uiso   1.00
O1401  O     0.28177   0.97026   0.91409   0.00000  Uiso   1.00
O1402  O     0.31427   0.79072   0.83333   0.00000  Uiso   1.00
O1403  O     0.18573   0.70929   0.83334   0.00000  Uiso   1.00
O1404  O     0.25000   0.79071   0.76280   0.00000  Uiso   1.00
O1405  O     0.25000   0.70929   0.90387   0.00000  Uiso   1.00
O1406  O     0.25000   0.79071   0.90387   0.00000  Uiso   1.00
O1407  O     0.25000   0.70929   0.76280   0.00000  Uiso   1.00
O1408  O     0.02609   0.83701   0.82039   0.00000  Uiso   1.00
C1409  C     0.66488   0.75004   0.83379   0.00000  Uiso   1.00
C1410  C     0.76630   0.94641   0.87316   0.00000  Uiso   1.00
C1411  C     0.74999   0.75009   0.74016   0.00000  Uiso   1.00
C1412  C     0.74999   0.74991   0.92650   0.00000  Uiso   1.00
C1413  C     0.74720   0.52730   0.83330   0.00000  Uiso   1.00
C1414  C     0.74715   0.97265   0.83389   0.00000  Uiso   1.00
C1415  C     0.74998   0.75012   0.68849   0.00000  Uiso   1.00
C1416  C     0.74998   0.74988   0.97817   0.00000  Uiso   1.00
C1417  C     0.54750   0.79381   0.82901   0.00000  Uiso   1.00
C1418  C     0.95299   0.71258   0.81590   0.00000  Uiso   1.00
C1419  C     0.95102   0.78803   0.86072   0.00000  Uiso   1.00
C1420  C     0.83509   0.75002   0.83350   0.00000  Uiso   1.00
C1421  C     0.54791   0.70846   0.85046   0.00000  Uiso   1.00
C1422  C     0.59322   0.79429   0.83265   0.00000  Uiso   1.00
C1423  C     0.90750   0.70882   0.82194   0.00000  Uiso   1.00
C1424  C     0.90639   0.79164   0.85002   0.00000  Uiso   1.00
C1425  C     0.59300   0.70689   0.84197   0.00000  Uiso   1.00
C1426  C     0.61656   0.75033   0.83568   0.00000  Uiso   1.00
C1427  C     0.88335   0.75019   0.83486   0.00000  Uiso   1.00
C1428  C     0.52421   0.75108   0.83997   0.00000  Uiso   1.00
C1429  C     0.97562   0.75040   0.83939   0.00000  Uiso   1.00
C1430  C     0.52494   0.84687   0.76962   0.00000  Uiso   1.00
C1431  C     0.73257   0.60497   0.87225   0.00000  Uiso   1.00
C1432  C     0.52339   0.90126   0.76184   0.00000  Uiso   1.00
C1433  C     0.96872   0.68092   0.74043   0.00000  Uiso   1.00
C1434  C     0.50438   0.71220   0.71747   0.00000  Uiso   1.00
C1435  C     0.98116   0.80545   0.93482   0.00000  Uiso   1.00
C1436  C     0.99413   0.84679   0.96808   0.00000  Uiso   1.00
C1437  C     0.52027   0.66953   0.91732   0.00000  Uiso   1.00
C1438  C     0.51457   0.61883   0.93802   0.00000  Uiso   1.00
C1439  C     0.61415   0.85743   0.87953   0.00000  Uiso   1.00
C1440  C     0.63085   0.90905   0.87850   0.00000  Uiso   1.00
C1441  C     0.89416   0.63693   0.85800   0.00000  Uiso   1.00
C1442  C     0.73128   0.89511   0.79519   0.00000  Uiso   1.00
C1443  C     0.87805   0.58575   0.85049   0.00000  Uiso   1.00
C1444  C     0.89392   0.86163   0.81003   0.00000  Uiso   1.00
C1445  C     0.87846   0.91341   0.81461   0.00000  Uiso   1.00
C1446  C     0.60829   0.64145   0.79586   0.00000  Uiso   1.00
C1447  C     0.62772   0.59099   0.79601   0.00000  Uiso   1.00
C1448  C     0.66649   0.53336   0.91076   0.00000  Uiso   1.00
C1449  C     0.66335   0.96619   0.76027   0.00000  Uiso   1.00
C1450  C     0.82564   0.52776   0.75272   0.00000  Uiso   1.00
C1451  C     0.82783   0.97128   0.91263   0.00000  Uiso   1.00
C1452  C     0.76556   0.60442   0.79406   0.00000  Uiso   1.00
C1453  C     0.76676   0.89542   0.87214   0.00000  Uiso   1.00
C1454  C     0.73001   0.55408   0.87289   0.00000  Uiso   1.00
C1455  C     0.72856   0.94600   0.79492   0.00000  Uiso   1.00
C1456  C     0.76510   0.55342   0.79328   0.00000  Uiso   1.00
Cu1457 Cu    0.75000   0.79822   0.83333   0.00000  Uiso   1.00
Cu1458 Cu    0.75000   0.70179   0.83333   0.00000  Uiso   1.00
H1459  H     0.71971   0.62494   0.90295   0.00000  Uiso   1.00
H1460  H     0.93579   0.69529   0.73014   0.00000  Uiso   1.00
H1461  H     0.97091   0.64432   0.72428   0.00000  Uiso   1.00
H1462  H     0.53713   0.69623   0.72467   0.00000  Uiso   1.00
H1463  H     0.99911   0.71491   0.67733   0.00000  Uiso   1.00
H1464  H     0.50326   0.74903   0.73290   0.00000  Uiso   1.00
H1465  H     0.50960   0.78056   0.93216   0.00000  Uiso   1.00
H1466  H     0.95307   0.78604   0.95211   0.00000  Uiso   1.00
H1467  H     0.96519   0.86973   0.97603   0.00000  Uiso   1.00
H1468  H     0.50728   0.83185   0.66948   0.00000  Uiso   1.00
H1469  H     0.51985   0.86923   0.95049   0.00000  Uiso   1.00
H1470  H     0.71741   0.87517   0.76496   0.00000  Uiso   1.00
H1471  H     0.98988   0.69042   0.92444   0.00000  Uiso   1.00
H1472  H     0.54826   0.68658   0.93719   0.00000  Uiso   1.00
H1473  H     0.54469   0.59734   0.93148   0.00000  Uiso   1.00
H1474  H     0.50855   0.62057   0.97810   0.00000  Uiso   1.00
H1475  H     0.98638   0.60065   0.92020   0.00000  Uiso   1.00
H1476  H     0.63572   0.83570   0.90415   0.00000  Uiso   1.00
H1477  H     0.58050   0.85816   0.89521   0.00000  Uiso   1.00
H1478  H     0.60990   0.93146   0.85405   0.00000  Uiso   1.00
H1479  H     0.62991   0.92429   0.91606   0.00000  Uiso   1.00
H1480  H     0.66508   0.90999   0.86520   0.00000  Uiso   1.00
H1481  H     0.77877   0.62393   0.76299   0.00000  Uiso   1.00
H1482  H     0.87588   0.65289   0.88931   0.00000  Uiso   1.00
H1483  H     0.92952   0.63453   0.86786   0.00000  Uiso   1.00
H1484  H     0.89497   0.56939   0.81865   0.00000  Uiso   1.00
H1485  H     0.88530   0.56381   0.88373   0.00000  Uiso   1.00
H1486  H     0.84221   0.58580   0.84436   0.00000  Uiso   1.00
H1487  H     0.87594   0.84455   0.77906   0.00000  Uiso   1.00
H1488  H     0.92947   0.86297   0.80094   0.00000  Uiso   1.00
H1489  H     0.89551   0.93110   0.84566   0.00000  Uiso   1.00
H1490  H     0.88611   0.93353   0.78034   0.00000  Uiso   1.00
H1491  H     0.84259   0.91428   0.82037   0.00000  Uiso   1.00
H1492  H     0.78085   0.87574   0.90266   0.00000  Uiso   1.00
H1493  H     0.62528   0.66328   0.76718   0.00000  Uiso   1.00
H1494  H     0.57298   0.63807   0.78599   0.00000  Uiso   1.00
H1495  H     0.61081   0.56823   0.82375   0.00000  Uiso   1.00
H1496  H     0.62338   0.57442   0.75934   0.00000  Uiso   1.00
H1497  H     0.66318   0.59258   0.80449   0.00000  Uiso   1.00
H1498  H     0.65399   0.51481   0.87755   0.00000  Uiso   1.00
H1499  H     0.65467   0.57134   0.91176   0.00000  Uiso   1.00
H1500  H     0.65268   0.51442   0.94318   0.00000  Uiso   1.00
H1501  H     0.65196   0.98385   0.79444   0.00000  Uiso   1.00
H1502  H     0.65192   0.92808   0.75903   0.00000  Uiso   1.00
H1503  H     0.99465   0.83088   0.75406   0.00000  Uiso   1.00
H1504  H     0.64803   0.98557   0.72894   0.00000  Uiso   1.00
H1505  H     0.83798   0.50989   0.78667   0.00000  Uiso   1.00
H1506  H     0.83994   0.56446   0.74849   0.00000  Uiso   1.00
H1507  H     0.83685   0.50591   0.72117   0.00000  Uiso   1.00
H1508  H     0.83976   0.98883   0.87839   0.00000  Uiso   1.00
H1509  H     0.84180   0.93441   0.91682   0.00000  Uiso   1.00
H1510  H     0.83980   0.99313   0.94386   0.00000  Uiso   1.00
H1511  H     0.55394   0.83274   0.74932   0.00000  Uiso   1.00
H1512  H     0.55352   0.91805   0.77698   0.00000  Uiso   1.00
H1513  H     0.52130   0.90971   0.72206   0.00000  Uiso   1.00
H1514  H     0.99435   0.91672   0.78053   0.00000  Uiso   1.00
N1515  N     0.75000   0.62935   0.83333   0.00000  Uiso   1.00
N1516  N     0.75000   0.87066   0.83333   0.00000  Uiso   1.00
O1517  O     0.68573   0.79072   0.83334   0.00000  Uiso   1.00
O1518  O     0.97542   0.67643   0.79162   0.00000  Uiso   1.00
O1519  O     0.97002   0.82421   0.88822   0.00000  Uiso   1.00
O1520  O     0.52744   0.66664   0.86629   0.00000  Uiso   1.00
O1521  O     0.61457   0.83835   0.83151   0.00000  Uiso   1.00
O1522  O     0.88742   0.66467   0.81482   0.00000  Uiso   1.00
O1523  O     0.88606   0.83601   0.85430   0.00000  Uiso   1.00
O1524  O     0.61387   0.66257   0.84258   0.00000  Uiso   1.00
O1525  O     0.71252   0.53074   0.91331   0.00000  Uiso   1.00
O1526  O     0.70922   0.96952   0.75561   0.00000  Uiso   1.00
O1527  O     0.77957   0.52943   0.75204   0.00000  Uiso   1.00
O1528  O     0.81427   0.70929   0.83333   0.00000  Uiso   1.00
O1529  O     0.78177   0.97026   0.91409   0.00000  Uiso   1.00
O1530  O     0.81427   0.79072   0.83333   0.00000  Uiso   1.00
O1531  O     0.68573   0.70929   0.83334   0.00000  Uiso   1.00
O1532  O     0.75000   0.79071   0.76280   0.00000  Uiso   1.00
O1533  O     0.75000   0.70929   0.90387   0.00000  Uiso   1.00
O1534  O     0.75000   0.79071   0.90387   0.00000  Uiso   1.00
O1535  O     0.75000   0.70929   0.76280   0.00000  Uiso   1.00
O1536  O     0.52609   0.83701   0.82039   0.00000  Uiso   1.00
loop_
_geom_bond_atom_site_label_1
_geom_bond_atom_site_label_2
_geom_bond_distance
_geom_bond_site_symmetry_2
_ccdc_geom_bond_type
C1     O109    1.294   .     A
C1     O123    1.296   .     A
C1     C18     1.476   .     S
C2     O121    1.383   .     S
C2     C45     1.413   .     A
C2     C6      1.416   .     A
C3     C7      1.409   .     S
C3     O127    1.285   .     A
C3     O124    1.287   .     A
C4     C8      1.409   .     S
C4     O125    1.287   .     A
C4     O126    1.285   .     A
C5     C48     1.416   .     A
C5     C46     1.415   .     A
C5     C262    1.514   1_545 S
C6     C47     1.415   .     A
C6     C261    1.514   .     S
C7     C1032   1.190   1_554 S
C8     C519    1.190   .     S
C9     O128    1.383   .     S
C9     C14     1.399   .     A
C9     C20     1.412   .     A
C10    C15     1.403   .     A
C10    C21     1.411   .     A
C10    O110    1.385   .     S
C11    O111    1.383   .     S
C11    C21     1.414   .     A
C11    C16     1.396   .     A
C12    O120    1.295   .     A
C12    C19     1.474   .     S
C12    O122    1.294   .     A
C13    O112    1.384   .     S
C13    C20     1.412   .     A
C13    C17     1.397   .     A
C14    C18     1.413   .     A
C14    O113    1.384   .     S
C15    C19     1.410   .     A
C15    O114    1.383   .     S
C16    O115    1.383   .     S
C16    C19     1.411   .     A
C17    C18     1.412   .     A
C17    O116    1.383   .     S
C20    C149    1.484   1_455 S
C21    C148    1.484   .     S
C22    H103    1.117   .     S
C22    O128    1.410   .     S
C22    C24     1.521   .     S
C22    H223    1.110   1_455 S
C23    H51     1.081   .     S
C23    C46     1.412   .     A
C23    N107    1.363   .     A
C24    H104    1.111   .     S
C24    H105    1.110   .     S
C24    H234    1.111   1_455 S
C25    H53     1.110   .     S
C25    O110    1.415   .     S
C25    H52     1.116   .     S
C25    C154    1.524   .     S
C26    H54     1.110   .     S
C26    H56     1.107   .     S
C26    C153    1.524   1_455 S
C26    H183    1.108   1_455 S
C27    O111    1.411   .     S
C27    H58     1.116   .     S
C27    C28     1.517   .     S
C27    H185    1.111   .     S
C28    H59     1.111   .     S
C28    H700    1.106   .     S
C28    H189    1.110   .     S
C29    O112    1.411   .     S
C29    H64     1.117   .     S
C29    C30     1.521   .     S
C29    H191    1.112   1_455 S
C30    H66     1.110   .     S
C30    H65     1.111   .     S
C30    H195    1.110   1_455 S
C31    H68     1.114   .     S
C31    C32     1.518   .     S
C31    H69     1.114   .     S
C31    O113    1.415   .     S
C32    H72     1.107   .     S
C32    H71     1.110   .     S
C32    H70     1.110   .     S
C33    O114    1.417   .     S
C33    H75     1.114   .     S
C33    C35     1.516   .     S
C33    H74     1.114   .     S
C34    C47     1.412   .     A
C34    H62     1.081   .     S
C34    N108    1.363   .     A
C35    H76     1.110   .     S
C35    H78     1.107   .     S
C35    H77     1.110   .     S
C36    C37     1.516   .     S
C36    H80     1.114   .     S
C36    H79     1.114   .     S
C36    O115    1.418   .     S
C37    H81     1.110   .     S
C37    H82     1.110   .     S
C37    H83     1.107   .     S
C38    H86     1.115   .     S
C38    C39     1.519   .     S
C38    H85     1.114   .     S
C38    O116    1.415   .     S
C39    H87     1.110   .     S
C39    H89     1.108   .     S
C39    H88     1.110   .     S
C40    O117    1.409   .     S
C40    H92     1.109   .     S
C40    H91     1.113   .     S
C40    H90     1.111   .     S
C41    H96     1.109   .     S
C41    H93     1.111   .     S
C41    H94     1.113   .     S
C41    O118    1.409   .     S
C42    H98     1.112   .     S
C42    O119    1.407   .     S
C42    H97     1.112   .     S
C42    H99     1.109   .     S
C43    H101    1.112   .     S
C43    O121    1.407   .     S
C43    H100    1.112   .     S
C43    H102    1.109   .     S
C44    N107    1.364   .     A
C44    H73     1.081   .     S
C44    C48     1.413   .     A
C45    N108    1.364   .     A
C45    H84     1.081   .     S
C46    O117    1.383   .     S
C47    O118    1.383   .     S
C48    O119    1.383   .     S
Cu49   O126    1.933   .     S
Cu49   N108    2.007   .     S
Cu49   O124    1.936   .     S
Cu49   O109    1.973   .     S
Cu49   O122    1.973   .     S
Cu49   Cu50    2.672   .     S
Cu50   O120    1.973   .     S
Cu50   O125    1.936   .     S
Cu50   N107    2.007   .     S
Cu50   O123    1.973   .     S
Cu50   O127    1.933   .     S
H55    C154    1.108   .     S
H57    C155    1.111   1_455 S
H60    C1180   1.106   1_454 S
H61    C156    1.110   1_455 S
H63    C157    1.112   .     S
H67    C158    1.110   .     S
H95    C150    1.110   .     S
H106   C152    1.111   .     S
C129   O237    1.294   .     A
C129   O251    1.296   .     A
C129   C146    1.476   .     S
C130   O249    1.383   .     S
C130   C173    1.413   .     A
C130   C134    1.416   .     A
C131   C135    1.409   .     S
C131   O255    1.285   .     A
C131   O252    1.287   .     A
C132   C136    1.409   .     S
C132   O253    1.287   .     A
C132   O254    1.285   .     A
C133   C176    1.416   .     A
C133   C174    1.415   .     A
C133   C390    1.514   1_545 S
C134   C175    1.415   .     A
C134   C389    1.514   .     S
C135   C1160   1.190   1_554 S
C136   C647    1.190   .     S
C137   O256    1.383   .     S
C137   C142    1.399   .     A
C137   C148    1.412   .     A
C138   C143    1.403   .     A
C138   C149    1.411   .     A
C138   O238    1.385   .     S
C139   O239    1.383   .     S
C139   C149    1.414   .     A
C139   C144    1.396   .     A
C140   O248    1.295   .     A
C140   C147    1.474   .     S
C140   O250    1.294   .     A
C141   O240    1.384   .     S
C141   C148    1.412   .     A
C141   C145    1.397   .     A
C142   C146    1.413   .     A
C142   O241    1.384   .     S
C143   C147    1.410   .     A
C143   O242    1.383   .     S
C144   O243    1.383   .     S
C144   C147    1.411   .     A
C145   C146    1.412   .     A
C145   O244    1.383   .     S
C149   C20     1.484   1_655 S
C150   H231    1.117   .     S
C150   O256    1.410   .     S
C150   C152    1.521   .     S
C151   H179    1.081   .     S
C151   C174    1.412   .     A
C151   N235    1.363   .     A
C152   H232    1.111   .     S
C152   H233    1.110   .     S
C153   H181    1.110   .     S
C153   O238    1.415   .     S
C153   H180    1.116   .     S
C153   C26     1.524   1_655 S
C154   H182    1.110   .     S
C154   H184    1.107   .     S
C155   O239    1.411   .     S
C155   H186    1.116   .     S
C155   C156    1.517   .     S
C155   H57     1.111   1_655 S
C156   H187    1.111   .     S
C156   H572    1.106   1_655 S
C156   H61     1.110   1_655 S
C157   O240    1.411   .     S
C157   H192    1.117   .     S
C157   C158    1.521   .     S
C158   H194    1.110   .     S
C158   H193    1.111   .     S
C159   H196    1.114   .     S
C159   C160    1.518   .     S
C159   H197    1.114   .     S
C159   O241    1.415   .     S
C160   H200    1.107   .     S
C160   H199    1.110   .     S
C160   H198    1.110   .     S
C161   O242    1.417   .     S
C161   H203    1.114   .     S
C161   C163    1.516   .     S
C161   H202    1.114   .     S
C162   C175    1.412   .     A
C162   H190    1.081   .     S
C162   N236    1.363   .     A
C163   H204    1.110   .     S
C163   H206    1.107   .     S
C163   H205    1.110   .     S
C164   C165    1.516   .     S
C164   H208    1.114   .     S
C164   H207    1.114   .     S
C164   O243    1.418   .     S
C165   H209    1.110   .     S
C165   H210    1.110   .     S
C165   H211    1.107   .     S
C166   H214    1.115   .     S
C166   C167    1.519   .     S
C166   H213    1.114   .     S
C166   O244    1.415   .     S
C167   H215    1.110   .     S
C167   H217    1.108   .     S
C167   H216    1.110   .     S
C168   O245    1.409   .     S
C168   H220    1.109   .     S
C168   H219    1.113   .     S
C168   H218    1.111   .     S
C169   H224    1.109   .     S
C169   H221    1.111   .     S
C169   H222    1.113   .     S
C169   O246    1.409   .     S
C170   H226    1.112   .     S
C170   O247    1.407   .     S
C170   H225    1.112   .     S
C170   H227    1.109   .     S
C171   H229    1.112   .     S
C171   O249    1.407   .     S
C171   H228    1.112   .     S
C171   H230    1.109   .     S
C172   N235    1.364   .     A
C172   H201    1.081   .     S
C172   C176    1.413   .     A
C173   N236    1.364   .     A
C173   H212    1.081   .     S
C174   O245    1.383   .     S
C175   O246    1.383   .     S
C176   O247    1.383   .     S
Cu177  O254    1.933   .     S
Cu177  N236    2.007   .     S
Cu177  O252    1.936   .     S
Cu177  O237    1.973   .     S
Cu177  O250    1.973   .     S
Cu177  Cu178   2.672   .     S
Cu178  O248    1.973   .     S
Cu178  O253    1.936   .     S
Cu178  N235    2.007   .     S
Cu178  O251    1.973   .     S
Cu178  O255    1.933   .     S
H183   C26     1.108   1_655 S
H188   C1052   1.106   1_554 S
H191   C29     1.112   1_655 S
H195   C30     1.110   1_655 S
H223   C22     1.110   1_655 S
H234   C24     1.111   1_655 S
C257   O365    1.294   .     A
C257   O379    1.296   .     A
C257   C274    1.476   .     S
C258   O377    1.383   .     S
C258   C301    1.413   .     A
C258   C262    1.416   .     A
C259   C263    1.409   .     S
C259   O383    1.285   .     A
C259   O380    1.287   .     A
C260   C264    1.409   .     S
C260   O381    1.287   .     A
C260   O382    1.285   .     A
C261   C304    1.416   .     A
C261   C302    1.415   .     A
C262   C303    1.415   .     A
C262   C5      1.514   1_565 S
C263   C1288   1.190   1_554 S
C264   C775    1.190   .     S
C265   O384    1.383   .     S
C265   C270    1.399   .     A
C265   C276    1.412   .     A
C266   C271    1.403   .     A
C266   C277    1.411   .     A
C266   O366    1.385   .     S
C267   O367    1.383   .     S
C267   C277    1.414   .     A
C267   C272    1.396   .     A
C268   O376    1.295   .     A
C268   C275    1.474   .     S
C268   O378    1.294   .     A
C269   O368    1.384   .     S
C269   C276    1.412   .     A
C269   C273    1.397   .     A
C270   C274    1.413   .     A
C270   O369    1.384   .     S
C271   C275    1.410   .     A
C271   O370    1.383   .     S
C272   O371    1.383   .     S
C272   C275    1.411   .     A
C273   C274    1.412   .     A
C273   O372    1.383   .     S
C276   C405    1.484   1_455 S
C277   C404    1.484   .     S
C278   H359    1.117   .     S
C278   O384    1.410   .     S
C278   C280    1.521   .     S
C278   H479    1.110   1_455 S
C279   H307    1.081   .     S
C279   C302    1.412   .     A
C279   N363    1.363   .     A
C280   H360    1.111   .     S
C280   H361    1.110   .     S
C280   H490    1.111   1_455 S
C281   H309    1.110   .     S
C281   O366    1.415   .     S
C281   H308    1.116   .     S
C281   C410    1.524   .     S
C282   H310    1.110   .     S
C282   H312    1.107   .     S
C282   C409    1.524   1_455 S
C282   H439    1.108   1_455 S
C283   O367    1.411   .     S
C283   H314    1.116   .     S
C283   C284    1.517   .     S
C283   H441    1.111   .     S
C284   H315    1.111   .     S
C284   H956    1.106   .     S
C284   H445    1.110   .     S
C285   O368    1.411   .     S
C285   H320    1.117   .     S
C285   C286    1.521   .     S
C285   H447    1.112   1_455 S
C286   H322    1.110   .     S
C286   H321    1.111   .     S
C286   H451    1.110   1_455 S
C287   H324    1.114   .     S
C287   C288    1.518   .     S
C287   H325    1.114   .     S
C287   O369    1.415   .     S
C288   H328    1.107   .     S
C288   H327    1.110   .     S
C288   H326    1.110   .     S
C289   O370    1.417   .     S
C289   H331    1.114   .     S
C289   C291    1.516   .     S
C289   H330    1.114   .     S
C290   C303    1.412   .     A
C290   H318    1.081   .     S
C290   N364    1.363   .     A
C291   H332    1.110   .     S
C291   H334    1.107   .     S
C291   H333    1.110   .     S
C292   C293    1.516   .     S
C292   H336    1.114   .     S
C292   H335    1.114   .     S
C292   O371    1.418   .     S
C293   H337    1.110   .     S
C293   H338    1.110   .     S
C293   H339    1.107   .     S
C294   H342    1.115   .     S
C294   C295    1.519   .     S
C294   H341    1.114   .     S
C294   O372    1.415   .     S
C295   H343    1.110   .     S
C295   H345    1.108   .     S
C295   H344    1.110   .     S
C296   O373    1.409   .     S
C296   H348    1.109   .     S
C296   H347    1.113   .     S
C296   H346    1.111   .     S
C297   H352    1.109   .     S
C297   H349    1.111   .     S
C297   H350    1.113   .     S
C297   O374    1.409   .     S
C298   H354    1.112   .     S
C298   O375    1.407   .     S
C298   H353    1.112   .     S
C298   H355    1.109   .     S
C299   H357    1.112   .     S
C299   O377    1.407   .     S
C299   H356    1.112   .     S
C299   H358    1.109   .     S
C300   N363    1.364   .     A
C300   H329    1.081   .     S
C300   C304    1.413   .     A
C301   N364    1.364   .     A
C301   H340    1.081   .     S
C302   O373    1.383   .     S
C303   O374    1.383   .     S
C304   O375    1.383   .     S
Cu305  O382    1.933   .     S
Cu305  N364    2.007   .     S
Cu305  O380    1.936   .     S
Cu305  O365    1.973   .     S
Cu305  O378    1.973   .     S
Cu305  Cu306   2.672   .     S
Cu306  O376    1.973   .     S
Cu306  O381    1.936   .     S
Cu306  N363    2.007   .     S
Cu306  O379    1.973   .     S
Cu306  O383    1.933   .     S
H311   C410    1.108   .     S
H313   C411    1.111   1_455 S
H316   C1436   1.106   1_454 S
H317   C412    1.110   1_455 S
H319   C413    1.112   .     S
H323   C414    1.110   .     S
H351   C406    1.110   .     S
H362   C408    1.111   .     S
C385   O493    1.294   .     A
C385   O507    1.296   .     A
C385   C402    1.476   .     S
C386   O505    1.383   .     S
C386   C429    1.413   .     A
C386   C390    1.416   .     A
C387   C391    1.409   .     S
C387   O511    1.285   .     A
C387   O508    1.287   .     A
C388   C392    1.409   .     S
C388   O509    1.287   .     A
C388   O510    1.285   .     A
C389   C432    1.416   .     A
C389   C430    1.415   .     A
C390   C431    1.415   .     A
C390   C133    1.514   1_565 S
C391   C1416   1.190   1_554 S
C392   C903    1.190   .     S
C393   O512    1.383   .     S
C393   C398    1.399   .     A
C393   C404    1.412   .     A
C394   C399    1.403   .     A
C394   C405    1.411   .     A
C394   O494    1.385   .     S
C395   O495    1.383   .     S
C395   C405    1.414   .     A
C395   C400    1.396   .     A
C396   O504    1.295   .     A
C396   C403    1.474   .     S
C396   O506    1.294   .     A
C397   O496    1.384   .     S
C397   C404    1.412   .     A
C397   C401    1.397   .     A
C398   C402    1.413   .     A
C398   O497    1.384   .     S
C399   C403    1.410   .     A
C399   O498    1.383   .     S
C400   O499    1.383   .     S
C400   C403    1.411   .     A
C401   C402    1.412   .     A
C401   O500    1.383   .     S
C405   C276    1.484   1_655 S
C406   H487    1.117   .     S
C406   O512    1.410   .     S
C406   C408    1.521   .     S
C407   H435    1.081   .     S
C407   C430    1.412   .     A
C407   N491    1.363   .     A
C408   H488    1.111   .     S
C408   H489    1.110   .     S
C409   H437    1.110   .     S
C409   O494    1.415   .     S
C409   H436    1.116   .     S
C409   C282    1.524   1_655 S
C410   H438    1.110   .     S
C410   H440    1.107   .     S
C411   O495    1.411   .     S
C411   H442    1.116   .     S
C411   C412    1.517   .     S
C411   H313    1.111   1_655 S
C412   H443    1.111   .     S
C412   H828    1.106   1_655 S
C412   H317    1.110   1_655 S
C413   O496    1.411   .     S
C413   H448    1.117   .     S
C413   C414    1.521   .     S
C414   H450    1.110   .     S
C414   H449    1.111   .     S
C415   H452    1.114   .     S
C415   C416    1.518   .     S
C415   H453    1.114   .     S
C415   O497    1.415   .     S
C416   H456    1.107   .     S
C416   H455    1.110   .     S
C416   H454    1.110   .     S
C417   O498    1.417   .     S
C417   H459    1.114   .     S
C417   C419    1.516   .     S
C417   H458    1.114   .     S
C418   C431    1.412   .     A
C418   H446    1.081   .     S
C418   N492    1.363   .     A
C419   H460    1.110   .     S
C419   H462    1.107   .     S
C419   H461    1.110   .     S
C420   C421    1.516   .     S
C420   H464    1.114   .     S
C420   H463    1.114   .     S
C420   O499    1.418   .     S
C421   H465    1.110   .     S
C421   H466    1.110   .     S
C421   H467    1.107   .     S
C422   H470    1.115   .     S
C422   C423    1.519   .     S
C422   H469    1.114   .     S
C422   O500    1.415   .     S
C423   H471    1.110   .     S
C423   H473    1.108   .     S
C423   H472    1.110   .     S
C424   O501    1.409   .     S
C424   H476    1.109   .     S
C424   H475    1.113   .     S
C424   H474    1.111   .     S
C425   H480    1.109   .     S
C425   H477    1.111   .     S
C425   H478    1.113   .     S
C425   O502    1.409   .     S
C426   H482    1.112   .     S
C426   O503    1.407   .     S
C426   H481    1.112   .     S
C426   H483    1.109   .     S
C427   H485    1.112   .     S
C427   O505    1.407   .     S
C427   H484    1.112   .     S
C427   H486    1.109   .     S
C428   N491    1.364   .     A
C428   H457    1.081   .     S
C428   C432    1.413   .     A
C429   N492    1.364   .     A
C429   H468    1.081   .     S
C430   O501    1.383   .     S
C431   O502    1.383   .     S
C432   O503    1.383   .     S
Cu433  O510    1.933   .     S
Cu433  N492    2.007   .     S
Cu433  O508    1.936   .     S
Cu433  O493    1.973   .     S
Cu433  O506    1.973   .     S
Cu433  Cu434   2.672   .     S
Cu434  O504    1.973   .     S
Cu434  O509    1.936   .     S
Cu434  N491    2.007   .     S
Cu434  O507    1.973   .     S
Cu434  O511    1.933   .     S
H439   C282    1.108   1_655 S
H444   C1308   1.106   1_554 S
H447   C285    1.112   1_655 S
H451   C286    1.110   1_655 S
H479   C278    1.110   1_655 S
H490   C280    1.111   1_655 S
C513   O621    1.294   .     A
C513   O635    1.296   .     A
C513   C530    1.476   .     S
C514   O633    1.383   .     S
C514   C557    1.413   .     A
C514   C518    1.416   .     A
C515   C519    1.409   .     S
C515   O639    1.285   .     A
C515   O636    1.287   .     A
C516   C520    1.409   .     S
C516   O637    1.287   .     A
C516   O638    1.285   .     A
C517   C560    1.416   .     A
C517   C558    1.415   .     A
C517   C774    1.514   1_545 S
C518   C559    1.415   .     A
C518   C773    1.514   .     S
C520   C1031   1.190   .     S
C521   O640    1.383   .     S
C521   C526    1.399   .     A
C521   C532    1.412   .     A
C522   C527    1.403   .     A
C522   C533    1.411   .     A
C522   O622    1.385   .     S
C523   O623    1.383   .     S
C523   C533    1.414   .     A
C523   C528    1.396   .     A
C524   O632    1.295   .     A
C524   C531    1.474   .     S
C524   O634    1.294   .     A
C525   O624    1.384   .     S
C525   C532    1.412   .     A
C525   C529    1.397   .     A
C526   C530    1.413   .     A
C526   O625    1.384   .     S
C527   C531    1.410   .     A
C527   O626    1.383   .     S
C528   O627    1.383   .     S
C528   C531    1.411   .     A
C529   C530    1.412   .     A
C529   O628    1.383   .     S
C532   C661    1.484   1_455 S
C533   C660    1.484   .     S
C534   H615    1.117   .     S
C534   O640    1.410   .     S
C534   C536    1.521   .     S
C534   H735    1.110   1_455 S
C535   H563    1.081   .     S
C535   C558    1.412   .     A
C535   N619    1.363   .     A
C536   H616    1.111   .     S
C536   H617    1.110   .     S
C536   H746    1.111   1_455 S
C537   H565    1.110   .     S
C537   O622    1.415   .     S
C537   H564    1.116   .     S
C537   C666    1.524   .     S
C538   H566    1.110   .     S
C538   H568    1.107   .     S
C538   C665    1.524   1_455 S
C538   H695    1.108   1_455 S
C539   O623    1.411   .     S
C539   H570    1.116   .     S
C539   C540    1.517   .     S
C539   H697    1.111   .     S
C540   H571    1.111   .     S
C540   H1212   1.106   .     S
C540   H701    1.110   .     S
C541   O624    1.411   .     S
C541   H576    1.117   .     S
C541   C542    1.521   .     S
C541   H703    1.112   1_455 S
C542   H578    1.110   .     S
C542   H577    1.111   .     S
C542   H707    1.110   1_455 S
C543   H580    1.114   .     S
C543   C544    1.518   .     S
C543   H581    1.114   .     S
C543   O625    1.415   .     S
C544   H584    1.107   .     S
C544   H583    1.110   .     S
C544   H582    1.110   .     S
C545   O626    1.417   .     S
C545   H587    1.114   .     S
C545   C547    1.516   .     S
C545   H586    1.114   .     S
C546   C559    1.412   .     A
C546   H574    1.081   .     S
C546   N620    1.363   .     A
C547   H588    1.110   .     S
C547   H590    1.107   .     S
C547   H589    1.110   .     S
C548   C549    1.516   .     S
C548   H592    1.114   .     S
C548   H591    1.114   .     S
C548   O627    1.418   .     S
C549   H593    1.110   .     S
C549   H594    1.110   .     S
C549   H595    1.107   .     S
C550   H598    1.115   .     S
C550   C551    1.519   .     S
C550   H597    1.114   .     S
C550   O628    1.415   .     S
C551   H599    1.110   .     S
C551   H601    1.108   .     S
C551   H600    1.110   .     S
C552   O629    1.409   .     S
C552   H604    1.109   .     S
C552   H603    1.113   .     S
C552   H602    1.111   .     S
C553   H608    1.109   .     S
C553   H605    1.111   .     S
C553   H606    1.113   .     S
C553   O630    1.409   .     S
C554   H610    1.112   .     S
C554   O631    1.407   .     S
C554   H609    1.112   .     S
C554   H611    1.109   .     S
C555   H613    1.112   .     S
C555   O633    1.407   .     S
C555   H612    1.112   .     S
C555   H614    1.109   .     S
C556   N619    1.364   .     A
C556   H585    1.081   .     S
C556   C560    1.413   .     A
C557   N620    1.364   .     A
C557   H596    1.081   .     S
C558   O629    1.383   .     S
C559   O630    1.383   .     S
C560   O631    1.383   .     S
Cu561  O638    1.933   .     S
Cu561  N620    2.007   .     S
Cu561  O636    1.936   .     S
Cu561  O621    1.973   .     S
Cu561  O634    1.973   .     S
Cu561  Cu562   2.672   .     S
Cu562  O632    1.973   .     S
Cu562  O637    1.936   .     S
Cu562  N619    2.007   .     S
Cu562  O635    1.973   .     S
Cu562  O639    1.933   .     S
H567   C666    1.108   .     S
H569   C667    1.111   1_455 S
H572   C156    1.106   1_455 S
H573   C668    1.110   1_455 S
H575   C669    1.112   .     S
H579   C670    1.110   .     S
H607   C662    1.110   .     S
H618   C664    1.111   .     S
C641   O749    1.294   .     A
C641   O763    1.296   .     A
C641   C658    1.476   .     S
C642   O761    1.383   .     S
C642   C685    1.413   .     A
C642   C646    1.416   .     A
C643   C647    1.409   .     S
C643   O767    1.285   .     A
C643   O764    1.287   .     A
C644   C648    1.409   .     S
C644   O765    1.287   .     A
C644   O766    1.285   .     A
C645   C688    1.416   .     A
C645   C686    1.415   .     A
C645   C902    1.514   1_545 S
C646   C687    1.415   .     A
C646   C901    1.514   .     S
C648   C1159   1.190   .     S
C649   O768    1.383   .     S
C649   C654    1.399   .     A
C649   C660    1.412   .     A
C650   C655    1.403   .     A
C650   C661    1.411   .     A
C650   O750    1.385   .     S
C651   O751    1.383   .     S
C651   C661    1.414   .     A
C651   C656    1.396   .     A
C652   O760    1.295   .     A
C652   C659    1.474   .     S
C652   O762    1.294   .     A
C653   O752    1.384   .     S
C653   C660    1.412   .     A
C653   C657    1.397   .     A
C654   C658    1.413   .     A
C654   O753    1.384   .     S
C655   C659    1.410   .     A
C655   O754    1.383   .     S
C656   O755    1.383   .     S
C656   C659    1.411   .     A
C657   C658    1.412   .     A
C657   O756    1.383   .     S
C661   C532    1.484   1_655 S
C662   H743    1.117   .     S
C662   O768    1.410   .     S
C662   C664    1.521   .     S
C663   H691    1.081   .     S
C663   C686    1.412   .     A
C663   N747    1.363   .     A
C664   H744    1.111   .     S
C664   H745    1.110   .     S
C665   H693    1.110   .     S
C665   O750    1.415   .     S
C665   H692    1.116   .     S
C665   C538    1.524   1_655 S
C666   H694    1.110   .     S
C666   H696    1.107   .     S
C667   O751    1.411   .     S
C667   H698    1.116   .     S
C667   C668    1.517   .     S
C667   H569    1.111   1_655 S
C668   H699    1.111   .     S
C668   H1084   1.106   1_655 S
C668   H573    1.110   1_655 S
C669   O752    1.411   .     S
C669   H704    1.117   .     S
C669   C670    1.521   .     S
C670   H706    1.110   .     S
C670   H705    1.111   .     S
C671   H708    1.114   .     S
C671   C672    1.518   .     S
C671   H709    1.114   .     S
C671   O753    1.415   .     S
C672   H712    1.107   .     S
C672   H711    1.110   .     S
C672   H710    1.110   .     S
C673   O754    1.417   .     S
C673   H715    1.114   .     S
C673   C675    1.516   .     S
C673   H714    1.114   .     S
C674   C687    1.412   .     A
C674   H702    1.081   .     S
C674   N748    1.363   .     A
C675   H716    1.110   .     S
C675   H718    1.107   .     S
C675   H717    1.110   .     S
C676   C677    1.516   .     S
C676   H720    1.114   .     S
C676   H719    1.114   .     S
C676   O755    1.418   .     S
C677   H721    1.110   .     S
C677   H722    1.110   .     S
C677   H723    1.107   .     S
C678   H726    1.115   .     S
C678   C679    1.519   .     S
C678   H725    1.114   .     S
C678   O756    1.415   .     S
C679   H727    1.110   .     S
C679   H729    1.108   .     S
C679   H728    1.110   .     S
C680   O757    1.409   .     S
C680   H732    1.109   .     S
C680   H731    1.113   .     S
C680   H730    1.111   .     S
C681   H736    1.109   .     S
C681   H733    1.111   .     S
C681   H734    1.113   .     S
C681   O758    1.409   .     S
C682   H738    1.112   .     S
C682   O759    1.407   .     S
C682   H737    1.112   .     S
C682   H739    1.109   .     S
C683   H741    1.112   .     S
C683   O761    1.407   .     S
C683   H740    1.112   .     S
C683   H742    1.109   .     S
C684   N747    1.364   .     A
C684   H713    1.081   .     S
C684   C688    1.413   .     A
C685   N748    1.364   .     A
C685   H724    1.081   .     S
C686   O757    1.383   .     S
C687   O758    1.383   .     S
C688   O759    1.383   .     S
Cu689  O766    1.933   .     S
Cu689  N748    2.007   .     S
Cu689  O764    1.936   .     S
Cu689  O749    1.973   .     S
Cu689  O762    1.973   .     S
Cu689  Cu690   2.672   .     S
Cu690  O760    1.973   .     S
Cu690  O765    1.936   .     S
Cu690  N747    2.007   .     S
Cu690  O763    1.973   .     S
Cu690  O767    1.933   .     S
H695   C538    1.108   1_655 S
H703   C541    1.112   1_655 S
H707   C542    1.110   1_655 S
H735   C534    1.110   1_655 S
H746   C536    1.111   1_655 S
C769   O877    1.294   .     A
C769   O891    1.296   .     A
C769   C786    1.476   .     S
C770   O889    1.383   .     S
C770   C813    1.413   .     A
C770   C774    1.416   .     A
C771   C775    1.409   .     S
C771   O895    1.285   .     A
C771   O892    1.287   .     A
C772   C776    1.409   .     S
C772   O893    1.287   .     A
C772   O894    1.285   .     A
C773   C816    1.416   .     A
C773   C814    1.415   .     A
C774   C815    1.415   .     A
C774   C517    1.514   1_565 S
C776   C1287   1.190   .     S
C777   O896    1.383   .     S
C777   C782    1.399   .     A
C777   C788    1.412   .     A
C778   C783    1.403   .     A
C778   C789    1.411   .     A
C778   O878    1.385   .     S
C779   O879    1.383   .     S
C779   C789    1.414   .     A
C779   C784    1.396   .     A
C780   O888    1.295   .     A
C780   C787    1.474   .     S
C780   O890    1.294   .     A
C781   O880    1.384   .     S
C781   C788    1.412   .     A
C781   C785    1.397   .     A
C782   C786    1.413   .     A
C782   O881    1.384   .     S
C783   C787    1.410   .     A
C783   O882    1.383   .     S
C784   O883    1.383   .     S
C784   C787    1.411   .     A
C785   C786    1.412   .     A
C785   O884    1.383   .     S
C788   C917    1.484   1_455 S
C789   C916    1.484   .     S
C790   H871    1.117   .     S
C790   O896    1.410   .     S
C790   C792    1.521   .     S
C790   H991    1.110   1_455 S
C791   H819    1.081   .     S
C791   C814    1.412   .     A
C791   N875    1.363   .     A
C792   H872    1.111   .     S
C792   H873    1.110   .     S
C792   H1002   1.111   1_455 S
C793   H821    1.110   .     S
C793   O878    1.415   .     S
C793   H820    1.116   .     S
C793   C922    1.524   .     S
C794   H822    1.110   .     S
C794   H824    1.107   .     S
C794   C921    1.524   1_455 S
C794   H951    1.108   1_455 S
C795   O879    1.411   .     S
C795   H826    1.116   .     S
C795   C796    1.517   .     S
C795   H953    1.111   .     S
C796   H827    1.111   .     S
C796   H1468   1.106   .     S
C796   H957    1.110   .     S
C797   O880    1.411   .     S
C797   H832    1.117   .     S
C797   C798    1.521   .     S
C797   H959    1.112   1_455 S
C798   H834    1.110   .     S
C798   H833    1.111   .     S
C798   H963    1.110   1_455 S
C799   H836    1.114   .     S
C799   C800    1.518   .     S
C799   H837    1.114   .     S
C799   O881    1.415   .     S
C800   H840    1.107   .     S
C800   H839    1.110   .     S
C800   H838    1.110   .     S
C801   O882    1.417   .     S
C801   H843    1.114   .     S
C801   C803    1.516   .     S
C801   H842    1.114   .     S
C802   C815    1.412   .     A
C802   H830    1.081   .     S
C802   N876    1.363   .     A
C803   H844    1.110   .     S
C803   H846    1.107   .     S
C803   H845    1.110   .     S
C804   C805    1.516   .     S
C804   H848    1.114   .     S
C804   H847    1.114   .     S
C804   O883    1.418   .     S
C805   H849    1.110   .     S
C805   H850    1.110   .     S
C805   H851    1.107   .     S
C806   H854    1.115   .     S
C806   C807    1.519   .     S
C806   H853    1.114   .     S
C806   O884    1.415   .     S
C807   H855    1.110   .     S
C807   H857    1.108   .     S
C807   H856    1.110   .     S
C808   O885    1.409   .     S
C808   H860    1.109   .     S
C808   H859    1.113   .     S
C808   H858    1.111   .     S
C809   H864    1.109   .     S
C809   H861    1.111   .     S
C809   H862    1.113   .     S
C809   O886    1.409   .     S
C810   H866    1.112   .     S
C810   O887    1.407   .     S
C810   H865    1.112   .     S
C810   H867    1.109   .     S
C811   H869    1.112   .     S
C811   O889    1.407   .     S
C811   H868    1.112   .     S
C811   H870    1.109   .     S
C812   N875    1.364   .     A
C812   H841    1.081   .     S
C812   C816    1.413   .     A
C813   N876    1.364   .     A
C813   H852    1.081   .     S
C814   O885    1.383   .     S
C815   O886    1.383   .     S
C816   O887    1.383   .     S
Cu817  O894    1.933   .     S
Cu817  N876    2.007   .     S
Cu817  O892    1.936   .     S
Cu817  O877    1.973   .     S
Cu817  O890    1.973   .     S
Cu817  Cu818   2.672   .     S
Cu818  O888    1.973   .     S
Cu818  O893    1.936   .     S
Cu818  N875    2.007   .     S
Cu818  O891    1.973   .     S
Cu818  O895    1.933   .     S
H823   C922    1.108   .     S
H825   C923    1.111   1_455 S
H828   C412    1.106   1_455 S
H829   C924    1.110   1_455 S
H831   C925    1.112   .     S
H835   C926    1.110   .     S
H863   C918    1.110   .     S
H874   C920    1.111   .     S
C897   O1005   1.294   .     A
C897   O1019   1.296   .     A
C897   C914    1.476   .     S
C898   O1017   1.383   .     S
C898   C941    1.413   .     A
C898   C902    1.416   .     A
C899   C903    1.409   .     S
C899   O1023   1.285   .     A
C899   O1020   1.287   .     A
C900   C904    1.409   .     S
C900   O1021   1.287   .     A
C900   O1022   1.285   .     A
C901   C944    1.416   .     A
C901   C942    1.415   .     A
C902   C943    1.415   .     A
C902   C645    1.514   1_565 S
C904   C1415   1.190   .     S
C905   O1024   1.383   .     S
C905   C910    1.399   .     A
C905   C916    1.412   .     A
C906   C911    1.403   .     A
C906   C917    1.411   .     A
C906   O1006   1.385   .     S
C907   O1007   1.383   .     S
C907   C917    1.414   .     A
C907   C912    1.396   .     A
C908   O1016   1.295   .     A
C908   C915    1.474   .     S
C908   O1018   1.294   .     A
C909   O1008   1.384   .     S
C909   C916    1.412   .     A
C909   C913    1.397   .     A
C910   C914    1.413   .     A
C910   O1009   1.384   .     S
C911   C915    1.410   .     A
C911   O1010   1.383   .     S
C912   O1011   1.383   .     S
C912   C915    1.411   .     A
C913   C914    1.412   .     A
C913   O1012   1.383   .     S
C917   C788    1.484   1_655 S
C918   H999    1.117   .     S
C918   O1024   1.410   .     S
C918   C920    1.521   .     S
C919   H947    1.081   .     S
C919   C942    1.412   .     A
C919   N1003   1.363   .     A
C920   H1000   1.111   .     S
C920   H1001   1.110   .     S
C921   H949    1.110   .     S
C921   O1006   1.415   .     S
C921   H948    1.116   .     S
C921   C794    1.524   1_655 S
C922   H950    1.110   .     S
C922   H952    1.107   .     S
C923   O1007   1.411   .     S
C923   H954    1.116   .     S
C923   C924    1.517   .     S
C923   H825    1.111   1_655 S
C924   H955    1.111   .     S
C924   H1340   1.106   1_655 S
C924   H829    1.110   1_655 S
C925   O1008   1.411   .     S
C925   H960    1.117   .     S
C925   C926    1.521   .     S
C926   H962    1.110   .     S
C926   H961    1.111   .     S
C927   H964    1.114   .     S
C927   C928    1.518   .     S
C927   H965    1.114   .     S
C927   O1009   1.415   .     S
C928   H968    1.107   .     S
C928   H967    1.110   .     S
C928   H966    1.110   .     S
C929   O1010   1.417   .     S
C929   H971    1.114   .     S
C929   C931    1.516   .     S
C929   H970    1.114   .     S
C930   C943    1.412   .     A
C930   H958    1.081   .     S
C930   N1004   1.363   .     A
C931   H972    1.110   .     S
C931   H974    1.107   .     S
C931   H973    1.110   .     S
C932   C933    1.516   .     S
C932   H976    1.114   .     S
C932   H975    1.114   .     S
C932   O1011   1.418   .     S
C933   H977    1.110   .     S
C933   H978    1.110   .     S
C933   H979    1.107   .     S
C934   H982    1.115   .     S
C934   C935    1.519   .     S
C934   H981    1.114   .     S
C934   O1012   1.415   .     S
C935   H983    1.110   .     S
C935   H985    1.108   .     S
C935   H984    1.110   .     S
C936   O1013   1.409   .     S
C936   H988    1.109   .     S
C936   H987    1.113   .     S
C936   H986    1.111   .     S
C937   H992    1.109   .     S
C937   H989    1.111   .     S
C937   H990    1.113   .     S
C937   O1014   1.409   .     S
C938   H994    1.112   .     S
C938   O1015   1.407   .     S
C938   H993    1.112   .     S
C938   H995    1.109   .     S
C939   H997    1.112   .     S
C939   O1017   1.407   .     S
C939   H996    1.112   .     S
C939   H998    1.109   .     S
C940   N1003   1.364   .     A
C940   H969    1.081   .     S
C940   C944    1.413   .     A
C941   N1004   1.364   .     A
C941   H980    1.081   .     S
C942   O1013   1.383   .     S
C943   O1014   1.383   .     S
C944   O1015   1.383   .     S
Cu945  O1022   1.933   .     S
Cu945  N1004   2.007   .     S
Cu945  O1020   1.936   .     S
Cu945  O1005   1.973   .     S
Cu945  O1018   1.973   .     S
Cu945  Cu946   2.672   .     S
Cu946  O1016   1.973   .     S
Cu946  O1021   1.936   .     S
Cu946  N1003   2.007   .     S
Cu946  O1019   1.973   .     S
Cu946  O1023   1.933   .     S
H951   C794    1.108   1_655 S
H959   C797    1.112   1_655 S
H963   C798    1.110   1_655 S
H991   C790    1.110   1_655 S
H1002  C792    1.111   1_655 S
C1025  O1133   1.294   .     A
C1025  O1147   1.296   .     A
C1025  C1042   1.476   .     S
C1026  O1145   1.383   .     S
C1026  C1069   1.413   .     A
C1026  C1030   1.416   .     A
C1027  C1031   1.409   .     S
C1027  O1151   1.285   .     A
C1027  O1148   1.287   .     A
C1028  C1032   1.409   .     S
C1028  O1149   1.287   .     A
C1028  O1150   1.285   .     A
C1029  C1072   1.416   .     A
C1029  C1070   1.415   .     A
C1029  C1286   1.514   1_545 S
C1030  C1071   1.415   .     A
C1030  C1285   1.514   .     S
C1032  C7      1.190   1_556 S
C1033  O1152   1.383   .     S
C1033  C1038   1.399   .     A
C1033  C1044   1.412   .     A
C1034  C1039   1.403   .     A
C1034  C1045   1.411   .     A
C1034  O1134   1.385   .     S
C1035  O1135   1.383   .     S
C1035  C1045   1.414   .     A
C1035  C1040   1.396   .     A
C1036  O1144   1.295   .     A
C1036  C1043   1.474   .     S
C1036  O1146   1.294   .     A
C1037  O1136   1.384   .     S
C1037  C1044   1.412   .     A
C1037  C1041   1.397   .     A
C1038  C1042   1.413   .     A
C1038  O1137   1.384   .     S
C1039  C1043   1.410   .     A
C1039  O1138   1.383   .     S
C1040  O1139   1.383   .     S
C1040  C1043   1.411   .     A
C1041  C1042   1.412   .     A
C1041  O1140   1.383   .     S
C1044  C1173   1.484   1_455 S
C1045  C1172   1.484   .     S
C1046  H1127   1.117   .     S
C1046  O1152   1.410   .     S
C1046  C1048   1.521   .     S
C1046  H1247   1.110   1_455 S
C1047  H1075   1.081   .     S
C1047  C1070   1.412   .     A
C1047  N1131   1.363   .     A
C1048  H1128   1.111   .     S
C1048  H1129   1.110   .     S
C1048  H1258   1.111   1_455 S
C1049  H1077   1.110   .     S
C1049  O1134   1.415   .     S
C1049  H1076   1.116   .     S
C1049  C1178   1.524   .     S
C1050  H1078   1.110   .     S
C1050  H1080   1.107   .     S
C1050  C1177   1.524   1_455 S
C1050  H1207   1.108   1_455 S
C1051  O1135   1.411   .     S
C1051  H1082   1.116   .     S
C1051  C1052   1.517   .     S
C1051  H1209   1.111   .     S
C1052  H1083   1.111   .     S
C1052  H188    1.106   1_556 S
C1052  H1213   1.110   .     S
C1053  O1136   1.411   .     S
C1053  H1088   1.117   .     S
C1053  C1054   1.521   .     S
C1053  H1215   1.112   1_455 S
C1054  H1090   1.110   .     S
C1054  H1089   1.111   .     S
C1054  H1219   1.110   1_455 S
C1055  H1092   1.114   .     S
C1055  C1056   1.518   .     S
C1055  H1093   1.114   .     S
C1055  O1137   1.415   .     S
C1056  H1096   1.107   .     S
C1056  H1095   1.110   .     S
C1056  H1094   1.110   .     S
C1057  O1138   1.417   .     S
C1057  H1099   1.114   .     S
C1057  C1059   1.516   .     S
C1057  H1098   1.114   .     S
C1058  C1071   1.412   .     A
C1058  H1086   1.081   .     S
C1058  N1132   1.363   .     A
C1059  H1100   1.110   .     S
C1059  H1102   1.107   .     S
C1059  H1101   1.110   .     S
C1060  C1061   1.516   .     S
C1060  H1104   1.114   .     S
C1060  H1103   1.114   .     S
C1060  O1139   1.418   .     S
C1061  H1105   1.110   .     S
C1061  H1106   1.110   .     S
C1061  H1107   1.107   .     S
C1062  H1110   1.115   .     S
C1062  C1063   1.519   .     S
C1062  H1109   1.114   .     S
C1062  O1140   1.415   .     S
C1063  H1111   1.110   .     S
C1063  H1113   1.108   .     S
C1063  H1112   1.110   .     S
C1064  O1141   1.409   .     S
C1064  H1116   1.109   .     S
C1064  H1115   1.113   .     S
C1064  H1114   1.111   .     S
C1065  H1120   1.109   .     S
C1065  H1117   1.111   .     S
C1065  H1118   1.113   .     S
C1065  O1142   1.409   .     S
C1066  H1122   1.112   .     S
C1066  O1143   1.407   .     S
C1066  H1121   1.112   .     S
C1066  H1123   1.109   .     S
C1067  H1125   1.112   .     S
C1067  O1145   1.407   .     S
C1067  H1124   1.112   .     S
C1067  H1126   1.109   .     S
C1068  N1131   1.364   .     A
C1068  H1097   1.081   .     S
C1068  C1072   1.413   .     A
C1069  N1132   1.364   .     A
C1069  H1108   1.081   .     S
C1070  O1141   1.383   .     S
C1071  O1142   1.383   .     S
C1072  O1143   1.383   .     S
Cu1073 O1150   1.933   .     S
Cu1073 N1132   2.007   .     S
Cu1073 O1148   1.936   .     S
Cu1073 O1133   1.973   .     S
Cu1073 O1146   1.973   .     S
Cu1073 Cu1074  2.672   .     S
Cu1074 O1144   1.973   .     S
Cu1074 O1149   1.936   .     S
Cu1074 N1131   2.007   .     S
Cu1074 O1147   1.973   .     S
Cu1074 O1151   1.933   .     S
H1079  C1178   1.108   .     S
H1081  C1179   1.111   1_455 S
H1084  C668    1.106   1_455 S
H1085  C1180   1.110   1_455 S
H1087  C1181   1.112   .     S
H1091  C1182   1.110   .     S
H1119  C1174   1.110   .     S
H1130  C1176   1.111   .     S
C1153  O1261   1.294   .     A
C1153  O1275   1.296   .     A
C1153  C1170   1.476   .     S
C1154  O1273   1.383   .     S
C1154  C1197   1.413   .     A
C1154  C1158   1.416   .     A
C1155  C1159   1.409   .     S
C1155  O1279   1.285   .     A
C1155  O1276   1.287   .     A
C1156  C1160   1.409   .     S
C1156  O1277   1.287   .     A
C1156  O1278   1.285   .     A
C1157  C1200   1.416   .     A
C1157  C1198   1.415   .     A
C1157  C1414   1.514   1_545 S
C1158  C1199   1.415   .     A
C1158  C1413   1.514   .     S
C1160  C135    1.190   1_556 S
C1161  O1280   1.383   .     S
C1161  C1166   1.399   .     A
C1161  C1172   1.412   .     A
C1162  C1167   1.403   .     A
C1162  C1173   1.411   .     A
C1162  O1262   1.385   .     S
C1163  O1263   1.383   .     S
C1163  C1173   1.414   .     A
C1163  C1168   1.396   .     A
C1164  O1272   1.295   .     A
C1164  C1171   1.474   .     S
C1164  O1274   1.294   .     A
C1165  O1264   1.384   .     S
C1165  C1172   1.412   .     A
C1165  C1169   1.397   .     A
C1166  C1170   1.413   .     A
C1166  O1265   1.384   .     S
C1167  C1171   1.410   .     A
C1167  O1266   1.383   .     S
C1168  O1267   1.383   .     S
C1168  C1171   1.411   .     A
C1169  C1170   1.412   .     A
C1169  O1268   1.383   .     S
C1173  C1044   1.484   1_655 S
C1174  H1255   1.117   .     S
C1174  O1280   1.410   .     S
C1174  C1176   1.521   .     S
C1175  H1203   1.081   .     S
C1175  C1198   1.412   .     A
C1175  N1259   1.363   .     A
C1176  H1256   1.111   .     S
C1176  H1257   1.110   .     S
C1177  H1205   1.110   .     S
C1177  O1262   1.415   .     S
C1177  H1204   1.116   .     S
C1177  C1050   1.524   1_655 S
C1178  H1206   1.110   .     S
C1178  H1208   1.107   .     S
C1179  O1263   1.411   .     S
C1179  H1210   1.116   .     S
C1179  C1180   1.517   .     S
C1179  H1081   1.111   1_655 S
C1180  H1211   1.111   .     S
C1180  H60     1.106   1_656 S
C1180  H1085   1.110   1_655 S
C1181  O1264   1.411   .     S
C1181  H1216   1.117   .     S
C1181  C1182   1.521   .     S
C1182  H1218   1.110   .     S
C1182  H1217   1.111   .     S
C1183  H1220   1.114   .     S
C1183  C1184   1.518   .     S
C1183  H1221   1.114   .     S
C1183  O1265   1.415   .     S
C1184  H1224   1.107   .     S
C1184  H1223   1.110   .     S
C1184  H1222   1.110   .     S
C1185  O1266   1.417   .     S
C1185  H1227   1.114   .     S
C1185  C1187   1.516   .     S
C1185  H1226   1.114   .     S
C1186  C1199   1.412   .     A
C1186  H1214   1.081   .     S
C1186  N1260   1.363   .     A
C1187  H1228   1.110   .     S
C1187  H1230   1.107   .     S
C1187  H1229   1.110   .     S
C1188  C1189   1.516   .     S
C1188  H1232   1.114   .     S
C1188  H1231   1.114   .     S
C1188  O1267   1.418   .     S
C1189  H1233   1.110   .     S
C1189  H1234   1.110   .     S
C1189  H1235   1.107   .     S
C1190  H1238   1.115   .     S
C1190  C1191   1.519   .     S
C1190  H1237   1.114   .     S
C1190  O1268   1.415   .     S
C1191  H1239   1.110   .     S
C1191  H1241   1.108   .     S
C1191  H1240   1.110   .     S
C1192  O1269   1.409   .     S
C1192  H1244   1.109   .     S
C1192  H1243   1.113   .     S
C1192  H1242   1.111   .     S
C1193  H1248   1.109   .     S
C1193  H1245   1.111   .     S
C1193  H1246   1.113   .     S
C1193  O1270   1.409   .     S
C1194  H1250   1.112   .     S
C1194  O1271   1.407   .     S
C1194  H1249   1.112   .     S
C1194  H1251   1.109   .     S
C1195  H1253   1.112   .     S
C1195  O1273   1.407   .     S
C1195  H1252   1.112   .     S
C1195  H1254   1.109   .     S
C1196  N1259   1.364   .     A
C1196  H1225   1.081   .     S
C1196  C1200   1.413   .     A
C1197  N1260   1.364   .     A
C1197  H1236   1.081   .     S
C1198  O1269   1.383   .     S
C1199  O1270   1.383   .     S
C1200  O1271   1.383   .     S
Cu1201 O1278   1.933   .     S
Cu1201 N1260   2.007   .     S
Cu1201 O1276   1.936   .     S
Cu1201 O1261   1.973   .     S
Cu1201 O1274   1.973   .     S
Cu1201 Cu1202  2.672   .     S
Cu1202 O1272   1.973   .     S
Cu1202 O1277   1.936   .     S
Cu1202 N1259   2.007   .     S
Cu1202 O1275   1.973   .     S
Cu1202 O1279   1.933   .     S
H1207  C1050   1.108   1_655 S
H1215  C1053   1.112   1_655 S
H1219  C1054   1.110   1_655 S
H1247  C1046   1.110   1_655 S
H1258  C1048   1.111   1_655 S
C1281  O1389   1.294   .     A
C1281  O1403   1.296   .     A
C1281  C1298   1.476   .     S
C1282  O1401   1.383   .     S
C1282  C1325   1.413   .     A
C1282  C1286   1.416   .     A
C1283  C1287   1.409   .     S
C1283  O1407   1.285   .     A
C1283  O1404   1.287   .     A
C1284  C1288   1.409   .     S
C1284  O1405   1.287   .     A
C1284  O1406   1.285   .     A
C1285  C1328   1.416   .     A
C1285  C1326   1.415   .     A
C1286  C1327   1.415   .     A
C1286  C1029   1.514   1_565 S
C1288  C263    1.190   1_556 S
C1289  O1408   1.383   .     S
C1289  C1294   1.399   .     A
C1289  C1300   1.412   .     A
C1290  C1295   1.403   .     A
C1290  C1301   1.411   .     A
C1290  O1390   1.385   .     S
C1291  O1391   1.383   .     S
C1291  C1301   1.414   .     A
C1291  C1296   1.396   .     A
C1292  O1400   1.295   .     A
C1292  C1299   1.474   .     S
C1292  O1402   1.294   .     A
C1293  O1392   1.384   .     S
C1293  C1300   1.412   .     A
C1293  C1297   1.397   .     A
C1294  C1298   1.413   .     A
C1294  O1393   1.384   .     S
C1295  C1299   1.410   .     A
C1295  O1394   1.383   .     S
C1296  O1395   1.383   .     S
C1296  C1299   1.411   .     A
C1297  C1298   1.412   .     A
C1297  O1396   1.383   .     S
C1300  C1429   1.484   1_455 S
C1301  C1428   1.484   .     S
C1302  H1383   1.117   .     S
C1302  O1408   1.410   .     S
C1302  C1304   1.521   .     S
C1302  H1503   1.110   1_455 S
C1303  H1331   1.081   .     S
C1303  C1326   1.412   .     A
C1303  N1387   1.363   .     A
C1304  H1384   1.111   .     S
C1304  H1385   1.110   .     S
C1304  H1514   1.111   1_455 S
C1305  H1333   1.110   .     S
C1305  O1390   1.415   .     S
C1305  H1332   1.116   .     S
C1305  C1434   1.524   .     S
C1306  H1334   1.110   .     S
C1306  H1336   1.107   .     S
C1306  C1433   1.524   1_455 S
C1306  H1463   1.108   1_455 S
C1307  O1391   1.411   .     S
C1307  H1338   1.116   .     S
C1307  C1308   1.517   .     S
C1307  H1465   1.111   .     S
C1308  H1339   1.111   .     S
C1308  H444    1.106   1_556 S
C1308  H1469   1.110   .     S
C1309  O1392   1.411   .     S
C1309  H1344   1.117   .     S
C1309  C1310   1.521   .     S
C1309  H1471   1.112   1_455 S
C1310  H1346   1.110   .     S
C1310  H1345   1.111   .     S
C1310  H1475   1.110   1_455 S
C1311  H1348   1.114   .     S
C1311  C1312   1.518   .     S
C1311  H1349   1.114   .     S
C1311  O1393   1.415   .     S
C1312  H1352   1.107   .     S
C1312  H1351   1.110   .     S
C1312  H1350   1.110   .     S
C1313  O1394   1.417   .     S
C1313  H1355   1.114   .     S
C1313  C1315   1.516   .     S
C1313  H1354   1.114   .     S
C1314  C1327   1.412   .     A
C1314  H1342   1.081   .     S
C1314  N1388   1.363   .     A
C1315  H1356   1.110   .     S
C1315  H1358   1.107   .     S
C1315  H1357   1.110   .     S
C1316  C1317   1.516   .     S
C1316  H1360   1.114   .     S
C1316  H1359   1.114   .     S
C1316  O1395   1.418   .     S
C1317  H1361   1.110   .     S
C1317  H1362   1.110   .     S
C1317  H1363   1.107   .     S
C1318  H1366   1.115   .     S
C1318  C1319   1.519   .     S
C1318  H1365   1.114   .     S
C1318  O1396   1.415   .     S
C1319  H1367   1.110   .     S
C1319  H1369   1.108   .     S
C1319  H1368   1.110   .     S
C1320  O1397   1.409   .     S
C1320  H1372   1.109   .     S
C1320  H1371   1.113   .     S
C1320  H1370   1.111   .     S
C1321  H1376   1.109   .     S
C1321  H1373   1.111   .     S
C1321  H1374   1.113   .     S
C1321  O1398   1.409   .     S
C1322  H1378   1.112   .     S
C1322  O1399   1.407   .     S
C1322  H1377   1.112   .     S
C1322  H1379   1.109   .     S
C1323  H1381   1.112   .     S
C1323  O1401   1.407   .     S
C1323  H1380   1.112   .     S
C1323  H1382   1.109   .     S
C1324  N1387   1.364   .     A
C1324  H1353   1.081   .     S
C1324  C1328   1.413   .     A
C1325  N1388   1.364   .     A
C1325  H1364   1.081   .     S
C1326  O1397   1.383   .     S
C1327  O1398   1.383   .     S
C1328  O1399   1.383   .     S
Cu1329 O1406   1.933   .     S
Cu1329 N1388   2.007   .     S
Cu1329 O1404   1.936   .     S
Cu1329 O1389   1.973   .     S
Cu1329 O1402   1.973   .     S
Cu1329 Cu1330  2.672   .     S
Cu1330 O1400   1.973   .     S
Cu1330 O1405   1.936   .     S
Cu1330 N1387   2.007   .     S
Cu1330 O1403   1.973   .     S
Cu1330 O1407   1.933   .     S
H1335  C1434   1.108   .     S
H1337  C1435   1.111   1_455 S
H1340  C924    1.106   1_455 S
H1341  C1436   1.110   1_455 S
H1343  C1437   1.112   .     S
H1347  C1438   1.110   .     S
H1375  C1430   1.110   .     S
H1386  C1432   1.111   .     S
C1409  O1517   1.294   .     A
C1409  O1531   1.296   .     A
C1409  C1426   1.476   .     S
C1410  O1529   1.383   .     S
C1410  C1453   1.413   .     A
C1410  C1414   1.416   .     A
C1411  C1415   1.409   .     S
C1411  O1535   1.285   .     A
C1411  O1532   1.287   .     A
C1412  C1416   1.409   .     S
C1412  O1533   1.287   .     A
C1412  O1534   1.285   .     A
C1413  C1456   1.416   .     A
C1413  C1454   1.415   .     A
C1414  C1455   1.415   .     A
C1414  C1157   1.514   1_565 S
C1416  C391    1.190   1_556 S
C1417  O1536   1.383   .     S
C1417  C1422   1.399   .     A
C1417  C1428   1.412   .     A
C1418  C1423   1.403   .     A
C1418  C1429   1.411   .     A
C1418  O1518   1.385   .     S
C1419  O1519   1.383   .     S
C1419  C1429   1.414   .     A
C1419  C1424   1.396   .     A
C1420  O1528   1.295   .     A
C1420  C1427   1.474   .     S
C1420  O1530   1.294   .     A
C1421  O1520   1.384   .     S
C1421  C1428   1.412   .     A
C1421  C1425   1.397   .     A
C1422  C1426   1.413   .     A
C1422  O1521   1.384   .     S
C1423  C1427   1.410   .     A
C1423  O1522   1.383   .     S
C1424  O1523   1.383   .     S
C1424  C1427   1.411   .     A
C1425  C1426   1.412   .     A
C1425  O1524   1.383   .     S
C1429  C1300   1.484   1_655 S
C1430  H1511   1.117   .     S
C1430  O1536   1.410   .     S
C1430  C1432   1.521   .     S
C1431  H1459   1.081   .     S
C1431  C1454   1.412   .     A
C1431  N1515   1.363   .     A
C1432  H1512   1.111   .     S
C1432  H1513   1.110   .     S
C1433  H1461   1.110   .     S
C1433  O1518   1.415   .     S
C1433  H1460   1.116   .     S
C1433  C1306   1.524   1_655 S
C1434  H1462   1.110   .     S
C1434  H1464   1.107   .     S
C1435  O1519   1.411   .     S
C1435  H1466   1.116   .     S
C1435  C1436   1.517   .     S
C1435  H1337   1.111   1_655 S
C1436  H1467   1.111   .     S
C1436  H316    1.106   1_656 S
C1436  H1341   1.110   1_655 S
C1437  O1520   1.411   .     S
C1437  H1472   1.117   .     S
C1437  C1438   1.521   .     S
C1438  H1474   1.110   .     S
C1438  H1473   1.111   .     S
C1439  H1476   1.114   .     S
C1439  C1440   1.518   .     S
C1439  H1477   1.114   .     S
C1439  O1521   1.415   .     S
C1440  H1480   1.107   .     S
C1440  H1479   1.110   .     S
C1440  H1478   1.110   .     S
C1441  O1522   1.417   .     S
C1441  H1483   1.114   .     S
C1441  C1443   1.516   .     S
C1441  H1482   1.114   .     S
C1442  C1455   1.412   .     A
C1442  H1470   1.081   .     S
C1442  N1516   1.363   .     A
C1443  H1484   1.110   .     S
C1443  H1486   1.107   .     S
C1443  H1485   1.110   .     S
C1444  C1445   1.516   .     S
C1444  H1488   1.114   .     S
C1444  H1487   1.114   .     S
C1444  O1523   1.418   .     S
C1445  H1489   1.110   .     S
C1445  H1490   1.110   .     S
C1445  H1491   1.107   .     S
C1446  H1494   1.115   .     S
C1446  C1447   1.519   .     S
C1446  H1493   1.114   .     S
C1446  O1524   1.415   .     S
C1447  H1495   1.110   .     S
C1447  H1497   1.108   .     S
C1447  H1496   1.110   .     S
C1448  O1525   1.409   .     S
C1448  H1500   1.109   .     S
C1448  H1499   1.113   .     S
C1448  H1498   1.111   .     S
C1449  H1504   1.109   .     S
C1449  H1501   1.111   .     S
C1449  H1502   1.113   .     S
C1449  O1526   1.409   .     S
C1450  H1506   1.112   .     S
C1450  O1527   1.407   .     S
C1450  H1505   1.112   .     S
C1450  H1507   1.109   .     S
C1451  H1509   1.112   .     S
C1451  O1529   1.407   .     S
C1451  H1508   1.112   .     S
C1451  H1510   1.109   .     S
C1452  N1515   1.364   .     A
C1452  H1481   1.081   .     S
C1452  C1456   1.413   .     A
C1453  N1516   1.364   .     A
C1453  H1492   1.081   .     S
C1454  O1525   1.383   .     S
C1455  O1526   1.383   .     S
C1456  O1527   1.383   .     S
Cu1457 O1534   1.933   .     S
Cu1457 N1516   2.007   .     S
Cu1457 O1532   1.936   .     S
Cu1457 O1517   1.973   .     S
Cu1457 O1530   1.973   .     S
Cu1457 Cu1458  2.672   .     S
Cu1458 O1528   1.973   .     S
Cu1458 O1533   1.936   .     S
Cu1458 N1515   2.007   .     S
Cu1458 O1531   1.973   .     S
Cu1458 O1535   1.933   .     S
H1463  C1306   1.108   1_655 S
H1471  C1309   1.112   1_655 S
H1475  C1310   1.110   1_655 S
H1503  C1302   1.110   1_655 S
H1514  C1304   1.111   1_655 S
