data_str_m2_o10_o18_pcu_sym.137
_audit_creation_date              2020-01-03
_audit_creation_method            'Materials Studio'
_symmetry_space_group_name_H-M    'P1'
_symmetry_Int_Tables_number       1
_symmetry_cell_setting            triclinic
loop_
_symmetry_equiv_pos_as_xyz
  x,y,z
_cell_length_a                    22.3779
_cell_length_b                    26.0609
_cell_length_c                    31.5561
_cell_angle_alpha                 94.2527
_cell_angle_beta                  75.3019
_cell_angle_gamma                 103.2187
loop_
_atom_site_label
_atom_site_type_symbol
_atom_site_fract_x
_atom_site_fract_y
_atom_site_fract_z
_atom_site_U_iso_or_equiv
_atom_site_adp_type
_atom_site_occupancy
C1     C     0.18171   0.26670   0.25127   0.00000  Uiso   1.00
C2     C     0.15164   0.06663   0.24867   0.00000  Uiso   1.00
C3     C     0.09136   0.14098   0.04156   0.00000  Uiso   1.00
C4     C     0.22750   0.22445   0.46618   0.00000  Uiso   1.00
C5     C     0.04647   0.13282   0.01673   0.00000  Uiso   1.00
C6     C     0.27067   0.23970   0.49181   0.00000  Uiso   1.00
C7     C     0.19017   0.32269   0.25183   0.00000  Uiso   1.00
C8     C     0.14323   0.01062   0.24799   0.00000  Uiso   1.00
C9     C     0.12794   0.16469   0.33347   0.00000  Uiso   1.00
C10    C     0.20556   0.17299   0.16704   0.00000  Uiso   1.00
C11    C     0.10322   0.16424   0.38201   0.00000  Uiso   1.00
C12    C     0.22958   0.18532   0.12009   0.00000  Uiso   1.00
C13    C     0.01919   0.14109   0.44813   0.00000  Uiso   1.00
C14    C     0.30088   0.23729   0.05946   0.00000  Uiso   1.00
C15    C     0.03778   0.15358   0.40339   0.00000  Uiso   1.00
C16    C     0.28639   0.22280   0.10334   0.00000  Uiso   1.00
C17    C     0.14691   0.17561   0.40802   0.00000  Uiso   1.00
C18    C     0.18882   0.16458   0.09278   0.00000  Uiso   1.00
C19    C     0.12781   0.17079   0.45380   0.00000  Uiso   1.00
C20    C     0.19986   0.18329   0.05026   0.00000  Uiso   1.00
C21    C     0.06426   0.14752   0.47290   0.00000  Uiso   1.00
C22    C     0.25780   0.21922   0.03347   0.00000  Uiso   1.00
C23    C     0.17075   0.18719   0.48080   0.00000  Uiso   1.00
C24    C     0.15423   0.16917   0.02451   0.00000  Uiso   1.00
Cu25   Cu    0.10737   0.16108   0.24516   0.00000  Uiso   1.00
Cu26   Cu    0.22596   0.17225   0.25483   0.00000  Uiso   1.00
H27    H     0.33114   0.11428   0.03176   0.00000  Uiso   1.00
H28    H     0.31368   0.26883   0.47938   0.00000  Uiso   1.00
H29    H     0.14727   0.13491   0.10621   0.00000  Uiso   1.00
H30    H     0.19618   0.18721   0.39205   0.00000  Uiso   1.00
H31    H     0.30271   0.12875   0.46418   0.00000  Uiso   1.00
H32    H     0.01106   0.26562   0.04629   0.00000  Uiso   1.00
H33    H     0.07416   0.12784   0.07489   0.00000  Uiso   1.00
H34    H     0.23717   0.24470   0.43579   0.00000  Uiso   1.00
H35    H     0.23538   0.01320   0.25543   0.00000  Uiso   1.00
H36    H     0.09803   0.32010   0.24436   0.00000  Uiso   1.00
H37    H     0.00324   0.20862   0.28135   0.00000  Uiso   1.00
H38    H     0.33080   0.12584   0.21742   0.00000  Uiso   1.00
N39    N     0.31506   0.18068   0.26212   0.00000  Uiso   1.00
N40    N     0.01827   0.15265   0.23788   0.00000  Uiso   1.00
O41    O     0.12815   0.23809   0.24686   0.00000  Uiso   1.00
O42    O     0.20518   0.09524   0.25314   0.00000  Uiso   1.00
O43    O     0.22829   0.24753   0.25502   0.00000  Uiso   1.00
O44    O     0.10504   0.08580   0.24497   0.00000  Uiso   1.00
O45    O     0.08851   0.15930   0.30854   0.00000  Uiso   1.00
O46    O     0.24482   0.17403   0.19145   0.00000  Uiso   1.00
O47    O     0.18866   0.16874   0.31671   0.00000  Uiso   1.00
O48    O     0.14468   0.16460   0.18329   0.00000  Uiso   1.00
C49    C     0.32885   0.25273   0.13173   0.00000  Uiso   1.00
C50    C     0.04697   0.22414   0.13395   0.00000  Uiso   1.00
H51    H     0.07243   0.24383   0.15875   0.00000  Uiso   1.00
H52    H     0.08159   0.22582   0.10168   0.00000  Uiso   1.00
H53    H     0.02651   0.18233   0.14308   0.00000  Uiso   1.00
H54    H     0.01900   0.29256   0.11823   0.00000  Uiso   1.00
H55    H     0.30102   0.26042   0.16508   0.00000  Uiso   1.00
C56    C     0.32131   0.16183   0.38160   0.00000  Uiso   1.00
C57    C     0.00046   0.22013   0.36968   0.00000  Uiso   1.00
H58    H     0.00569   0.24594   0.39863   0.00000  Uiso   1.00
H59    H     0.04479   0.23235   0.34413   0.00000  Uiso   1.00
H60    H     0.29460   0.22775   0.35731   0.00000  Uiso   1.00
H61    H     0.31863   0.13543   0.35264   0.00000  Uiso   1.00
H62    H     0.27382   0.15112   0.40431   0.00000  Uiso   1.00
C63    C     0.51505   0.26670   0.25127   0.00000  Uiso   1.00
C64    C     0.48498   0.06663   0.24867   0.00000  Uiso   1.00
C65    C     0.42470   0.14098   0.04156   0.00000  Uiso   1.00
C66    C     0.56083   0.22445   0.46618   0.00000  Uiso   1.00
C67    C     0.37980   0.13282   0.01673   0.00000  Uiso   1.00
C68    C     0.60400   0.23970   0.49181   0.00000  Uiso   1.00
C69    C     0.52350   0.32269   0.25183   0.00000  Uiso   1.00
C70    C     0.47657   0.01062   0.24799   0.00000  Uiso   1.00
C71    C     0.46127   0.16469   0.33347   0.00000  Uiso   1.00
C72    C     0.53890   0.17299   0.16704   0.00000  Uiso   1.00
C73    C     0.43656   0.16424   0.38201   0.00000  Uiso   1.00
C74    C     0.56291   0.18532   0.12009   0.00000  Uiso   1.00
C75    C     0.35252   0.14109   0.44813   0.00000  Uiso   1.00
C76    C     0.63421   0.23729   0.05946   0.00000  Uiso   1.00
C77    C     0.37112   0.15358   0.40339   0.00000  Uiso   1.00
C78    C     0.61972   0.22280   0.10334   0.00000  Uiso   1.00
C79    C     0.48024   0.17561   0.40802   0.00000  Uiso   1.00
C80    C     0.52215   0.16458   0.09278   0.00000  Uiso   1.00
C81    C     0.46115   0.17079   0.45380   0.00000  Uiso   1.00
C82    C     0.53319   0.18329   0.05026   0.00000  Uiso   1.00
C83    C     0.39759   0.14752   0.47290   0.00000  Uiso   1.00
C84    C     0.59113   0.21922   0.03347   0.00000  Uiso   1.00
C85    C     0.50409   0.18719   0.48080   0.00000  Uiso   1.00
C86    C     0.48756   0.16917   0.02451   0.00000  Uiso   1.00
Cu87   Cu    0.44071   0.16108   0.24516   0.00000  Uiso   1.00
Cu88   Cu    0.55929   0.17225   0.25483   0.00000  Uiso   1.00
H89    H     0.66448   0.11428   0.03176   0.00000  Uiso   1.00
H90    H     0.64701   0.26883   0.47938   0.00000  Uiso   1.00
H91    H     0.48060   0.13491   0.10621   0.00000  Uiso   1.00
H92    H     0.52951   0.18721   0.39205   0.00000  Uiso   1.00
H93    H     0.63604   0.12875   0.46418   0.00000  Uiso   1.00
H94    H     0.34439   0.26562   0.04629   0.00000  Uiso   1.00
H95    H     0.40749   0.12784   0.07489   0.00000  Uiso   1.00
H96    H     0.57050   0.24470   0.43579   0.00000  Uiso   1.00
H97    H     0.56872   0.01320   0.25543   0.00000  Uiso   1.00
H98    H     0.43137   0.32010   0.24436   0.00000  Uiso   1.00
H99    H     0.33657   0.20862   0.28135   0.00000  Uiso   1.00
H100   H     0.66413   0.12584   0.21742   0.00000  Uiso   1.00
N101   N     0.64839   0.18068   0.26212   0.00000  Uiso   1.00
N102   N     0.35161   0.15265   0.23788   0.00000  Uiso   1.00
O103   O     0.46148   0.23809   0.24686   0.00000  Uiso   1.00
O104   O     0.53852   0.09524   0.25314   0.00000  Uiso   1.00
O105   O     0.56163   0.24753   0.25502   0.00000  Uiso   1.00
O106   O     0.43837   0.08580   0.24497   0.00000  Uiso   1.00
O107   O     0.42185   0.15930   0.30854   0.00000  Uiso   1.00
O108   O     0.57815   0.17403   0.19145   0.00000  Uiso   1.00
O109   O     0.52199   0.16874   0.31671   0.00000  Uiso   1.00
O110   O     0.47801   0.16460   0.18329   0.00000  Uiso   1.00
C111   C     0.66219   0.25273   0.13173   0.00000  Uiso   1.00
C112   C     0.38030   0.22414   0.13395   0.00000  Uiso   1.00
H113   H     0.40576   0.24383   0.15875   0.00000  Uiso   1.00
H114   H     0.41493   0.22582   0.10168   0.00000  Uiso   1.00
H115   H     0.35985   0.18233   0.14308   0.00000  Uiso   1.00
H116   H     0.35233   0.29256   0.11823   0.00000  Uiso   1.00
H117   H     0.63435   0.26042   0.16508   0.00000  Uiso   1.00
C118   C     0.65464   0.16183   0.38160   0.00000  Uiso   1.00
C119   C     0.33380   0.22013   0.36968   0.00000  Uiso   1.00
H120   H     0.33902   0.24594   0.39863   0.00000  Uiso   1.00
H121   H     0.37813   0.23235   0.34413   0.00000  Uiso   1.00
H122   H     0.62793   0.22775   0.35731   0.00000  Uiso   1.00
H123   H     0.65196   0.13543   0.35264   0.00000  Uiso   1.00
H124   H     0.60715   0.15112   0.40431   0.00000  Uiso   1.00
C125   C     0.84838   0.26670   0.25127   0.00000  Uiso   1.00
C126   C     0.81831   0.06663   0.24867   0.00000  Uiso   1.00
C127   C     0.75803   0.14098   0.04156   0.00000  Uiso   1.00
C128   C     0.89417   0.22445   0.46618   0.00000  Uiso   1.00
C129   C     0.71314   0.13282   0.01673   0.00000  Uiso   1.00
C130   C     0.93733   0.23970   0.49181   0.00000  Uiso   1.00
C131   C     0.85684   0.32269   0.25183   0.00000  Uiso   1.00
C132   C     0.80990   0.01062   0.24799   0.00000  Uiso   1.00
C133   C     0.79461   0.16469   0.33347   0.00000  Uiso   1.00
C134   C     0.87223   0.17299   0.16704   0.00000  Uiso   1.00
C135   C     0.76989   0.16424   0.38201   0.00000  Uiso   1.00
C136   C     0.89625   0.18532   0.12009   0.00000  Uiso   1.00
C137   C     0.68586   0.14109   0.44813   0.00000  Uiso   1.00
C138   C     0.96754   0.23729   0.05946   0.00000  Uiso   1.00
C139   C     0.70445   0.15358   0.40339   0.00000  Uiso   1.00
C140   C     0.95305   0.22280   0.10334   0.00000  Uiso   1.00
C141   C     0.81357   0.17561   0.40802   0.00000  Uiso   1.00
C142   C     0.85548   0.16458   0.09278   0.00000  Uiso   1.00
C143   C     0.79448   0.17079   0.45380   0.00000  Uiso   1.00
C144   C     0.86652   0.18329   0.05026   0.00000  Uiso   1.00
C145   C     0.73093   0.14752   0.47290   0.00000  Uiso   1.00
C146   C     0.92447   0.21922   0.03347   0.00000  Uiso   1.00
C147   C     0.83742   0.18719   0.48080   0.00000  Uiso   1.00
C148   C     0.82089   0.16917   0.02451   0.00000  Uiso   1.00
Cu149  Cu    0.77404   0.16108   0.24516   0.00000  Uiso   1.00
Cu150  Cu    0.89263   0.17225   0.25483   0.00000  Uiso   1.00
H151   H     0.99781   0.11428   0.03176   0.00000  Uiso   1.00
H152   H     0.98035   0.26883   0.47938   0.00000  Uiso   1.00
H153   H     0.81393   0.13491   0.10621   0.00000  Uiso   1.00
H154   H     0.86284   0.18721   0.39205   0.00000  Uiso   1.00
H155   H     0.96938   0.12875   0.46418   0.00000  Uiso   1.00
H156   H     0.67772   0.26562   0.04629   0.00000  Uiso   1.00
H157   H     0.74082   0.12784   0.07489   0.00000  Uiso   1.00
H158   H     0.90384   0.24470   0.43579   0.00000  Uiso   1.00
H159   H     0.90205   0.01320   0.25543   0.00000  Uiso   1.00
H160   H     0.76470   0.32010   0.24436   0.00000  Uiso   1.00
H161   H     0.66991   0.20862   0.28135   0.00000  Uiso   1.00
H162   H     0.99746   0.12584   0.21742   0.00000  Uiso   1.00
N163   N     0.98173   0.18068   0.26212   0.00000  Uiso   1.00
N164   N     0.68494   0.15265   0.23788   0.00000  Uiso   1.00
O165   O     0.79482   0.23809   0.24686   0.00000  Uiso   1.00
O166   O     0.87185   0.09524   0.25314   0.00000  Uiso   1.00
O167   O     0.89496   0.24753   0.25502   0.00000  Uiso   1.00
O168   O     0.77171   0.08580   0.24497   0.00000  Uiso   1.00
O169   O     0.75518   0.15930   0.30854   0.00000  Uiso   1.00
O170   O     0.91149   0.17403   0.19145   0.00000  Uiso   1.00
O171   O     0.85532   0.16874   0.31671   0.00000  Uiso   1.00
O172   O     0.81134   0.16460   0.18329   0.00000  Uiso   1.00
C173   C     0.99552   0.25273   0.13173   0.00000  Uiso   1.00
C174   C     0.71364   0.22414   0.13395   0.00000  Uiso   1.00
H175   H     0.73909   0.24383   0.15875   0.00000  Uiso   1.00
H176   H     0.74826   0.22582   0.10168   0.00000  Uiso   1.00
H177   H     0.69318   0.18233   0.14308   0.00000  Uiso   1.00
H178   H     0.68567   0.29256   0.11823   0.00000  Uiso   1.00
H179   H     0.96768   0.26042   0.16508   0.00000  Uiso   1.00
C180   C     0.98797   0.16183   0.38160   0.00000  Uiso   1.00
C181   C     0.66713   0.22013   0.36968   0.00000  Uiso   1.00
H182   H     0.67235   0.24594   0.39863   0.00000  Uiso   1.00
H183   H     0.71146   0.23235   0.34413   0.00000  Uiso   1.00
H184   H     0.96126   0.22775   0.35731   0.00000  Uiso   1.00
H185   H     0.98529   0.13543   0.35264   0.00000  Uiso   1.00
H186   H     0.94049   0.15112   0.40431   0.00000  Uiso   1.00
C187   C     0.18171   0.60003   0.25127   0.00000  Uiso   1.00
C188   C     0.15164   0.39996   0.24867   0.00000  Uiso   1.00
C189   C     0.09136   0.47432   0.04156   0.00000  Uiso   1.00
C190   C     0.22750   0.55779   0.46618   0.00000  Uiso   1.00
C191   C     0.04647   0.46615   0.01673   0.00000  Uiso   1.00
C192   C     0.27067   0.57303   0.49181   0.00000  Uiso   1.00
C193   C     0.19017   0.65603   0.25183   0.00000  Uiso   1.00
C194   C     0.14323   0.34395   0.24799   0.00000  Uiso   1.00
C195   C     0.12794   0.49802   0.33347   0.00000  Uiso   1.00
C196   C     0.20556   0.50632   0.16704   0.00000  Uiso   1.00
C197   C     0.10322   0.49757   0.38201   0.00000  Uiso   1.00
C198   C     0.22958   0.51865   0.12009   0.00000  Uiso   1.00
C199   C     0.01919   0.47442   0.44813   0.00000  Uiso   1.00
C200   C     0.30088   0.57063   0.05946   0.00000  Uiso   1.00
C201   C     0.03778   0.48691   0.40339   0.00000  Uiso   1.00
C202   C     0.28639   0.55613   0.10334   0.00000  Uiso   1.00
C203   C     0.14691   0.50894   0.40802   0.00000  Uiso   1.00
C204   C     0.18882   0.49791   0.09278   0.00000  Uiso   1.00
C205   C     0.12781   0.50413   0.45380   0.00000  Uiso   1.00
C206   C     0.19986   0.51663   0.05026   0.00000  Uiso   1.00
C207   C     0.06426   0.48085   0.47290   0.00000  Uiso   1.00
C208   C     0.25780   0.55255   0.03347   0.00000  Uiso   1.00
C209   C     0.17075   0.52052   0.48080   0.00000  Uiso   1.00
C210   C     0.15423   0.50250   0.02451   0.00000  Uiso   1.00
Cu211  Cu    0.10737   0.49441   0.24516   0.00000  Uiso   1.00
Cu212  Cu    0.22596   0.50559   0.25483   0.00000  Uiso   1.00
H213   H     0.33114   0.44761   0.03176   0.00000  Uiso   1.00
H214   H     0.31368   0.60216   0.47938   0.00000  Uiso   1.00
H215   H     0.14727   0.46824   0.10621   0.00000  Uiso   1.00
H216   H     0.19618   0.52054   0.39205   0.00000  Uiso   1.00
H217   H     0.30271   0.46208   0.46418   0.00000  Uiso   1.00
H218   H     0.01106   0.59896   0.04629   0.00000  Uiso   1.00
H219   H     0.07416   0.46117   0.07489   0.00000  Uiso   1.00
H220   H     0.23717   0.57803   0.43579   0.00000  Uiso   1.00
H221   H     0.23538   0.34654   0.25543   0.00000  Uiso   1.00
H222   H     0.09803   0.65343   0.24436   0.00000  Uiso   1.00
H223   H     0.00324   0.54195   0.28135   0.00000  Uiso   1.00
H224   H     0.33080   0.45917   0.21742   0.00000  Uiso   1.00
N225   N     0.31506   0.51401   0.26212   0.00000  Uiso   1.00
N226   N     0.01827   0.48599   0.23788   0.00000  Uiso   1.00
O227   O     0.12815   0.57142   0.24686   0.00000  Uiso   1.00
O228   O     0.20518   0.42858   0.25314   0.00000  Uiso   1.00
O229   O     0.22829   0.58086   0.25502   0.00000  Uiso   1.00
O230   O     0.10504   0.41914   0.24497   0.00000  Uiso   1.00
O231   O     0.08851   0.49263   0.30854   0.00000  Uiso   1.00
O232   O     0.24482   0.50737   0.19145   0.00000  Uiso   1.00
O233   O     0.18866   0.50207   0.31671   0.00000  Uiso   1.00
O234   O     0.14468   0.49793   0.18329   0.00000  Uiso   1.00
C235   C     0.32885   0.58607   0.13173   0.00000  Uiso   1.00
C236   C     0.04697   0.55748   0.13395   0.00000  Uiso   1.00
H237   H     0.07243   0.57717   0.15875   0.00000  Uiso   1.00
H238   H     0.08159   0.55915   0.10168   0.00000  Uiso   1.00
H239   H     0.02651   0.51566   0.14308   0.00000  Uiso   1.00
H240   H     0.01900   0.62590   0.11823   0.00000  Uiso   1.00
H241   H     0.30102   0.59376   0.16508   0.00000  Uiso   1.00
C242   C     0.32131   0.49516   0.38160   0.00000  Uiso   1.00
C243   C     0.00046   0.55347   0.36968   0.00000  Uiso   1.00
H244   H     0.00569   0.57928   0.39863   0.00000  Uiso   1.00
H245   H     0.04479   0.56568   0.34413   0.00000  Uiso   1.00
H246   H     0.29460   0.56109   0.35731   0.00000  Uiso   1.00
H247   H     0.31863   0.46876   0.35264   0.00000  Uiso   1.00
H248   H     0.27382   0.48445   0.40431   0.00000  Uiso   1.00
C249   C     0.51505   0.60003   0.25127   0.00000  Uiso   1.00
C250   C     0.48498   0.39996   0.24867   0.00000  Uiso   1.00
C251   C     0.42470   0.47432   0.04156   0.00000  Uiso   1.00
C252   C     0.56083   0.55779   0.46618   0.00000  Uiso   1.00
C253   C     0.37980   0.46615   0.01673   0.00000  Uiso   1.00
C254   C     0.60400   0.57303   0.49181   0.00000  Uiso   1.00
C255   C     0.52350   0.65603   0.25183   0.00000  Uiso   1.00
C256   C     0.47657   0.34395   0.24799   0.00000  Uiso   1.00
C257   C     0.46127   0.49802   0.33347   0.00000  Uiso   1.00
C258   C     0.53890   0.50632   0.16704   0.00000  Uiso   1.00
C259   C     0.43656   0.49757   0.38201   0.00000  Uiso   1.00
C260   C     0.56291   0.51865   0.12009   0.00000  Uiso   1.00
C261   C     0.35252   0.47442   0.44813   0.00000  Uiso   1.00
C262   C     0.63421   0.57063   0.05946   0.00000  Uiso   1.00
C263   C     0.37112   0.48691   0.40339   0.00000  Uiso   1.00
C264   C     0.61972   0.55613   0.10334   0.00000  Uiso   1.00
C265   C     0.48024   0.50894   0.40802   0.00000  Uiso   1.00
C266   C     0.52215   0.49791   0.09278   0.00000  Uiso   1.00
C267   C     0.46115   0.50413   0.45380   0.00000  Uiso   1.00
C268   C     0.53319   0.51663   0.05026   0.00000  Uiso   1.00
C269   C     0.39759   0.48085   0.47290   0.00000  Uiso   1.00
C270   C     0.59113   0.55255   0.03347   0.00000  Uiso   1.00
C271   C     0.50409   0.52052   0.48080   0.00000  Uiso   1.00
C272   C     0.48756   0.50250   0.02451   0.00000  Uiso   1.00
Cu273  Cu    0.44071   0.49441   0.24516   0.00000  Uiso   1.00
Cu274  Cu    0.55929   0.50559   0.25483   0.00000  Uiso   1.00
H275   H     0.66448   0.44761   0.03176   0.00000  Uiso   1.00
H276   H     0.64701   0.60216   0.47938   0.00000  Uiso   1.00
H277   H     0.48060   0.46824   0.10621   0.00000  Uiso   1.00
H278   H     0.52951   0.52054   0.39205   0.00000  Uiso   1.00
H279   H     0.63604   0.46208   0.46418   0.00000  Uiso   1.00
H280   H     0.34439   0.59896   0.04629   0.00000  Uiso   1.00
H281   H     0.40749   0.46117   0.07489   0.00000  Uiso   1.00
H282   H     0.57050   0.57803   0.43579   0.00000  Uiso   1.00
H283   H     0.56872   0.34654   0.25543   0.00000  Uiso   1.00
H284   H     0.43137   0.65343   0.24436   0.00000  Uiso   1.00
H285   H     0.33657   0.54195   0.28135   0.00000  Uiso   1.00
H286   H     0.66413   0.45917   0.21742   0.00000  Uiso   1.00
N287   N     0.64839   0.51401   0.26212   0.00000  Uiso   1.00
N288   N     0.35161   0.48599   0.23788   0.00000  Uiso   1.00
O289   O     0.46148   0.57142   0.24686   0.00000  Uiso   1.00
O290   O     0.53852   0.42858   0.25314   0.00000  Uiso   1.00
O291   O     0.56163   0.58086   0.25502   0.00000  Uiso   1.00
O292   O     0.43837   0.41914   0.24497   0.00000  Uiso   1.00
O293   O     0.42185   0.49263   0.30854   0.00000  Uiso   1.00
O294   O     0.57815   0.50737   0.19145   0.00000  Uiso   1.00
O295   O     0.52199   0.50207   0.31671   0.00000  Uiso   1.00
O296   O     0.47801   0.49793   0.18329   0.00000  Uiso   1.00
C297   C     0.66219   0.58607   0.13173   0.00000  Uiso   1.00
C298   C     0.38030   0.55748   0.13395   0.00000  Uiso   1.00
H299   H     0.40576   0.57717   0.15875   0.00000  Uiso   1.00
H300   H     0.41493   0.55915   0.10168   0.00000  Uiso   1.00
H301   H     0.35985   0.51566   0.14308   0.00000  Uiso   1.00
H302   H     0.35233   0.62590   0.11823   0.00000  Uiso   1.00
H303   H     0.63435   0.59376   0.16508   0.00000  Uiso   1.00
C304   C     0.65464   0.49516   0.38160   0.00000  Uiso   1.00
C305   C     0.33380   0.55347   0.36968   0.00000  Uiso   1.00
H306   H     0.33902   0.57928   0.39863   0.00000  Uiso   1.00
H307   H     0.37813   0.56568   0.34413   0.00000  Uiso   1.00
H308   H     0.62793   0.56109   0.35731   0.00000  Uiso   1.00
H309   H     0.65196   0.46876   0.35264   0.00000  Uiso   1.00
H310   H     0.60715   0.48445   0.40431   0.00000  Uiso   1.00
C311   C     0.84838   0.60003   0.25127   0.00000  Uiso   1.00
C312   C     0.81831   0.39996   0.24867   0.00000  Uiso   1.00
C313   C     0.75803   0.47432   0.04156   0.00000  Uiso   1.00
C314   C     0.89417   0.55779   0.46618   0.00000  Uiso   1.00
C315   C     0.71314   0.46615   0.01673   0.00000  Uiso   1.00
C316   C     0.93733   0.57303   0.49181   0.00000  Uiso   1.00
C317   C     0.85684   0.65603   0.25183   0.00000  Uiso   1.00
C318   C     0.80990   0.34395   0.24799   0.00000  Uiso   1.00
C319   C     0.79461   0.49802   0.33347   0.00000  Uiso   1.00
C320   C     0.87223   0.50632   0.16704   0.00000  Uiso   1.00
C321   C     0.76989   0.49757   0.38201   0.00000  Uiso   1.00
C322   C     0.89625   0.51865   0.12009   0.00000  Uiso   1.00
C323   C     0.68586   0.47442   0.44813   0.00000  Uiso   1.00
C324   C     0.96754   0.57063   0.05946   0.00000  Uiso   1.00
C325   C     0.70445   0.48691   0.40339   0.00000  Uiso   1.00
C326   C     0.95305   0.55613   0.10334   0.00000  Uiso   1.00
C327   C     0.81357   0.50894   0.40802   0.00000  Uiso   1.00
C328   C     0.85548   0.49791   0.09278   0.00000  Uiso   1.00
C329   C     0.79448   0.50413   0.45380   0.00000  Uiso   1.00
C330   C     0.86652   0.51663   0.05026   0.00000  Uiso   1.00
C331   C     0.73093   0.48085   0.47290   0.00000  Uiso   1.00
C332   C     0.92447   0.55255   0.03347   0.00000  Uiso   1.00
C333   C     0.83742   0.52052   0.48080   0.00000  Uiso   1.00
C334   C     0.82089   0.50250   0.02451   0.00000  Uiso   1.00
Cu335  Cu    0.77404   0.49441   0.24516   0.00000  Uiso   1.00
Cu336  Cu    0.89263   0.50559   0.25483   0.00000  Uiso   1.00
H337   H     0.99781   0.44761   0.03176   0.00000  Uiso   1.00
H338   H     0.98035   0.60216   0.47938   0.00000  Uiso   1.00
H339   H     0.81393   0.46824   0.10621   0.00000  Uiso   1.00
H340   H     0.86284   0.52054   0.39205   0.00000  Uiso   1.00
H341   H     0.96938   0.46208   0.46418   0.00000  Uiso   1.00
H342   H     0.67772   0.59896   0.04629   0.00000  Uiso   1.00
H343   H     0.74082   0.46117   0.07489   0.00000  Uiso   1.00
H344   H     0.90384   0.57803   0.43579   0.00000  Uiso   1.00
H345   H     0.90205   0.34654   0.25543   0.00000  Uiso   1.00
H346   H     0.76470   0.65343   0.24436   0.00000  Uiso   1.00
H347   H     0.66991   0.54195   0.28135   0.00000  Uiso   1.00
H348   H     0.99746   0.45917   0.21742   0.00000  Uiso   1.00
N349   N     0.98173   0.51401   0.26212   0.00000  Uiso   1.00
N350   N     0.68494   0.48599   0.23788   0.00000  Uiso   1.00
O351   O     0.79482   0.57142   0.24686   0.00000  Uiso   1.00
O352   O     0.87185   0.42858   0.25314   0.00000  Uiso   1.00
O353   O     0.89496   0.58086   0.25502   0.00000  Uiso   1.00
O354   O     0.77171   0.41914   0.24497   0.00000  Uiso   1.00
O355   O     0.75518   0.49263   0.30854   0.00000  Uiso   1.00
O356   O     0.91149   0.50737   0.19145   0.00000  Uiso   1.00
O357   O     0.85532   0.50207   0.31671   0.00000  Uiso   1.00
O358   O     0.81134   0.49793   0.18329   0.00000  Uiso   1.00
C359   C     0.99552   0.58607   0.13173   0.00000  Uiso   1.00
C360   C     0.71364   0.55748   0.13395   0.00000  Uiso   1.00
H361   H     0.73909   0.57717   0.15875   0.00000  Uiso   1.00
H362   H     0.74826   0.55915   0.10168   0.00000  Uiso   1.00
H363   H     0.69318   0.51566   0.14308   0.00000  Uiso   1.00
H364   H     0.68567   0.62590   0.11823   0.00000  Uiso   1.00
H365   H     0.96768   0.59376   0.16508   0.00000  Uiso   1.00
C366   C     0.98797   0.49516   0.38160   0.00000  Uiso   1.00
C367   C     0.66713   0.55347   0.36968   0.00000  Uiso   1.00
H368   H     0.67235   0.57928   0.39863   0.00000  Uiso   1.00
H369   H     0.71146   0.56568   0.34413   0.00000  Uiso   1.00
H370   H     0.96126   0.56109   0.35731   0.00000  Uiso   1.00
H371   H     0.98529   0.46876   0.35264   0.00000  Uiso   1.00
H372   H     0.94049   0.48445   0.40431   0.00000  Uiso   1.00
C373   C     0.18171   0.93336   0.25127   0.00000  Uiso   1.00
C374   C     0.15164   0.73330   0.24867   0.00000  Uiso   1.00
C375   C     0.09136   0.80765   0.04156   0.00000  Uiso   1.00
C376   C     0.22750   0.89112   0.46618   0.00000  Uiso   1.00
C377   C     0.04647   0.79949   0.01673   0.00000  Uiso   1.00
C378   C     0.27067   0.90636   0.49181   0.00000  Uiso   1.00
C379   C     0.19017   0.98936   0.25183   0.00000  Uiso   1.00
C380   C     0.14323   0.67728   0.24799   0.00000  Uiso   1.00
C381   C     0.12794   0.83135   0.33347   0.00000  Uiso   1.00
C382   C     0.20556   0.83966   0.16704   0.00000  Uiso   1.00
C383   C     0.10322   0.83091   0.38201   0.00000  Uiso   1.00
C384   C     0.22958   0.85199   0.12009   0.00000  Uiso   1.00
C385   C     0.01919   0.80776   0.44813   0.00000  Uiso   1.00
C386   C     0.30088   0.90396   0.05946   0.00000  Uiso   1.00
C387   C     0.03778   0.82024   0.40339   0.00000  Uiso   1.00
C388   C     0.28639   0.88946   0.10334   0.00000  Uiso   1.00
C389   C     0.14691   0.84227   0.40802   0.00000  Uiso   1.00
C390   C     0.18882   0.83125   0.09278   0.00000  Uiso   1.00
C391   C     0.12781   0.83746   0.45380   0.00000  Uiso   1.00
C392   C     0.19986   0.84996   0.05026   0.00000  Uiso   1.00
C393   C     0.06426   0.81419   0.47290   0.00000  Uiso   1.00
C394   C     0.25780   0.88588   0.03347   0.00000  Uiso   1.00
C395   C     0.17075   0.85385   0.48080   0.00000  Uiso   1.00
C396   C     0.15423   0.83583   0.02451   0.00000  Uiso   1.00
Cu397  Cu    0.10737   0.82775   0.24516   0.00000  Uiso   1.00
Cu398  Cu    0.22596   0.83892   0.25483   0.00000  Uiso   1.00
H399   H     0.33114   0.78095   0.03176   0.00000  Uiso   1.00
H400   H     0.31368   0.93549   0.47938   0.00000  Uiso   1.00
H401   H     0.14727   0.80157   0.10621   0.00000  Uiso   1.00
H402   H     0.19618   0.85388   0.39205   0.00000  Uiso   1.00
H403   H     0.30271   0.79541   0.46418   0.00000  Uiso   1.00
H404   H     0.01106   0.93229   0.04629   0.00000  Uiso   1.00
H405   H     0.07416   0.79450   0.07489   0.00000  Uiso   1.00
H406   H     0.23717   0.91137   0.43579   0.00000  Uiso   1.00
H407   H     0.23538   0.67987   0.25543   0.00000  Uiso   1.00
H408   H     0.09803   0.98676   0.24436   0.00000  Uiso   1.00
H409   H     0.00324   0.87528   0.28135   0.00000  Uiso   1.00
H410   H     0.33080   0.79250   0.21742   0.00000  Uiso   1.00
N411   N     0.31506   0.84735   0.26212   0.00000  Uiso   1.00
N412   N     0.01827   0.81932   0.23788   0.00000  Uiso   1.00
O413   O     0.12815   0.90476   0.24686   0.00000  Uiso   1.00
O414   O     0.20518   0.76191   0.25314   0.00000  Uiso   1.00
O415   O     0.22829   0.91420   0.25502   0.00000  Uiso   1.00
O416   O     0.10504   0.75247   0.24497   0.00000  Uiso   1.00
O417   O     0.08851   0.82597   0.30854   0.00000  Uiso   1.00
O418   O     0.24482   0.84070   0.19145   0.00000  Uiso   1.00
O419   O     0.18866   0.83540   0.31671   0.00000  Uiso   1.00
O420   O     0.14468   0.83126   0.18329   0.00000  Uiso   1.00
C421   C     0.32885   0.91940   0.13173   0.00000  Uiso   1.00
C422   C     0.04697   0.89081   0.13395   0.00000  Uiso   1.00
H423   H     0.07243   0.91050   0.15875   0.00000  Uiso   1.00
H424   H     0.08159   0.89249   0.10168   0.00000  Uiso   1.00
H425   H     0.02651   0.84900   0.14308   0.00000  Uiso   1.00
H426   H     0.01900   0.95923   0.11823   0.00000  Uiso   1.00
H427   H     0.30102   0.92709   0.16508   0.00000  Uiso   1.00
C428   C     0.32131   0.82849   0.38160   0.00000  Uiso   1.00
C429   C     0.00046   0.88680   0.36968   0.00000  Uiso   1.00
H430   H     0.00569   0.91261   0.39863   0.00000  Uiso   1.00
H431   H     0.04479   0.89901   0.34413   0.00000  Uiso   1.00
H432   H     0.29460   0.89442   0.35731   0.00000  Uiso   1.00
H433   H     0.31863   0.80210   0.35264   0.00000  Uiso   1.00
H434   H     0.27382   0.81778   0.40431   0.00000  Uiso   1.00
C435   C     0.51505   0.93336   0.25127   0.00000  Uiso   1.00
C436   C     0.48498   0.73330   0.24867   0.00000  Uiso   1.00
C437   C     0.42470   0.80765   0.04156   0.00000  Uiso   1.00
C438   C     0.56083   0.89112   0.46618   0.00000  Uiso   1.00
C439   C     0.37980   0.79949   0.01673   0.00000  Uiso   1.00
C440   C     0.60400   0.90636   0.49181   0.00000  Uiso   1.00
C441   C     0.52350   0.98936   0.25183   0.00000  Uiso   1.00
C442   C     0.47657   0.67728   0.24799   0.00000  Uiso   1.00
C443   C     0.46127   0.83135   0.33347   0.00000  Uiso   1.00
C444   C     0.53890   0.83966   0.16704   0.00000  Uiso   1.00
C445   C     0.43656   0.83091   0.38201   0.00000  Uiso   1.00
C446   C     0.56291   0.85199   0.12009   0.00000  Uiso   1.00
C447   C     0.35252   0.80776   0.44813   0.00000  Uiso   1.00
C448   C     0.63421   0.90396   0.05946   0.00000  Uiso   1.00
C449   C     0.37112   0.82024   0.40339   0.00000  Uiso   1.00
C450   C     0.61972   0.88946   0.10334   0.00000  Uiso   1.00
C451   C     0.48024   0.84227   0.40802   0.00000  Uiso   1.00
C452   C     0.52215   0.83125   0.09278   0.00000  Uiso   1.00
C453   C     0.46115   0.83746   0.45380   0.00000  Uiso   1.00
C454   C     0.53319   0.84996   0.05026   0.00000  Uiso   1.00
C455   C     0.39759   0.81419   0.47290   0.00000  Uiso   1.00
C456   C     0.59113   0.88588   0.03347   0.00000  Uiso   1.00
C457   C     0.50409   0.85385   0.48080   0.00000  Uiso   1.00
C458   C     0.48756   0.83583   0.02451   0.00000  Uiso   1.00
Cu459  Cu    0.44071   0.82775   0.24516   0.00000  Uiso   1.00
Cu460  Cu    0.55929   0.83892   0.25483   0.00000  Uiso   1.00
H461   H     0.66448   0.78095   0.03176   0.00000  Uiso   1.00
H462   H     0.64701   0.93549   0.47938   0.00000  Uiso   1.00
H463   H     0.48060   0.80157   0.10621   0.00000  Uiso   1.00
H464   H     0.52951   0.85388   0.39205   0.00000  Uiso   1.00
H465   H     0.63604   0.79541   0.46418   0.00000  Uiso   1.00
H466   H     0.34439   0.93229   0.04629   0.00000  Uiso   1.00
H467   H     0.40749   0.79450   0.07489   0.00000  Uiso   1.00
H468   H     0.57050   0.91137   0.43579   0.00000  Uiso   1.00
H469   H     0.56872   0.67987   0.25543   0.00000  Uiso   1.00
H470   H     0.43137   0.98676   0.24436   0.00000  Uiso   1.00
H471   H     0.33657   0.87528   0.28135   0.00000  Uiso   1.00
H472   H     0.66413   0.79250   0.21742   0.00000  Uiso   1.00
N473   N     0.64839   0.84735   0.26212   0.00000  Uiso   1.00
N474   N     0.35161   0.81932   0.23788   0.00000  Uiso   1.00
O475   O     0.46148   0.90476   0.24686   0.00000  Uiso   1.00
O476   O     0.53852   0.76191   0.25314   0.00000  Uiso   1.00
O477   O     0.56163   0.91420   0.25502   0.00000  Uiso   1.00
O478   O     0.43837   0.75247   0.24497   0.00000  Uiso   1.00
O479   O     0.42185   0.82597   0.30854   0.00000  Uiso   1.00
O480   O     0.57815   0.84070   0.19145   0.00000  Uiso   1.00
O481   O     0.52199   0.83540   0.31671   0.00000  Uiso   1.00
O482   O     0.47801   0.83126   0.18329   0.00000  Uiso   1.00
C483   C     0.66219   0.91940   0.13173   0.00000  Uiso   1.00
C484   C     0.38030   0.89081   0.13395   0.00000  Uiso   1.00
H485   H     0.40576   0.91050   0.15875   0.00000  Uiso   1.00
H486   H     0.41493   0.89249   0.10168   0.00000  Uiso   1.00
H487   H     0.35985   0.84900   0.14308   0.00000  Uiso   1.00
H488   H     0.35233   0.95923   0.11823   0.00000  Uiso   1.00
H489   H     0.63435   0.92709   0.16508   0.00000  Uiso   1.00
C490   C     0.65464   0.82849   0.38160   0.00000  Uiso   1.00
C491   C     0.33380   0.88680   0.36968   0.00000  Uiso   1.00
H492   H     0.33902   0.91261   0.39863   0.00000  Uiso   1.00
H493   H     0.37813   0.89901   0.34413   0.00000  Uiso   1.00
H494   H     0.62793   0.89442   0.35731   0.00000  Uiso   1.00
H495   H     0.65196   0.80210   0.35264   0.00000  Uiso   1.00
H496   H     0.60715   0.81778   0.40431   0.00000  Uiso   1.00
C497   C     0.84838   0.93336   0.25127   0.00000  Uiso   1.00
C498   C     0.81831   0.73330   0.24867   0.00000  Uiso   1.00
C499   C     0.75803   0.80765   0.04156   0.00000  Uiso   1.00
C500   C     0.89417   0.89112   0.46618   0.00000  Uiso   1.00
C501   C     0.71314   0.79949   0.01673   0.00000  Uiso   1.00
C502   C     0.93733   0.90636   0.49181   0.00000  Uiso   1.00
C503   C     0.85684   0.98936   0.25183   0.00000  Uiso   1.00
C504   C     0.80990   0.67728   0.24799   0.00000  Uiso   1.00
C505   C     0.79461   0.83135   0.33347   0.00000  Uiso   1.00
C506   C     0.87223   0.83966   0.16704   0.00000  Uiso   1.00
C507   C     0.76989   0.83091   0.38201   0.00000  Uiso   1.00
C508   C     0.89625   0.85199   0.12009   0.00000  Uiso   1.00
C509   C     0.68586   0.80776   0.44813   0.00000  Uiso   1.00
C510   C     0.96754   0.90396   0.05946   0.00000  Uiso   1.00
C511   C     0.70445   0.82024   0.40339   0.00000  Uiso   1.00
C512   C     0.95305   0.88946   0.10334   0.00000  Uiso   1.00
C513   C     0.81357   0.84227   0.40802   0.00000  Uiso   1.00
C514   C     0.85548   0.83125   0.09278   0.00000  Uiso   1.00
C515   C     0.79448   0.83746   0.45380   0.00000  Uiso   1.00
C516   C     0.86652   0.84996   0.05026   0.00000  Uiso   1.00
C517   C     0.73093   0.81419   0.47290   0.00000  Uiso   1.00
C518   C     0.92447   0.88588   0.03347   0.00000  Uiso   1.00
C519   C     0.83742   0.85385   0.48080   0.00000  Uiso   1.00
C520   C     0.82089   0.83583   0.02451   0.00000  Uiso   1.00
Cu521  Cu    0.77404   0.82775   0.24516   0.00000  Uiso   1.00
Cu522  Cu    0.89263   0.83892   0.25483   0.00000  Uiso   1.00
H523   H     0.99781   0.78095   0.03176   0.00000  Uiso   1.00
H524   H     0.98035   0.93549   0.47938   0.00000  Uiso   1.00
H525   H     0.81393   0.80157   0.10621   0.00000  Uiso   1.00
H526   H     0.86284   0.85388   0.39205   0.00000  Uiso   1.00
H527   H     0.96938   0.79541   0.46418   0.00000  Uiso   1.00
H528   H     0.67772   0.93229   0.04629   0.00000  Uiso   1.00
H529   H     0.74082   0.79450   0.07489   0.00000  Uiso   1.00
H530   H     0.90384   0.91137   0.43579   0.00000  Uiso   1.00
H531   H     0.90205   0.67987   0.25543   0.00000  Uiso   1.00
H532   H     0.76470   0.98676   0.24436   0.00000  Uiso   1.00
H533   H     0.66991   0.87528   0.28135   0.00000  Uiso   1.00
H534   H     0.99746   0.79250   0.21742   0.00000  Uiso   1.00
N535   N     0.98173   0.84735   0.26212   0.00000  Uiso   1.00
N536   N     0.68494   0.81932   0.23788   0.00000  Uiso   1.00
O537   O     0.79482   0.90476   0.24686   0.00000  Uiso   1.00
O538   O     0.87185   0.76191   0.25314   0.00000  Uiso   1.00
O539   O     0.89496   0.91420   0.25502   0.00000  Uiso   1.00
O540   O     0.77171   0.75247   0.24497   0.00000  Uiso   1.00
O541   O     0.75518   0.82597   0.30854   0.00000  Uiso   1.00
O542   O     0.91149   0.84070   0.19145   0.00000  Uiso   1.00
O543   O     0.85532   0.83540   0.31671   0.00000  Uiso   1.00
O544   O     0.81134   0.83126   0.18329   0.00000  Uiso   1.00
C545   C     0.99552   0.91940   0.13173   0.00000  Uiso   1.00
C546   C     0.71364   0.89081   0.13395   0.00000  Uiso   1.00
H547   H     0.73909   0.91050   0.15875   0.00000  Uiso   1.00
H548   H     0.74826   0.89249   0.10168   0.00000  Uiso   1.00
H549   H     0.69318   0.84900   0.14308   0.00000  Uiso   1.00
H550   H     0.68567   0.95923   0.11823   0.00000  Uiso   1.00
H551   H     0.96768   0.92709   0.16508   0.00000  Uiso   1.00
C552   C     0.98797   0.82849   0.38160   0.00000  Uiso   1.00
C553   C     0.66713   0.88680   0.36968   0.00000  Uiso   1.00
H554   H     0.67235   0.91261   0.39863   0.00000  Uiso   1.00
H555   H     0.71146   0.89901   0.34413   0.00000  Uiso   1.00
H556   H     0.96126   0.89442   0.35731   0.00000  Uiso   1.00
H557   H     0.98529   0.80210   0.35264   0.00000  Uiso   1.00
H558   H     0.94049   0.81778   0.40431   0.00000  Uiso   1.00
C559   C     0.18171   0.26670   0.75127   0.00000  Uiso   1.00
C560   C     0.15164   0.06663   0.74867   0.00000  Uiso   1.00
C561   C     0.09136   0.14098   0.54156   0.00000  Uiso   1.00
C562   C     0.22750   0.22445   0.96618   0.00000  Uiso   1.00
C563   C     0.04647   0.13282   0.51673   0.00000  Uiso   1.00
C564   C     0.27067   0.23970   0.99181   0.00000  Uiso   1.00
C565   C     0.19017   0.32269   0.75183   0.00000  Uiso   1.00
C566   C     0.14323   0.01062   0.74799   0.00000  Uiso   1.00
C567   C     0.12794   0.16469   0.83347   0.00000  Uiso   1.00
C568   C     0.20556   0.17299   0.66704   0.00000  Uiso   1.00
C569   C     0.10322   0.16424   0.88201   0.00000  Uiso   1.00
C570   C     0.22958   0.18532   0.62009   0.00000  Uiso   1.00
C571   C     0.01919   0.14109   0.94813   0.00000  Uiso   1.00
C572   C     0.30088   0.23729   0.55946   0.00000  Uiso   1.00
C573   C     0.03778   0.15358   0.90339   0.00000  Uiso   1.00
C574   C     0.28639   0.22280   0.60334   0.00000  Uiso   1.00
C575   C     0.14691   0.17561   0.90802   0.00000  Uiso   1.00
C576   C     0.18882   0.16458   0.59278   0.00000  Uiso   1.00
C577   C     0.12781   0.17079   0.95380   0.00000  Uiso   1.00
C578   C     0.19986   0.18329   0.55026   0.00000  Uiso   1.00
C579   C     0.06426   0.14752   0.97290   0.00000  Uiso   1.00
C580   C     0.25780   0.21922   0.53347   0.00000  Uiso   1.00
C581   C     0.17075   0.18719   0.98080   0.00000  Uiso   1.00
C582   C     0.15423   0.16917   0.52451   0.00000  Uiso   1.00
Cu583  Cu    0.10737   0.16108   0.74516   0.00000  Uiso   1.00
Cu584  Cu    0.22596   0.17225   0.75483   0.00000  Uiso   1.00
H585   H     0.33114   0.11428   0.53176   0.00000  Uiso   1.00
H586   H     0.31368   0.26883   0.97938   0.00000  Uiso   1.00
H587   H     0.14727   0.13491   0.60621   0.00000  Uiso   1.00
H588   H     0.19618   0.18721   0.89205   0.00000  Uiso   1.00
H589   H     0.30271   0.12875   0.96418   0.00000  Uiso   1.00
H590   H     0.01106   0.26562   0.54629   0.00000  Uiso   1.00
H591   H     0.07416   0.12784   0.57489   0.00000  Uiso   1.00
H592   H     0.23717   0.24470   0.93579   0.00000  Uiso   1.00
H593   H     0.23538   0.01320   0.75543   0.00000  Uiso   1.00
H594   H     0.09803   0.32010   0.74436   0.00000  Uiso   1.00
H595   H     0.00324   0.20862   0.78135   0.00000  Uiso   1.00
H596   H     0.33080   0.12584   0.71742   0.00000  Uiso   1.00
N597   N     0.31506   0.18068   0.76212   0.00000  Uiso   1.00
N598   N     0.01827   0.15265   0.73788   0.00000  Uiso   1.00
O599   O     0.12815   0.23809   0.74686   0.00000  Uiso   1.00
O600   O     0.20518   0.09524   0.75314   0.00000  Uiso   1.00
O601   O     0.22829   0.24753   0.75502   0.00000  Uiso   1.00
O602   O     0.10504   0.08580   0.74497   0.00000  Uiso   1.00
O603   O     0.08851   0.15930   0.80854   0.00000  Uiso   1.00
O604   O     0.24482   0.17403   0.69145   0.00000  Uiso   1.00
O605   O     0.18866   0.16874   0.81671   0.00000  Uiso   1.00
O606   O     0.14468   0.16460   0.68329   0.00000  Uiso   1.00
C607   C     0.32885   0.25273   0.63173   0.00000  Uiso   1.00
C608   C     0.04697   0.22414   0.63395   0.00000  Uiso   1.00
H609   H     0.07243   0.24383   0.65875   0.00000  Uiso   1.00
H610   H     0.08159   0.22582   0.60168   0.00000  Uiso   1.00
H611   H     0.02651   0.18233   0.64308   0.00000  Uiso   1.00
H612   H     0.01900   0.29256   0.61823   0.00000  Uiso   1.00
H613   H     0.30102   0.26042   0.66508   0.00000  Uiso   1.00
C614   C     0.32131   0.16183   0.88160   0.00000  Uiso   1.00
C615   C     0.00046   0.22013   0.86968   0.00000  Uiso   1.00
H616   H     0.00569   0.24594   0.89863   0.00000  Uiso   1.00
H617   H     0.04479   0.23235   0.84413   0.00000  Uiso   1.00
H618   H     0.29460   0.22775   0.85731   0.00000  Uiso   1.00
H619   H     0.31863   0.13543   0.85264   0.00000  Uiso   1.00
H620   H     0.27382   0.15112   0.90431   0.00000  Uiso   1.00
C621   C     0.51505   0.26670   0.75127   0.00000  Uiso   1.00
C622   C     0.48498   0.06663   0.74867   0.00000  Uiso   1.00
C623   C     0.42470   0.14098   0.54156   0.00000  Uiso   1.00
C624   C     0.56083   0.22445   0.96618   0.00000  Uiso   1.00
C625   C     0.37980   0.13282   0.51673   0.00000  Uiso   1.00
C626   C     0.60400   0.23970   0.99181   0.00000  Uiso   1.00
C627   C     0.52350   0.32269   0.75183   0.00000  Uiso   1.00
C628   C     0.47657   0.01062   0.74799   0.00000  Uiso   1.00
C629   C     0.46127   0.16469   0.83347   0.00000  Uiso   1.00
C630   C     0.53890   0.17299   0.66704   0.00000  Uiso   1.00
C631   C     0.43656   0.16424   0.88201   0.00000  Uiso   1.00
C632   C     0.56291   0.18532   0.62009   0.00000  Uiso   1.00
C633   C     0.35252   0.14109   0.94813   0.00000  Uiso   1.00
C634   C     0.63421   0.23729   0.55946   0.00000  Uiso   1.00
C635   C     0.37112   0.15358   0.90339   0.00000  Uiso   1.00
C636   C     0.61972   0.22280   0.60334   0.00000  Uiso   1.00
C637   C     0.48024   0.17561   0.90802   0.00000  Uiso   1.00
C638   C     0.52215   0.16458   0.59278   0.00000  Uiso   1.00
C639   C     0.46115   0.17079   0.95380   0.00000  Uiso   1.00
C640   C     0.53319   0.18329   0.55026   0.00000  Uiso   1.00
C641   C     0.39759   0.14752   0.97290   0.00000  Uiso   1.00
C642   C     0.59113   0.21922   0.53347   0.00000  Uiso   1.00
C643   C     0.50409   0.18719   0.98080   0.00000  Uiso   1.00
C644   C     0.48756   0.16917   0.52451   0.00000  Uiso   1.00
Cu645  Cu    0.44071   0.16108   0.74516   0.00000  Uiso   1.00
Cu646  Cu    0.55929   0.17225   0.75483   0.00000  Uiso   1.00
H647   H     0.66448   0.11428   0.53176   0.00000  Uiso   1.00
H648   H     0.64701   0.26883   0.97938   0.00000  Uiso   1.00
H649   H     0.48060   0.13491   0.60621   0.00000  Uiso   1.00
H650   H     0.52951   0.18721   0.89205   0.00000  Uiso   1.00
H651   H     0.63604   0.12875   0.96418   0.00000  Uiso   1.00
H652   H     0.34439   0.26562   0.54629   0.00000  Uiso   1.00
H653   H     0.40749   0.12784   0.57489   0.00000  Uiso   1.00
H654   H     0.57050   0.24470   0.93579   0.00000  Uiso   1.00
H655   H     0.56872   0.01320   0.75543   0.00000  Uiso   1.00
H656   H     0.43137   0.32010   0.74436   0.00000  Uiso   1.00
H657   H     0.33657   0.20862   0.78135   0.00000  Uiso   1.00
H658   H     0.66413   0.12584   0.71742   0.00000  Uiso   1.00
N659   N     0.64839   0.18068   0.76212   0.00000  Uiso   1.00
N660   N     0.35161   0.15265   0.73788   0.00000  Uiso   1.00
O661   O     0.46148   0.23809   0.74686   0.00000  Uiso   1.00
O662   O     0.53852   0.09524   0.75314   0.00000  Uiso   1.00
O663   O     0.56163   0.24753   0.75502   0.00000  Uiso   1.00
O664   O     0.43837   0.08580   0.74497   0.00000  Uiso   1.00
O665   O     0.42185   0.15930   0.80854   0.00000  Uiso   1.00
O666   O     0.57815   0.17403   0.69145   0.00000  Uiso   1.00
O667   O     0.52199   0.16874   0.81671   0.00000  Uiso   1.00
O668   O     0.47801   0.16460   0.68329   0.00000  Uiso   1.00
C669   C     0.66219   0.25273   0.63173   0.00000  Uiso   1.00
C670   C     0.38030   0.22414   0.63395   0.00000  Uiso   1.00
H671   H     0.40576   0.24383   0.65875   0.00000  Uiso   1.00
H672   H     0.41493   0.22582   0.60168   0.00000  Uiso   1.00
H673   H     0.35985   0.18233   0.64308   0.00000  Uiso   1.00
H674   H     0.35233   0.29256   0.61823   0.00000  Uiso   1.00
H675   H     0.63435   0.26042   0.66508   0.00000  Uiso   1.00
C676   C     0.65464   0.16183   0.88160   0.00000  Uiso   1.00
C677   C     0.33380   0.22013   0.86968   0.00000  Uiso   1.00
H678   H     0.33902   0.24594   0.89863   0.00000  Uiso   1.00
H679   H     0.37813   0.23235   0.84413   0.00000  Uiso   1.00
H680   H     0.62793   0.22775   0.85731   0.00000  Uiso   1.00
H681   H     0.65196   0.13543   0.85264   0.00000  Uiso   1.00
H682   H     0.60715   0.15112   0.90431   0.00000  Uiso   1.00
C683   C     0.84838   0.26670   0.75127   0.00000  Uiso   1.00
C684   C     0.81831   0.06663   0.74867   0.00000  Uiso   1.00
C685   C     0.75803   0.14098   0.54156   0.00000  Uiso   1.00
C686   C     0.89417   0.22445   0.96618   0.00000  Uiso   1.00
C687   C     0.71314   0.13282   0.51673   0.00000  Uiso   1.00
C688   C     0.93733   0.23970   0.99181   0.00000  Uiso   1.00
C689   C     0.85684   0.32269   0.75183   0.00000  Uiso   1.00
C690   C     0.80990   0.01062   0.74799   0.00000  Uiso   1.00
C691   C     0.79461   0.16469   0.83347   0.00000  Uiso   1.00
C692   C     0.87223   0.17299   0.66704   0.00000  Uiso   1.00
C693   C     0.76989   0.16424   0.88201   0.00000  Uiso   1.00
C694   C     0.89625   0.18532   0.62009   0.00000  Uiso   1.00
C695   C     0.68586   0.14109   0.94813   0.00000  Uiso   1.00
C696   C     0.96754   0.23729   0.55946   0.00000  Uiso   1.00
C697   C     0.70445   0.15358   0.90339   0.00000  Uiso   1.00
C698   C     0.95305   0.22280   0.60334   0.00000  Uiso   1.00
C699   C     0.81357   0.17561   0.90802   0.00000  Uiso   1.00
C700   C     0.85548   0.16458   0.59278   0.00000  Uiso   1.00
C701   C     0.79448   0.17079   0.95380   0.00000  Uiso   1.00
C702   C     0.86652   0.18329   0.55026   0.00000  Uiso   1.00
C703   C     0.73093   0.14752   0.97290   0.00000  Uiso   1.00
C704   C     0.92447   0.21922   0.53347   0.00000  Uiso   1.00
C705   C     0.83742   0.18719   0.98080   0.00000  Uiso   1.00
C706   C     0.82089   0.16917   0.52451   0.00000  Uiso   1.00
Cu707  Cu    0.77404   0.16108   0.74516   0.00000  Uiso   1.00
Cu708  Cu    0.89263   0.17225   0.75483   0.00000  Uiso   1.00
H709   H     0.99781   0.11428   0.53176   0.00000  Uiso   1.00
H710   H     0.98035   0.26883   0.97938   0.00000  Uiso   1.00
H711   H     0.81393   0.13491   0.60621   0.00000  Uiso   1.00
H712   H     0.86284   0.18721   0.89205   0.00000  Uiso   1.00
H713   H     0.96938   0.12875   0.96418   0.00000  Uiso   1.00
H714   H     0.67772   0.26562   0.54629   0.00000  Uiso   1.00
H715   H     0.74082   0.12784   0.57489   0.00000  Uiso   1.00
H716   H     0.90384   0.24470   0.93579   0.00000  Uiso   1.00
H717   H     0.90205   0.01320   0.75543   0.00000  Uiso   1.00
H718   H     0.76470   0.32010   0.74436   0.00000  Uiso   1.00
H719   H     0.66991   0.20862   0.78135   0.00000  Uiso   1.00
H720   H     0.99746   0.12584   0.71742   0.00000  Uiso   1.00
N721   N     0.98173   0.18068   0.76212   0.00000  Uiso   1.00
N722   N     0.68494   0.15265   0.73788   0.00000  Uiso   1.00
O723   O     0.79482   0.23809   0.74686   0.00000  Uiso   1.00
O724   O     0.87185   0.09524   0.75314   0.00000  Uiso   1.00
O725   O     0.89496   0.24753   0.75502   0.00000  Uiso   1.00
O726   O     0.77171   0.08580   0.74497   0.00000  Uiso   1.00
O727   O     0.75518   0.15930   0.80854   0.00000  Uiso   1.00
O728   O     0.91149   0.17403   0.69145   0.00000  Uiso   1.00
O729   O     0.85532   0.16874   0.81671   0.00000  Uiso   1.00
O730   O     0.81134   0.16460   0.68329   0.00000  Uiso   1.00
C731   C     0.99552   0.25273   0.63173   0.00000  Uiso   1.00
C732   C     0.71364   0.22414   0.63395   0.00000  Uiso   1.00
H733   H     0.73909   0.24383   0.65875   0.00000  Uiso   1.00
H734   H     0.74826   0.22582   0.60168   0.00000  Uiso   1.00
H735   H     0.69318   0.18233   0.64308   0.00000  Uiso   1.00
H736   H     0.68567   0.29256   0.61823   0.00000  Uiso   1.00
H737   H     0.96768   0.26042   0.66508   0.00000  Uiso   1.00
C738   C     0.98797   0.16183   0.88160   0.00000  Uiso   1.00
C739   C     0.66713   0.22013   0.86968   0.00000  Uiso   1.00
H740   H     0.67235   0.24594   0.89863   0.00000  Uiso   1.00
H741   H     0.71146   0.23235   0.84413   0.00000  Uiso   1.00
H742   H     0.96126   0.22775   0.85731   0.00000  Uiso   1.00
H743   H     0.98529   0.13543   0.85264   0.00000  Uiso   1.00
H744   H     0.94049   0.15112   0.90431   0.00000  Uiso   1.00
C745   C     0.18171   0.60003   0.75127   0.00000  Uiso   1.00
C746   C     0.15164   0.39996   0.74867   0.00000  Uiso   1.00
C747   C     0.09136   0.47432   0.54156   0.00000  Uiso   1.00
C748   C     0.22750   0.55779   0.96618   0.00000  Uiso   1.00
C749   C     0.04647   0.46615   0.51673   0.00000  Uiso   1.00
C750   C     0.27067   0.57303   0.99181   0.00000  Uiso   1.00
C751   C     0.19017   0.65603   0.75183   0.00000  Uiso   1.00
C752   C     0.14323   0.34395   0.74799   0.00000  Uiso   1.00
C753   C     0.12794   0.49802   0.83347   0.00000  Uiso   1.00
C754   C     0.20556   0.50632   0.66704   0.00000  Uiso   1.00
C755   C     0.10322   0.49757   0.88201   0.00000  Uiso   1.00
C756   C     0.22958   0.51865   0.62009   0.00000  Uiso   1.00
C757   C     0.01919   0.47442   0.94813   0.00000  Uiso   1.00
C758   C     0.30088   0.57063   0.55946   0.00000  Uiso   1.00
C759   C     0.03778   0.48691   0.90339   0.00000  Uiso   1.00
C760   C     0.28639   0.55613   0.60334   0.00000  Uiso   1.00
C761   C     0.14691   0.50894   0.90802   0.00000  Uiso   1.00
C762   C     0.18882   0.49791   0.59278   0.00000  Uiso   1.00
C763   C     0.12781   0.50413   0.95380   0.00000  Uiso   1.00
C764   C     0.19986   0.51663   0.55026   0.00000  Uiso   1.00
C765   C     0.06426   0.48085   0.97290   0.00000  Uiso   1.00
C766   C     0.25780   0.55255   0.53347   0.00000  Uiso   1.00
C767   C     0.17075   0.52052   0.98080   0.00000  Uiso   1.00
C768   C     0.15423   0.50250   0.52451   0.00000  Uiso   1.00
Cu769  Cu    0.10737   0.49441   0.74516   0.00000  Uiso   1.00
Cu770  Cu    0.22596   0.50559   0.75483   0.00000  Uiso   1.00
H771   H     0.33114   0.44761   0.53176   0.00000  Uiso   1.00
H772   H     0.31368   0.60216   0.97938   0.00000  Uiso   1.00
H773   H     0.14727   0.46824   0.60621   0.00000  Uiso   1.00
H774   H     0.19618   0.52054   0.89205   0.00000  Uiso   1.00
H775   H     0.30271   0.46208   0.96418   0.00000  Uiso   1.00
H776   H     0.01106   0.59896   0.54629   0.00000  Uiso   1.00
H777   H     0.07416   0.46117   0.57489   0.00000  Uiso   1.00
H778   H     0.23717   0.57803   0.93579   0.00000  Uiso   1.00
H779   H     0.23538   0.34654   0.75543   0.00000  Uiso   1.00
H780   H     0.09803   0.65343   0.74436   0.00000  Uiso   1.00
H781   H     0.00324   0.54195   0.78135   0.00000  Uiso   1.00
H782   H     0.33080   0.45917   0.71742   0.00000  Uiso   1.00
N783   N     0.31506   0.51401   0.76212   0.00000  Uiso   1.00
N784   N     0.01827   0.48599   0.73788   0.00000  Uiso   1.00
O785   O     0.12815   0.57142   0.74686   0.00000  Uiso   1.00
O786   O     0.20518   0.42858   0.75314   0.00000  Uiso   1.00
O787   O     0.22829   0.58086   0.75502   0.00000  Uiso   1.00
O788   O     0.10504   0.41914   0.74497   0.00000  Uiso   1.00
O789   O     0.08851   0.49263   0.80854   0.00000  Uiso   1.00
O790   O     0.24482   0.50737   0.69145   0.00000  Uiso   1.00
O791   O     0.18866   0.50207   0.81671   0.00000  Uiso   1.00
O792   O     0.14468   0.49793   0.68329   0.00000  Uiso   1.00
C793   C     0.32885   0.58607   0.63173   0.00000  Uiso   1.00
C794   C     0.04697   0.55748   0.63395   0.00000  Uiso   1.00
H795   H     0.07243   0.57717   0.65875   0.00000  Uiso   1.00
H796   H     0.08159   0.55915   0.60168   0.00000  Uiso   1.00
H797   H     0.02651   0.51566   0.64308   0.00000  Uiso   1.00
H798   H     0.01900   0.62590   0.61823   0.00000  Uiso   1.00
H799   H     0.30102   0.59376   0.66508   0.00000  Uiso   1.00
C800   C     0.32131   0.49516   0.88160   0.00000  Uiso   1.00
C801   C     0.00046   0.55347   0.86968   0.00000  Uiso   1.00
H802   H     0.00569   0.57928   0.89863   0.00000  Uiso   1.00
H803   H     0.04479   0.56568   0.84413   0.00000  Uiso   1.00
H804   H     0.29460   0.56109   0.85731   0.00000  Uiso   1.00
H805   H     0.31863   0.46876   0.85264   0.00000  Uiso   1.00
H806   H     0.27382   0.48445   0.90431   0.00000  Uiso   1.00
C807   C     0.51505   0.60003   0.75127   0.00000  Uiso   1.00
C808   C     0.48498   0.39996   0.74867   0.00000  Uiso   1.00
C809   C     0.42470   0.47432   0.54156   0.00000  Uiso   1.00
C810   C     0.56083   0.55779   0.96618   0.00000  Uiso   1.00
C811   C     0.37980   0.46615   0.51673   0.00000  Uiso   1.00
C812   C     0.60400   0.57303   0.99181   0.00000  Uiso   1.00
C813   C     0.52350   0.65603   0.75183   0.00000  Uiso   1.00
C814   C     0.47657   0.34395   0.74799   0.00000  Uiso   1.00
C815   C     0.46127   0.49802   0.83347   0.00000  Uiso   1.00
C816   C     0.53890   0.50632   0.66704   0.00000  Uiso   1.00
C817   C     0.43656   0.49757   0.88201   0.00000  Uiso   1.00
C818   C     0.56291   0.51865   0.62009   0.00000  Uiso   1.00
C819   C     0.35252   0.47442   0.94813   0.00000  Uiso   1.00
C820   C     0.63421   0.57063   0.55946   0.00000  Uiso   1.00
C821   C     0.37112   0.48691   0.90339   0.00000  Uiso   1.00
C822   C     0.61972   0.55613   0.60334   0.00000  Uiso   1.00
C823   C     0.48024   0.50894   0.90802   0.00000  Uiso   1.00
C824   C     0.52215   0.49791   0.59278   0.00000  Uiso   1.00
C825   C     0.46115   0.50413   0.95380   0.00000  Uiso   1.00
C826   C     0.53319   0.51663   0.55026   0.00000  Uiso   1.00
C827   C     0.39759   0.48085   0.97290   0.00000  Uiso   1.00
C828   C     0.59113   0.55255   0.53347   0.00000  Uiso   1.00
C829   C     0.50409   0.52052   0.98080   0.00000  Uiso   1.00
C830   C     0.48756   0.50250   0.52451   0.00000  Uiso   1.00
Cu831  Cu    0.44071   0.49441   0.74516   0.00000  Uiso   1.00
Cu832  Cu    0.55929   0.50559   0.75483   0.00000  Uiso   1.00
H833   H     0.66448   0.44761   0.53176   0.00000  Uiso   1.00
H834   H     0.64701   0.60216   0.97938   0.00000  Uiso   1.00
H835   H     0.48060   0.46824   0.60621   0.00000  Uiso   1.00
H836   H     0.52951   0.52054   0.89205   0.00000  Uiso   1.00
H837   H     0.63604   0.46208   0.96418   0.00000  Uiso   1.00
H838   H     0.34439   0.59896   0.54629   0.00000  Uiso   1.00
H839   H     0.40749   0.46117   0.57489   0.00000  Uiso   1.00
H840   H     0.57050   0.57803   0.93579   0.00000  Uiso   1.00
H841   H     0.56872   0.34654   0.75543   0.00000  Uiso   1.00
H842   H     0.43137   0.65343   0.74436   0.00000  Uiso   1.00
H843   H     0.33657   0.54195   0.78135   0.00000  Uiso   1.00
H844   H     0.66413   0.45917   0.71742   0.00000  Uiso   1.00
N845   N     0.64839   0.51401   0.76212   0.00000  Uiso   1.00
N846   N     0.35161   0.48599   0.73788   0.00000  Uiso   1.00
O847   O     0.46148   0.57142   0.74686   0.00000  Uiso   1.00
O848   O     0.53852   0.42858   0.75314   0.00000  Uiso   1.00
O849   O     0.56163   0.58086   0.75502   0.00000  Uiso   1.00
O850   O     0.43837   0.41914   0.74497   0.00000  Uiso   1.00
O851   O     0.42185   0.49263   0.80854   0.00000  Uiso   1.00
O852   O     0.57815   0.50737   0.69145   0.00000  Uiso   1.00
O853   O     0.52199   0.50207   0.81671   0.00000  Uiso   1.00
O854   O     0.47801   0.49793   0.68329   0.00000  Uiso   1.00
C855   C     0.66219   0.58607   0.63173   0.00000  Uiso   1.00
C856   C     0.38030   0.55748   0.63395   0.00000  Uiso   1.00
H857   H     0.40576   0.57717   0.65875   0.00000  Uiso   1.00
H858   H     0.41493   0.55915   0.60168   0.00000  Uiso   1.00
H859   H     0.35985   0.51566   0.64308   0.00000  Uiso   1.00
H860   H     0.35233   0.62590   0.61823   0.00000  Uiso   1.00
H861   H     0.63435   0.59376   0.66508   0.00000  Uiso   1.00
C862   C     0.65464   0.49516   0.88160   0.00000  Uiso   1.00
C863   C     0.33380   0.55347   0.86968   0.00000  Uiso   1.00
H864   H     0.33902   0.57928   0.89863   0.00000  Uiso   1.00
H865   H     0.37813   0.56568   0.84413   0.00000  Uiso   1.00
H866   H     0.62793   0.56109   0.85731   0.00000  Uiso   1.00
H867   H     0.65196   0.46876   0.85264   0.00000  Uiso   1.00
H868   H     0.60715   0.48445   0.90431   0.00000  Uiso   1.00
C869   C     0.84838   0.60003   0.75127   0.00000  Uiso   1.00
C870   C     0.81831   0.39996   0.74867   0.00000  Uiso   1.00
C871   C     0.75803   0.47432   0.54156   0.00000  Uiso   1.00
C872   C     0.89417   0.55779   0.96618   0.00000  Uiso   1.00
C873   C     0.71314   0.46615   0.51673   0.00000  Uiso   1.00
C874   C     0.93733   0.57303   0.99181   0.00000  Uiso   1.00
C875   C     0.85684   0.65603   0.75183   0.00000  Uiso   1.00
C876   C     0.80990   0.34395   0.74799   0.00000  Uiso   1.00
C877   C     0.79461   0.49802   0.83347   0.00000  Uiso   1.00
C878   C     0.87223   0.50632   0.66704   0.00000  Uiso   1.00
C879   C     0.76989   0.49757   0.88201   0.00000  Uiso   1.00
C880   C     0.89625   0.51865   0.62009   0.00000  Uiso   1.00
C881   C     0.68586   0.47442   0.94813   0.00000  Uiso   1.00
C882   C     0.96754   0.57063   0.55946   0.00000  Uiso   1.00
C883   C     0.70445   0.48691   0.90339   0.00000  Uiso   1.00
C884   C     0.95305   0.55613   0.60334   0.00000  Uiso   1.00
C885   C     0.81357   0.50894   0.90802   0.00000  Uiso   1.00
C886   C     0.85548   0.49791   0.59278   0.00000  Uiso   1.00
C887   C     0.79448   0.50413   0.95380   0.00000  Uiso   1.00
C888   C     0.86652   0.51663   0.55026   0.00000  Uiso   1.00
C889   C     0.73093   0.48085   0.97290   0.00000  Uiso   1.00
C890   C     0.92447   0.55255   0.53347   0.00000  Uiso   1.00
C891   C     0.83742   0.52052   0.98080   0.00000  Uiso   1.00
C892   C     0.82089   0.50250   0.52451   0.00000  Uiso   1.00
Cu893  Cu    0.77404   0.49441   0.74516   0.00000  Uiso   1.00
Cu894  Cu    0.89263   0.50559   0.75483   0.00000  Uiso   1.00
H895   H     0.99781   0.44761   0.53176   0.00000  Uiso   1.00
H896   H     0.98035   0.60216   0.97938   0.00000  Uiso   1.00
H897   H     0.81393   0.46824   0.60621   0.00000  Uiso   1.00
H898   H     0.86284   0.52054   0.89205   0.00000  Uiso   1.00
H899   H     0.96938   0.46208   0.96418   0.00000  Uiso   1.00
H900   H     0.67772   0.59896   0.54629   0.00000  Uiso   1.00
H901   H     0.74082   0.46117   0.57489   0.00000  Uiso   1.00
H902   H     0.90384   0.57803   0.93579   0.00000  Uiso   1.00
H903   H     0.90205   0.34654   0.75543   0.00000  Uiso   1.00
H904   H     0.76470   0.65343   0.74436   0.00000  Uiso   1.00
H905   H     0.66991   0.54195   0.78135   0.00000  Uiso   1.00
H906   H     0.99746   0.45917   0.71742   0.00000  Uiso   1.00
N907   N     0.98173   0.51401   0.76212   0.00000  Uiso   1.00
N908   N     0.68494   0.48599   0.73788   0.00000  Uiso   1.00
O909   O     0.79482   0.57142   0.74686   0.00000  Uiso   1.00
O910   O     0.87185   0.42858   0.75314   0.00000  Uiso   1.00
O911   O     0.89496   0.58086   0.75502   0.00000  Uiso   1.00
O912   O     0.77171   0.41914   0.74497   0.00000  Uiso   1.00
O913   O     0.75518   0.49263   0.80854   0.00000  Uiso   1.00
O914   O     0.91149   0.50737   0.69145   0.00000  Uiso   1.00
O915   O     0.85532   0.50207   0.81671   0.00000  Uiso   1.00
O916   O     0.81134   0.49793   0.68329   0.00000  Uiso   1.00
C917   C     0.99552   0.58607   0.63173   0.00000  Uiso   1.00
C918   C     0.71364   0.55748   0.63395   0.00000  Uiso   1.00
H919   H     0.73909   0.57717   0.65875   0.00000  Uiso   1.00
H920   H     0.74826   0.55915   0.60168   0.00000  Uiso   1.00
H921   H     0.69318   0.51566   0.64308   0.00000  Uiso   1.00
H922   H     0.68567   0.62590   0.61823   0.00000  Uiso   1.00
H923   H     0.96768   0.59376   0.66508   0.00000  Uiso   1.00
C924   C     0.98797   0.49516   0.88160   0.00000  Uiso   1.00
C925   C     0.66713   0.55347   0.86968   0.00000  Uiso   1.00
H926   H     0.67235   0.57928   0.89863   0.00000  Uiso   1.00
H927   H     0.71146   0.56568   0.84413   0.00000  Uiso   1.00
H928   H     0.96126   0.56109   0.85731   0.00000  Uiso   1.00
H929   H     0.98529   0.46876   0.85264   0.00000  Uiso   1.00
H930   H     0.94049   0.48445   0.90431   0.00000  Uiso   1.00
C931   C     0.18171   0.93336   0.75127   0.00000  Uiso   1.00
C932   C     0.15164   0.73330   0.74867   0.00000  Uiso   1.00
C933   C     0.09136   0.80765   0.54156   0.00000  Uiso   1.00
C934   C     0.22750   0.89112   0.96618   0.00000  Uiso   1.00
C935   C     0.04647   0.79949   0.51673   0.00000  Uiso   1.00
C936   C     0.27067   0.90636   0.99181   0.00000  Uiso   1.00
C937   C     0.19017   0.98936   0.75183   0.00000  Uiso   1.00
C938   C     0.14323   0.67728   0.74799   0.00000  Uiso   1.00
C939   C     0.12794   0.83135   0.83347   0.00000  Uiso   1.00
C940   C     0.20556   0.83966   0.66704   0.00000  Uiso   1.00
C941   C     0.10322   0.83091   0.88201   0.00000  Uiso   1.00
C942   C     0.22958   0.85199   0.62009   0.00000  Uiso   1.00
C943   C     0.01919   0.80776   0.94813   0.00000  Uiso   1.00
C944   C     0.30088   0.90396   0.55946   0.00000  Uiso   1.00
C945   C     0.03778   0.82024   0.90339   0.00000  Uiso   1.00
C946   C     0.28639   0.88946   0.60334   0.00000  Uiso   1.00
C947   C     0.14691   0.84227   0.90802   0.00000  Uiso   1.00
C948   C     0.18882   0.83125   0.59278   0.00000  Uiso   1.00
C949   C     0.12781   0.83746   0.95380   0.00000  Uiso   1.00
C950   C     0.19986   0.84996   0.55026   0.00000  Uiso   1.00
C951   C     0.06426   0.81419   0.97290   0.00000  Uiso   1.00
C952   C     0.25780   0.88588   0.53347   0.00000  Uiso   1.00
C953   C     0.17075   0.85385   0.98080   0.00000  Uiso   1.00
C954   C     0.15423   0.83583   0.52451   0.00000  Uiso   1.00
Cu955  Cu    0.10737   0.82775   0.74516   0.00000  Uiso   1.00
Cu956  Cu    0.22596   0.83892   0.75483   0.00000  Uiso   1.00
H957   H     0.33114   0.78095   0.53176   0.00000  Uiso   1.00
H958   H     0.31368   0.93549   0.97938   0.00000  Uiso   1.00
H959   H     0.14727   0.80157   0.60621   0.00000  Uiso   1.00
H960   H     0.19618   0.85388   0.89205   0.00000  Uiso   1.00
H961   H     0.30271   0.79541   0.96418   0.00000  Uiso   1.00
H962   H     0.01106   0.93229   0.54629   0.00000  Uiso   1.00
H963   H     0.07416   0.79450   0.57489   0.00000  Uiso   1.00
H964   H     0.23717   0.91137   0.93579   0.00000  Uiso   1.00
H965   H     0.23538   0.67987   0.75543   0.00000  Uiso   1.00
H966   H     0.09803   0.98676   0.74436   0.00000  Uiso   1.00
H967   H     0.00324   0.87528   0.78135   0.00000  Uiso   1.00
H968   H     0.33080   0.79250   0.71742   0.00000  Uiso   1.00
N969   N     0.31506   0.84735   0.76212   0.00000  Uiso   1.00
N970   N     0.01827   0.81932   0.73788   0.00000  Uiso   1.00
O971   O     0.12815   0.90476   0.74686   0.00000  Uiso   1.00
O972   O     0.20518   0.76191   0.75314   0.00000  Uiso   1.00
O973   O     0.22829   0.91420   0.75502   0.00000  Uiso   1.00
O974   O     0.10504   0.75247   0.74497   0.00000  Uiso   1.00
O975   O     0.08851   0.82597   0.80854   0.00000  Uiso   1.00
O976   O     0.24482   0.84070   0.69145   0.00000  Uiso   1.00
O977   O     0.18866   0.83540   0.81671   0.00000  Uiso   1.00
O978   O     0.14468   0.83126   0.68329   0.00000  Uiso   1.00
C979   C     0.32885   0.91940   0.63173   0.00000  Uiso   1.00
C980   C     0.04697   0.89081   0.63395   0.00000  Uiso   1.00
H981   H     0.07243   0.91050   0.65875   0.00000  Uiso   1.00
H982   H     0.08159   0.89249   0.60168   0.00000  Uiso   1.00
H983   H     0.02651   0.84900   0.64308   0.00000  Uiso   1.00
H984   H     0.01900   0.95923   0.61823   0.00000  Uiso   1.00
H985   H     0.30102   0.92709   0.66508   0.00000  Uiso   1.00
C986   C     0.32131   0.82849   0.88160   0.00000  Uiso   1.00
C987   C     0.00046   0.88680   0.86968   0.00000  Uiso   1.00
H988   H     0.00569   0.91261   0.89863   0.00000  Uiso   1.00
H989   H     0.04479   0.89901   0.84413   0.00000  Uiso   1.00
H990   H     0.29460   0.89442   0.85731   0.00000  Uiso   1.00
H991   H     0.31863   0.80210   0.85264   0.00000  Uiso   1.00
H992   H     0.27382   0.81778   0.90431   0.00000  Uiso   1.00
C993   C     0.51505   0.93336   0.75127   0.00000  Uiso   1.00
C994   C     0.48498   0.73330   0.74867   0.00000  Uiso   1.00
C995   C     0.42470   0.80765   0.54156   0.00000  Uiso   1.00
C996   C     0.56083   0.89112   0.96618   0.00000  Uiso   1.00
C997   C     0.37980   0.79949   0.51673   0.00000  Uiso   1.00
C998   C     0.60400   0.90636   0.99181   0.00000  Uiso   1.00
C999   C     0.52350   0.98936   0.75183   0.00000  Uiso   1.00
C1000  C     0.47657   0.67728   0.74799   0.00000  Uiso   1.00
C1001  C     0.46127   0.83135   0.83347   0.00000  Uiso   1.00
C1002  C     0.53890   0.83966   0.66704   0.00000  Uiso   1.00
C1003  C     0.43656   0.83091   0.88201   0.00000  Uiso   1.00
C1004  C     0.56291   0.85199   0.62009   0.00000  Uiso   1.00
C1005  C     0.35252   0.80776   0.94813   0.00000  Uiso   1.00
C1006  C     0.63421   0.90396   0.55946   0.00000  Uiso   1.00
C1007  C     0.37112   0.82024   0.90339   0.00000  Uiso   1.00
C1008  C     0.61972   0.88946   0.60334   0.00000  Uiso   1.00
C1009  C     0.48024   0.84227   0.90802   0.00000  Uiso   1.00
C1010  C     0.52215   0.83125   0.59278   0.00000  Uiso   1.00
C1011  C     0.46115   0.83746   0.95380   0.00000  Uiso   1.00
C1012  C     0.53319   0.84996   0.55026   0.00000  Uiso   1.00
C1013  C     0.39759   0.81419   0.97290   0.00000  Uiso   1.00
C1014  C     0.59113   0.88588   0.53347   0.00000  Uiso   1.00
C1015  C     0.50409   0.85385   0.98080   0.00000  Uiso   1.00
C1016  C     0.48756   0.83583   0.52451   0.00000  Uiso   1.00
Cu1017 Cu    0.44071   0.82775   0.74516   0.00000  Uiso   1.00
Cu1018 Cu    0.55929   0.83892   0.75483   0.00000  Uiso   1.00
H1019  H     0.66448   0.78095   0.53176   0.00000  Uiso   1.00
H1020  H     0.64701   0.93549   0.97938   0.00000  Uiso   1.00
H1021  H     0.48060   0.80157   0.60621   0.00000  Uiso   1.00
H1022  H     0.52951   0.85388   0.89205   0.00000  Uiso   1.00
H1023  H     0.63604   0.79541   0.96418   0.00000  Uiso   1.00
H1024  H     0.34439   0.93229   0.54629   0.00000  Uiso   1.00
H1025  H     0.40749   0.79450   0.57489   0.00000  Uiso   1.00
H1026  H     0.57050   0.91137   0.93579   0.00000  Uiso   1.00
H1027  H     0.56872   0.67987   0.75543   0.00000  Uiso   1.00
H1028  H     0.43137   0.98676   0.74436   0.00000  Uiso   1.00
H1029  H     0.33657   0.87528   0.78135   0.00000  Uiso   1.00
H1030  H     0.66413   0.79250   0.71742   0.00000  Uiso   1.00
N1031  N     0.64839   0.84735   0.76212   0.00000  Uiso   1.00
N1032  N     0.35161   0.81932   0.73788   0.00000  Uiso   1.00
O1033  O     0.46148   0.90476   0.74686   0.00000  Uiso   1.00
O1034  O     0.53852   0.76191   0.75314   0.00000  Uiso   1.00
O1035  O     0.56163   0.91420   0.75502   0.00000  Uiso   1.00
O1036  O     0.43837   0.75247   0.74497   0.00000  Uiso   1.00
O1037  O     0.42185   0.82597   0.80854   0.00000  Uiso   1.00
O1038  O     0.57815   0.84070   0.69145   0.00000  Uiso   1.00
O1039  O     0.52199   0.83540   0.81671   0.00000  Uiso   1.00
O1040  O     0.47801   0.83126   0.68329   0.00000  Uiso   1.00
C1041  C     0.66219   0.91940   0.63173   0.00000  Uiso   1.00
C1042  C     0.38030   0.89081   0.63395   0.00000  Uiso   1.00
H1043  H     0.40576   0.91050   0.65875   0.00000  Uiso   1.00
H1044  H     0.41493   0.89249   0.60168   0.00000  Uiso   1.00
H1045  H     0.35985   0.84900   0.64308   0.00000  Uiso   1.00
H1046  H     0.35233   0.95923   0.61823   0.00000  Uiso   1.00
H1047  H     0.63435   0.92709   0.66508   0.00000  Uiso   1.00
C1048  C     0.65464   0.82849   0.88160   0.00000  Uiso   1.00
C1049  C     0.33380   0.88680   0.86968   0.00000  Uiso   1.00
H1050  H     0.33902   0.91261   0.89863   0.00000  Uiso   1.00
H1051  H     0.37813   0.89901   0.84413   0.00000  Uiso   1.00
H1052  H     0.62793   0.89442   0.85731   0.00000  Uiso   1.00
H1053  H     0.65196   0.80210   0.85264   0.00000  Uiso   1.00
H1054  H     0.60715   0.81778   0.90431   0.00000  Uiso   1.00
C1055  C     0.84838   0.93336   0.75127   0.00000  Uiso   1.00
C1056  C     0.81831   0.73330   0.74867   0.00000  Uiso   1.00
C1057  C     0.75803   0.80765   0.54156   0.00000  Uiso   1.00
C1058  C     0.89417   0.89112   0.96618   0.00000  Uiso   1.00
C1059  C     0.71314   0.79949   0.51673   0.00000  Uiso   1.00
C1060  C     0.93733   0.90636   0.99181   0.00000  Uiso   1.00
C1061  C     0.85684   0.98936   0.75183   0.00000  Uiso   1.00
C1062  C     0.80990   0.67728   0.74799   0.00000  Uiso   1.00
C1063  C     0.79461   0.83135   0.83347   0.00000  Uiso   1.00
C1064  C     0.87223   0.83966   0.66704   0.00000  Uiso   1.00
C1065  C     0.76989   0.83091   0.88201   0.00000  Uiso   1.00
C1066  C     0.89625   0.85199   0.62009   0.00000  Uiso   1.00
C1067  C     0.68586   0.80776   0.94813   0.00000  Uiso   1.00
C1068  C     0.96754   0.90396   0.55946   0.00000  Uiso   1.00
C1069  C     0.70445   0.82024   0.90339   0.00000  Uiso   1.00
C1070  C     0.95305   0.88946   0.60334   0.00000  Uiso   1.00
C1071  C     0.81357   0.84227   0.90802   0.00000  Uiso   1.00
C1072  C     0.85548   0.83125   0.59278   0.00000  Uiso   1.00
C1073  C     0.79448   0.83746   0.95380   0.00000  Uiso   1.00
C1074  C     0.86652   0.84996   0.55026   0.00000  Uiso   1.00
C1075  C     0.73093   0.81419   0.97290   0.00000  Uiso   1.00
C1076  C     0.92447   0.88588   0.53347   0.00000  Uiso   1.00
C1077  C     0.83742   0.85385   0.98080   0.00000  Uiso   1.00
C1078  C     0.82089   0.83583   0.52451   0.00000  Uiso   1.00
Cu1079 Cu    0.77404   0.82775   0.74516   0.00000  Uiso   1.00
Cu1080 Cu    0.89263   0.83892   0.75483   0.00000  Uiso   1.00
H1081  H     0.99781   0.78095   0.53176   0.00000  Uiso   1.00
H1082  H     0.98035   0.93549   0.97938   0.00000  Uiso   1.00
H1083  H     0.81393   0.80157   0.60621   0.00000  Uiso   1.00
H1084  H     0.86284   0.85388   0.89205   0.00000  Uiso   1.00
H1085  H     0.96938   0.79541   0.96418   0.00000  Uiso   1.00
H1086  H     0.67772   0.93229   0.54629   0.00000  Uiso   1.00
H1087  H     0.74082   0.79450   0.57489   0.00000  Uiso   1.00
H1088  H     0.90384   0.91137   0.93579   0.00000  Uiso   1.00
H1089  H     0.90205   0.67987   0.75543   0.00000  Uiso   1.00
H1090  H     0.76470   0.98676   0.74436   0.00000  Uiso   1.00
H1091  H     0.66991   0.87528   0.78135   0.00000  Uiso   1.00
H1092  H     0.99746   0.79250   0.71742   0.00000  Uiso   1.00
N1093  N     0.98173   0.84735   0.76212   0.00000  Uiso   1.00
N1094  N     0.68494   0.81932   0.73788   0.00000  Uiso   1.00
O1095  O     0.79482   0.90476   0.74686   0.00000  Uiso   1.00
O1096  O     0.87185   0.76191   0.75314   0.00000  Uiso   1.00
O1097  O     0.89496   0.91420   0.75502   0.00000  Uiso   1.00
O1098  O     0.77171   0.75247   0.74497   0.00000  Uiso   1.00
O1099  O     0.75518   0.82597   0.80854   0.00000  Uiso   1.00
O1100  O     0.91149   0.84070   0.69145   0.00000  Uiso   1.00
O1101  O     0.85532   0.83540   0.81671   0.00000  Uiso   1.00
O1102  O     0.81134   0.83126   0.68329   0.00000  Uiso   1.00
C1103  C     0.99552   0.91940   0.63173   0.00000  Uiso   1.00
C1104  C     0.71364   0.89081   0.63395   0.00000  Uiso   1.00
H1105  H     0.73909   0.91050   0.65875   0.00000  Uiso   1.00
H1106  H     0.74826   0.89249   0.60168   0.00000  Uiso   1.00
H1107  H     0.69318   0.84900   0.64308   0.00000  Uiso   1.00
H1108  H     0.68567   0.95923   0.61823   0.00000  Uiso   1.00
H1109  H     0.96768   0.92709   0.66508   0.00000  Uiso   1.00
C1110  C     0.98797   0.82849   0.88160   0.00000  Uiso   1.00
C1111  C     0.66713   0.88680   0.86968   0.00000  Uiso   1.00
H1112  H     0.67235   0.91261   0.89863   0.00000  Uiso   1.00
H1113  H     0.71146   0.89901   0.84413   0.00000  Uiso   1.00
H1114  H     0.96126   0.89442   0.85731   0.00000  Uiso   1.00
H1115  H     0.98529   0.80210   0.85264   0.00000  Uiso   1.00
H1116  H     0.94049   0.81778   0.90431   0.00000  Uiso   1.00
loop_
_geom_bond_atom_site_label_1
_geom_bond_atom_site_label_2
_geom_bond_distance
_geom_bond_site_symmetry_2
_ccdc_geom_bond_type
C1     O43     1.288   .     A
C1     O41     1.293   .     A
C1     C7      1.427   .     S
C2     O44     1.288   .     A
C2     O42     1.293   .     A
C2     C8      1.428   .     S
C3     C24     1.418   .     A
C3     H33     1.077   .     S
C3     C5      1.395   .     A
C4     H34     1.078   .     S
C4     C6      1.385   .     A
C4     C23     1.405   .     A
C5     C579    1.396   1_554 S
C5     H151    1.084   1_455 S
C6     H28     1.084   .     S
C6     C580    1.392   .     S
C7     C194    1.329   .     S
C7     H221    1.088   .     S
C8     C379    1.329   1_545 S
C8     H408    1.088   1_545 S
C9     O45     1.302   .     A
C9     C11     1.491   .     S
C9     O47     1.310   .     A
C10    O46     1.302   .     A
C10    C12     1.475   .     S
C10    O48     1.301   .     A
C11    C17     1.399   .     A
C11    C15     1.420   .     A
C12    C18     1.404   .     A
C12    C16     1.420   .     A
C13    C21     1.400   .     A
C13    C15     1.407   .     A
C13    H155    1.085   1_455 S
C14    C22     1.400   .     A
C14    C16     1.400   .     A
C14    H94     1.085   .     S
C15    C180    1.511   1_455 S
C16    C49     1.518   .     S
C17    H30     1.072   .     S
C17    C19     1.405   .     A
C18    H29     1.078   .     S
C18    C20     1.405   .     A
C19    C23     1.416   .     A
C19    C21     1.407   .     A
C20    C22     1.417   .     A
C20    C24     1.429   .     A
C21    C563    1.396   .     S
C22    C564    1.392   1_554 S
C23    C582    1.420   .     S
C24    C581    1.420   1_554 S
Cu25   O48     1.919   .     S
Cu25   O44     1.950   .     S
Cu25   N40     2.025   .     S
Cu25   O41     1.954   .     S
Cu25   O45     1.938   .     S
Cu25   Cu26    2.695   .     S
Cu26   O47     1.919   .     S
Cu26   O43     1.950   .     S
Cu26   N39     2.025   .     S
Cu26   O42     1.954   .     S
Cu26   O46     1.938   .     S
H27    C67     1.084   .     S
H31    C75     1.085   .     S
H32    C138    1.085   1_455 S
H35    C379    1.088   1_545 S
H36    C194    1.088   .     S
H37    N163    1.026   1_455 S
H38    N102    1.029   .     S
N39    H99     1.026   .     S
N39    N102    1.289   .     S
N40    H162    1.029   1_455 S
N40    N163    1.289   1_455 S
C49    H55     1.109   .     S
C49    C112    1.525   .     S
C49    H116    1.112   .     S
C50    H52     1.109   .     S
C50    H51     1.111   .     S
C50    H53     1.110   .     S
C50    C173    1.525   1_455 S
H54    C173    1.112   1_455 S
C56    H62     1.108   .     S
C56    H61     1.108   .     S
C56    C77     1.511   .     S
C56    C119    1.538   .     S
C57    H58     1.108   .     S
C57    H59     1.106   .     S
C57    C180    1.538   1_455 S
C57    H184    1.107   1_455 S
H60    C119    1.107   .     S
C63    O105    1.288   .     A
C63    O103    1.293   .     A
C63    C69     1.427   .     S
C64    O106    1.288   .     A
C64    O104    1.293   .     A
C64    C70     1.428   .     S
C65    C86     1.418   .     A
C65    H95     1.077   .     S
C65    C67     1.395   .     A
C66    H96     1.078   .     S
C66    C68     1.385   .     A
C66    C85     1.405   .     A
C67    C641    1.396   1_554 S
C68    H90     1.084   .     S
C68    C642    1.392   .     S
C69    C256    1.329   .     S
C69    H283    1.088   .     S
C70    C441    1.329   1_545 S
C70    H470    1.088   1_545 S
C71    O107    1.302   .     A
C71    C73     1.491   .     S
C71    O109    1.310   .     A
C72    O108    1.302   .     A
C72    C74     1.475   .     S
C72    O110    1.301   .     A
C73    C79     1.399   .     A
C73    C77     1.420   .     A
C74    C80     1.404   .     A
C74    C78     1.420   .     A
C75    C83     1.400   .     A
C75    C77     1.407   .     A
C76    C84     1.400   .     A
C76    C78     1.400   .     A
C76    H156    1.085   .     S
C78    C111    1.518   .     S
C79    H92     1.072   .     S
C79    C81     1.405   .     A
C80    H91     1.078   .     S
C80    C82     1.405   .     A
C81    C85     1.416   .     A
C81    C83     1.407   .     A
C82    C84     1.417   .     A
C82    C86     1.429   .     A
C83    C625    1.396   .     S
C84    C626    1.392   1_554 S
C85    C644    1.420   .     S
C86    C643    1.420   1_554 S
Cu87   O110    1.919   .     S
Cu87   O106    1.950   .     S
Cu87   N102    2.025   .     S
Cu87   O103    1.954   .     S
Cu87   O107    1.938   .     S
Cu87   Cu88    2.695   .     S
Cu88   O109    1.919   .     S
Cu88   O105    1.950   .     S
Cu88   N101    2.025   .     S
Cu88   O104    1.954   .     S
Cu88   O108    1.938   .     S
H89    C129    1.084   .     S
H93    C137    1.085   .     S
H97    C441    1.088   1_545 S
H98    C256    1.088   .     S
H100   N164    1.029   .     S
N101   H161    1.026   .     S
N101   N164    1.289   .     S
C111   H117    1.109   .     S
C111   C174    1.525   .     S
C111   H178    1.112   .     S
C112   H114    1.109   .     S
C112   H113    1.111   .     S
C112   H115    1.110   .     S
C118   H124    1.108   .     S
C118   H123    1.108   .     S
C118   C139    1.511   .     S
C118   C181    1.538   .     S
C119   H120    1.108   .     S
C119   H121    1.106   .     S
H122   C181    1.107   .     S
C125   O167    1.288   .     A
C125   O165    1.293   .     A
C125   C131    1.427   .     S
C126   O168    1.288   .     A
C126   O166    1.293   .     A
C126   C132    1.428   .     S
C127   C148    1.418   .     A
C127   H157    1.077   .     S
C127   C129    1.395   .     A
C128   H158    1.078   .     S
C128   C130    1.385   .     A
C128   C147    1.405   .     A
C129   C703    1.396   1_554 S
C130   H152    1.084   .     S
C130   C704    1.392   .     S
C131   C318    1.329   .     S
C131   H345    1.088   .     S
C132   C503    1.329   1_545 S
C132   H532    1.088   1_545 S
C133   O169    1.302   .     A
C133   C135    1.491   .     S
C133   O171    1.310   .     A
C134   O170    1.302   .     A
C134   C136    1.475   .     S
C134   O172    1.301   .     A
C135   C141    1.399   .     A
C135   C139    1.420   .     A
C136   C142    1.404   .     A
C136   C140    1.420   .     A
C137   C145    1.400   .     A
C137   C139    1.407   .     A
C138   C146    1.400   .     A
C138   C140    1.400   .     A
C138   H32     1.085   1_655 S
C140   C173    1.518   .     S
C141   H154    1.072   .     S
C141   C143    1.405   .     A
C142   H153    1.078   .     S
C142   C144    1.405   .     A
C143   C147    1.416   .     A
C143   C145    1.407   .     A
C144   C146    1.417   .     A
C144   C148    1.429   .     A
C145   C687    1.396   .     S
C146   C688    1.392   1_554 S
C147   C706    1.420   .     S
C148   C705    1.420   1_554 S
Cu149  O172    1.919   .     S
Cu149  O168    1.950   .     S
Cu149  N164    2.025   .     S
Cu149  O165    1.954   .     S
Cu149  O169    1.938   .     S
Cu149  Cu150   2.695   .     S
Cu150  O171    1.919   .     S
Cu150  O167    1.950   .     S
Cu150  N163    2.025   .     S
Cu150  O166    1.954   .     S
Cu150  O170    1.938   .     S
H151   C5      1.084   1_655 S
H155   C13     1.085   1_655 S
H159   C503    1.088   1_545 S
H160   C318    1.088   .     S
H162   N40     1.029   1_655 S
N163   H37     1.026   1_655 S
N163   N40     1.289   1_655 S
C173   H179    1.109   .     S
C173   C50     1.525   1_655 S
C173   H54     1.112   1_655 S
C174   H176    1.109   .     S
C174   H175    1.111   .     S
C174   H177    1.110   .     S
C180   H186    1.108   .     S
C180   H185    1.108   .     S
C180   C15     1.511   1_655 S
C180   C57     1.538   1_655 S
C181   H182    1.108   .     S
C181   H183    1.106   .     S
H184   C57     1.107   1_655 S
C187   O229    1.288   .     A
C187   O227    1.293   .     A
C187   C193    1.427   .     S
C188   O230    1.288   .     A
C188   O228    1.293   .     A
C188   C194    1.428   .     S
C189   C210    1.418   .     A
C189   H219    1.077   .     S
C189   C191    1.395   .     A
C190   H220    1.078   .     S
C190   C192    1.385   .     A
C190   C209    1.405   .     A
C191   C765    1.396   1_554 S
C191   H337    1.084   1_455 S
C192   H214    1.084   .     S
C192   C766    1.392   .     S
C193   C380    1.329   .     S
C193   H407    1.088   .     S
C195   O231    1.302   .     A
C195   C197    1.491   .     S
C195   O233    1.310   .     A
C196   O232    1.302   .     A
C196   C198    1.475   .     S
C196   O234    1.301   .     A
C197   C203    1.399   .     A
C197   C201    1.420   .     A
C198   C204    1.404   .     A
C198   C202    1.420   .     A
C199   C207    1.400   .     A
C199   C201    1.407   .     A
C199   H341    1.085   1_455 S
C200   C208    1.400   .     A
C200   C202    1.400   .     A
C200   H280    1.085   .     S
C201   C366    1.511   1_455 S
C202   C235    1.518   .     S
C203   H216    1.072   .     S
C203   C205    1.405   .     A
C204   H215    1.078   .     S
C204   C206    1.405   .     A
C205   C209    1.416   .     A
C205   C207    1.407   .     A
C206   C208    1.417   .     A
C206   C210    1.429   .     A
C207   C749    1.396   .     S
C208   C750    1.392   1_554 S
C209   C768    1.420   .     S
C210   C767    1.420   1_554 S
Cu211  O234    1.919   .     S
Cu211  O230    1.950   .     S
Cu211  N226    2.025   .     S
Cu211  O227    1.954   .     S
Cu211  O231    1.938   .     S
Cu211  Cu212   2.695   .     S
Cu212  O233    1.919   .     S
Cu212  O229    1.950   .     S
Cu212  N225    2.025   .     S
Cu212  O228    1.954   .     S
Cu212  O232    1.938   .     S
H213   C253    1.084   .     S
H217   C261    1.085   .     S
H218   C324    1.085   1_455 S
H222   C380    1.088   .     S
H223   N349    1.026   1_455 S
H224   N288    1.029   .     S
N225   H285    1.026   .     S
N225   N288    1.289   .     S
N226   H348    1.029   1_455 S
N226   N349    1.289   1_455 S
C235   H241    1.109   .     S
C235   C298    1.525   .     S
C235   H302    1.112   .     S
C236   H238    1.109   .     S
C236   H237    1.111   .     S
C236   H239    1.110   .     S
C236   C359    1.525   1_455 S
H240   C359    1.112   1_455 S
C242   H248    1.108   .     S
C242   H247    1.108   .     S
C242   C263    1.511   .     S
C242   C305    1.538   .     S
C243   H244    1.108   .     S
C243   H245    1.106   .     S
C243   C366    1.538   1_455 S
C243   H370    1.107   1_455 S
H246   C305    1.107   .     S
C249   O291    1.288   .     A
C249   O289    1.293   .     A
C249   C255    1.427   .     S
C250   O292    1.288   .     A
C250   O290    1.293   .     A
C250   C256    1.428   .     S
C251   C272    1.418   .     A
C251   H281    1.077   .     S
C251   C253    1.395   .     A
C252   H282    1.078   .     S
C252   C254    1.385   .     A
C252   C271    1.405   .     A
C253   C827    1.396   1_554 S
C254   H276    1.084   .     S
C254   C828    1.392   .     S
C255   C442    1.329   .     S
C255   H469    1.088   .     S
C257   O293    1.302   .     A
C257   C259    1.491   .     S
C257   O295    1.310   .     A
C258   O294    1.302   .     A
C258   C260    1.475   .     S
C258   O296    1.301   .     A
C259   C265    1.399   .     A
C259   C263    1.420   .     A
C260   C266    1.404   .     A
C260   C264    1.420   .     A
C261   C269    1.400   .     A
C261   C263    1.407   .     A
C262   C270    1.400   .     A
C262   C264    1.400   .     A
C262   H342    1.085   .     S
C264   C297    1.518   .     S
C265   H278    1.072   .     S
C265   C267    1.405   .     A
C266   H277    1.078   .     S
C266   C268    1.405   .     A
C267   C271    1.416   .     A
C267   C269    1.407   .     A
C268   C270    1.417   .     A
C268   C272    1.429   .     A
C269   C811    1.396   .     S
C270   C812    1.392   1_554 S
C271   C830    1.420   .     S
C272   C829    1.420   1_554 S
Cu273  O296    1.919   .     S
Cu273  O292    1.950   .     S
Cu273  N288    2.025   .     S
Cu273  O289    1.954   .     S
Cu273  O293    1.938   .     S
Cu273  Cu274   2.695   .     S
Cu274  O295    1.919   .     S
Cu274  O291    1.950   .     S
Cu274  N287    2.025   .     S
Cu274  O290    1.954   .     S
Cu274  O294    1.938   .     S
H275   C315    1.084   .     S
H279   C323    1.085   .     S
H284   C442    1.088   .     S
H286   N350    1.029   .     S
N287   H347    1.026   .     S
N287   N350    1.289   .     S
C297   H303    1.109   .     S
C297   C360    1.525   .     S
C297   H364    1.112   .     S
C298   H300    1.109   .     S
C298   H299    1.111   .     S
C298   H301    1.110   .     S
C304   H310    1.108   .     S
C304   H309    1.108   .     S
C304   C325    1.511   .     S
C304   C367    1.538   .     S
C305   H306    1.108   .     S
C305   H307    1.106   .     S
H308   C367    1.107   .     S
C311   O353    1.288   .     A
C311   O351    1.293   .     A
C311   C317    1.427   .     S
C312   O354    1.288   .     A
C312   O352    1.293   .     A
C312   C318    1.428   .     S
C313   C334    1.418   .     A
C313   H343    1.077   .     S
C313   C315    1.395   .     A
C314   H344    1.078   .     S
C314   C316    1.385   .     A
C314   C333    1.405   .     A
C315   C889    1.396   1_554 S
C316   H338    1.084   .     S
C316   C890    1.392   .     S
C317   C504    1.329   .     S
C317   H531    1.088   .     S
C319   O355    1.302   .     A
C319   C321    1.491   .     S
C319   O357    1.310   .     A
C320   O356    1.302   .     A
C320   C322    1.475   .     S
C320   O358    1.301   .     A
C321   C327    1.399   .     A
C321   C325    1.420   .     A
C322   C328    1.404   .     A
C322   C326    1.420   .     A
C323   C331    1.400   .     A
C323   C325    1.407   .     A
C324   C332    1.400   .     A
C324   C326    1.400   .     A
C324   H218    1.085   1_655 S
C326   C359    1.518   .     S
C327   H340    1.072   .     S
C327   C329    1.405   .     A
C328   H339    1.078   .     S
C328   C330    1.405   .     A
C329   C333    1.416   .     A
C329   C331    1.407   .     A
C330   C332    1.417   .     A
C330   C334    1.429   .     A
C331   C873    1.396   .     S
C332   C874    1.392   1_554 S
C333   C892    1.420   .     S
C334   C891    1.420   1_554 S
Cu335  O358    1.919   .     S
Cu335  O354    1.950   .     S
Cu335  N350    2.025   .     S
Cu335  O351    1.954   .     S
Cu335  O355    1.938   .     S
Cu335  Cu336   2.695   .     S
Cu336  O357    1.919   .     S
Cu336  O353    1.950   .     S
Cu336  N349    2.025   .     S
Cu336  O352    1.954   .     S
Cu336  O356    1.938   .     S
H337   C191    1.084   1_655 S
H341   C199    1.085   1_655 S
H346   C504    1.088   .     S
H348   N226    1.029   1_655 S
N349   H223    1.026   1_655 S
N349   N226    1.289   1_655 S
C359   H365    1.109   .     S
C359   C236    1.525   1_655 S
C359   H240    1.112   1_655 S
C360   H362    1.109   .     S
C360   H361    1.111   .     S
C360   H363    1.110   .     S
C366   H372    1.108   .     S
C366   H371    1.108   .     S
C366   C201    1.511   1_655 S
C366   C243    1.538   1_655 S
C367   H368    1.108   .     S
C367   H369    1.106   .     S
H370   C243    1.107   1_655 S
C373   O415    1.288   .     A
C373   O413    1.293   .     A
C373   C379    1.427   .     S
C374   O416    1.288   .     A
C374   O414    1.293   .     A
C374   C380    1.428   .     S
C375   C396    1.418   .     A
C375   H405    1.077   .     S
C375   C377    1.395   .     A
C376   H406    1.078   .     S
C376   C378    1.385   .     A
C376   C395    1.405   .     A
C377   C951    1.396   1_554 S
C377   H523    1.084   1_455 S
C378   H400    1.084   .     S
C378   C952    1.392   .     S
C379   C8      1.329   1_565 S
C379   H35     1.088   1_565 S
C381   O417    1.302   .     A
C381   C383    1.491   .     S
C381   O419    1.310   .     A
C382   O418    1.302   .     A
C382   C384    1.475   .     S
C382   O420    1.301   .     A
C383   C389    1.399   .     A
C383   C387    1.420   .     A
C384   C390    1.404   .     A
C384   C388    1.420   .     A
C385   C393    1.400   .     A
C385   C387    1.407   .     A
C385   H527    1.085   1_455 S
C386   C394    1.400   .     A
C386   C388    1.400   .     A
C386   H466    1.085   .     S
C387   C552    1.511   1_455 S
C388   C421    1.518   .     S
C389   H402    1.072   .     S
C389   C391    1.405   .     A
C390   H401    1.078   .     S
C390   C392    1.405   .     A
C391   C395    1.416   .     A
C391   C393    1.407   .     A
C392   C394    1.417   .     A
C392   C396    1.429   .     A
C393   C935    1.396   .     S
C394   C936    1.392   1_554 S
C395   C954    1.420   .     S
C396   C953    1.420   1_554 S
Cu397  O420    1.919   .     S
Cu397  O416    1.950   .     S
Cu397  N412    2.025   .     S
Cu397  O413    1.954   .     S
Cu397  O417    1.938   .     S
Cu397  Cu398   2.695   .     S
Cu398  O419    1.919   .     S
Cu398  O415    1.950   .     S
Cu398  N411    2.025   .     S
Cu398  O414    1.954   .     S
Cu398  O418    1.938   .     S
H399   C439    1.084   .     S
H403   C447    1.085   .     S
H404   C510    1.085   1_455 S
H408   C8      1.088   1_565 S
H409   N535    1.026   1_455 S
H410   N474    1.029   .     S
N411   H471    1.026   .     S
N411   N474    1.289   .     S
N412   H534    1.029   1_455 S
N412   N535    1.289   1_455 S
C421   H427    1.109   .     S
C421   C484    1.525   .     S
C421   H488    1.112   .     S
C422   H424    1.109   .     S
C422   H423    1.111   .     S
C422   H425    1.110   .     S
C422   C545    1.525   1_455 S
H426   C545    1.112   1_455 S
C428   H434    1.108   .     S
C428   H433    1.108   .     S
C428   C449    1.511   .     S
C428   C491    1.538   .     S
C429   H430    1.108   .     S
C429   H431    1.106   .     S
C429   C552    1.538   1_455 S
C429   H556    1.107   1_455 S
H432   C491    1.107   .     S
C435   O477    1.288   .     A
C435   O475    1.293   .     A
C435   C441    1.427   .     S
C436   O478    1.288   .     A
C436   O476    1.293   .     A
C436   C442    1.428   .     S
C437   C458    1.418   .     A
C437   H467    1.077   .     S
C437   C439    1.395   .     A
C438   H468    1.078   .     S
C438   C440    1.385   .     A
C438   C457    1.405   .     A
C439   C1013   1.396   1_554 S
C440   H462    1.084   .     S
C440   C1014   1.392   .     S
C441   C70     1.329   1_565 S
C441   H97     1.088   1_565 S
C443   O479    1.302   .     A
C443   C445    1.491   .     S
C443   O481    1.310   .     A
C444   O480    1.302   .     A
C444   C446    1.475   .     S
C444   O482    1.301   .     A
C445   C451    1.399   .     A
C445   C449    1.420   .     A
C446   C452    1.404   .     A
C446   C450    1.420   .     A
C447   C455    1.400   .     A
C447   C449    1.407   .     A
C448   C456    1.400   .     A
C448   C450    1.400   .     A
C448   H528    1.085   .     S
C450   C483    1.518   .     S
C451   H464    1.072   .     S
C451   C453    1.405   .     A
C452   H463    1.078   .     S
C452   C454    1.405   .     A
C453   C457    1.416   .     A
C453   C455    1.407   .     A
C454   C456    1.417   .     A
C454   C458    1.429   .     A
C455   C997    1.396   .     S
C456   C998    1.392   1_554 S
C457   C1016   1.420   .     S
C458   C1015   1.420   1_554 S
Cu459  O482    1.919   .     S
Cu459  O478    1.950   .     S
Cu459  N474    2.025   .     S
Cu459  O475    1.954   .     S
Cu459  O479    1.938   .     S
Cu459  Cu460   2.695   .     S
Cu460  O481    1.919   .     S
Cu460  O477    1.950   .     S
Cu460  N473    2.025   .     S
Cu460  O476    1.954   .     S
Cu460  O480    1.938   .     S
H461   C501    1.084   .     S
H465   C509    1.085   .     S
H470   C70     1.088   1_565 S
H472   N536    1.029   .     S
N473   H533    1.026   .     S
N473   N536    1.289   .     S
C483   H489    1.109   .     S
C483   C546    1.525   .     S
C483   H550    1.112   .     S
C484   H486    1.109   .     S
C484   H485    1.111   .     S
C484   H487    1.110   .     S
C490   H496    1.108   .     S
C490   H495    1.108   .     S
C490   C511    1.511   .     S
C490   C553    1.538   .     S
C491   H492    1.108   .     S
C491   H493    1.106   .     S
H494   C553    1.107   .     S
C497   O539    1.288   .     A
C497   O537    1.293   .     A
C497   C503    1.427   .     S
C498   O540    1.288   .     A
C498   O538    1.293   .     A
C498   C504    1.428   .     S
C499   C520    1.418   .     A
C499   H529    1.077   .     S
C499   C501    1.395   .     A
C500   H530    1.078   .     S
C500   C502    1.385   .     A
C500   C519    1.405   .     A
C501   C1075   1.396   1_554 S
C502   H524    1.084   .     S
C502   C1076   1.392   .     S
C503   C132    1.329   1_565 S
C503   H159    1.088   1_565 S
C505   O541    1.302   .     A
C505   C507    1.491   .     S
C505   O543    1.310   .     A
C506   O542    1.302   .     A
C506   C508    1.475   .     S
C506   O544    1.301   .     A
C507   C513    1.399   .     A
C507   C511    1.420   .     A
C508   C514    1.404   .     A
C508   C512    1.420   .     A
C509   C517    1.400   .     A
C509   C511    1.407   .     A
C510   C518    1.400   .     A
C510   C512    1.400   .     A
C510   H404    1.085   1_655 S
C512   C545    1.518   .     S
C513   H526    1.072   .     S
C513   C515    1.405   .     A
C514   H525    1.078   .     S
C514   C516    1.405   .     A
C515   C519    1.416   .     A
C515   C517    1.407   .     A
C516   C518    1.417   .     A
C516   C520    1.429   .     A
C517   C1059   1.396   .     S
C518   C1060   1.392   1_554 S
C519   C1078   1.420   .     S
C520   C1077   1.420   1_554 S
Cu521  O544    1.919   .     S
Cu521  O540    1.950   .     S
Cu521  N536    2.025   .     S
Cu521  O537    1.954   .     S
Cu521  O541    1.938   .     S
Cu521  Cu522   2.695   .     S
Cu522  O543    1.919   .     S
Cu522  O539    1.950   .     S
Cu522  N535    2.025   .     S
Cu522  O538    1.954   .     S
Cu522  O542    1.938   .     S
H523   C377    1.084   1_655 S
H527   C385    1.085   1_655 S
H532   C132    1.088   1_565 S
H534   N412    1.029   1_655 S
N535   H409    1.026   1_655 S
N535   N412    1.289   1_655 S
C545   H551    1.109   .     S
C545   C422    1.525   1_655 S
C545   H426    1.112   1_655 S
C546   H548    1.109   .     S
C546   H547    1.111   .     S
C546   H549    1.110   .     S
C552   H558    1.108   .     S
C552   H557    1.108   .     S
C552   C387    1.511   1_655 S
C552   C429    1.538   1_655 S
C553   H554    1.108   .     S
C553   H555    1.106   .     S
H556   C429    1.107   1_655 S
C559   O601    1.288   .     A
C559   O599    1.293   .     A
C559   C565    1.427   .     S
C560   O602    1.288   .     A
C560   O600    1.293   .     A
C560   C566    1.428   .     S
C561   C582    1.418   .     A
C561   H591    1.077   .     S
C561   C563    1.395   .     A
C562   H592    1.078   .     S
C562   C564    1.385   .     A
C562   C581    1.405   .     A
C563   H709    1.084   1_455 S
C564   H586    1.084   .     S
C564   C22     1.392   1_556 S
C565   C752    1.329   .     S
C565   H779    1.088   .     S
C566   C937    1.329   1_545 S
C566   H966    1.088   1_545 S
C567   O603    1.302   .     A
C567   C569    1.491   .     S
C567   O605    1.310   .     A
C568   O604    1.302   .     A
C568   C570    1.475   .     S
C568   O606    1.301   .     A
C569   C575    1.399   .     A
C569   C573    1.420   .     A
C570   C576    1.404   .     A
C570   C574    1.420   .     A
C571   C579    1.400   .     A
C571   C573    1.407   .     A
C571   H713    1.085   1_455 S
C572   C580    1.400   .     A
C572   C574    1.400   .     A
C572   H652    1.085   .     S
C573   C738    1.511   1_455 S
C574   C607    1.518   .     S
C575   H588    1.072   .     S
C575   C577    1.405   .     A
C576   H587    1.078   .     S
C576   C578    1.405   .     A
C577   C581    1.416   .     A
C577   C579    1.407   .     A
C578   C580    1.417   .     A
C578   C582    1.429   .     A
C579   C5      1.396   1_556 S
C581   C24     1.420   1_556 S
Cu583  O606    1.919   .     S
Cu583  O602    1.950   .     S
Cu583  N598    2.025   .     S
Cu583  O599    1.954   .     S
Cu583  O603    1.938   .     S
Cu583  Cu584   2.695   .     S
Cu584  O605    1.919   .     S
Cu584  O601    1.950   .     S
Cu584  N597    2.025   .     S
Cu584  O600    1.954   .     S
Cu584  O604    1.938   .     S
H585   C625    1.084   .     S
H589   C633    1.085   .     S
H590   C696    1.085   1_455 S
H593   C937    1.088   1_545 S
H594   C752    1.088   .     S
H595   N721    1.026   1_455 S
H596   N660    1.029   .     S
N597   H657    1.026   .     S
N597   N660    1.289   .     S
N598   H720    1.029   1_455 S
N598   N721    1.289   1_455 S
C607   H613    1.109   .     S
C607   C670    1.525   .     S
C607   H674    1.112   .     S
C608   H610    1.109   .     S
C608   H609    1.111   .     S
C608   H611    1.110   .     S
C608   C731    1.525   1_455 S
H612   C731    1.112   1_455 S
C614   H620    1.108   .     S
C614   H619    1.108   .     S
C614   C635    1.511   .     S
C614   C677    1.538   .     S
C615   H616    1.108   .     S
C615   H617    1.106   .     S
C615   C738    1.538   1_455 S
C615   H742    1.107   1_455 S
H618   C677    1.107   .     S
C621   O663    1.288   .     A
C621   O661    1.293   .     A
C621   C627    1.427   .     S
C622   O664    1.288   .     A
C622   O662    1.293   .     A
C622   C628    1.428   .     S
C623   C644    1.418   .     A
C623   H653    1.077   .     S
C623   C625    1.395   .     A
C624   H654    1.078   .     S
C624   C626    1.385   .     A
C624   C643    1.405   .     A
C626   H648    1.084   .     S
C626   C84     1.392   1_556 S
C627   C814    1.329   .     S
C627   H841    1.088   .     S
C628   C999    1.329   1_545 S
C628   H1028   1.088   1_545 S
C629   O665    1.302   .     A
C629   C631    1.491   .     S
C629   O667    1.310   .     A
C630   O666    1.302   .     A
C630   C632    1.475   .     S
C630   O668    1.301   .     A
C631   C637    1.399   .     A
C631   C635    1.420   .     A
C632   C638    1.404   .     A
C632   C636    1.420   .     A
C633   C641    1.400   .     A
C633   C635    1.407   .     A
C634   C642    1.400   .     A
C634   C636    1.400   .     A
C634   H714    1.085   .     S
C636   C669    1.518   .     S
C637   H650    1.072   .     S
C637   C639    1.405   .     A
C638   H649    1.078   .     S
C638   C640    1.405   .     A
C639   C643    1.416   .     A
C639   C641    1.407   .     A
C640   C642    1.417   .     A
C640   C644    1.429   .     A
C641   C67     1.396   1_556 S
C643   C86     1.420   1_556 S
Cu645  O668    1.919   .     S
Cu645  O664    1.950   .     S
Cu645  N660    2.025   .     S
Cu645  O661    1.954   .     S
Cu645  O665    1.938   .     S
Cu645  Cu646   2.695   .     S
Cu646  O667    1.919   .     S
Cu646  O663    1.950   .     S
Cu646  N659    2.025   .     S
Cu646  O662    1.954   .     S
Cu646  O666    1.938   .     S
H647   C687    1.084   .     S
H651   C695    1.085   .     S
H655   C999    1.088   1_545 S
H656   C814    1.088   .     S
H658   N722    1.029   .     S
N659   H719    1.026   .     S
N659   N722    1.289   .     S
C669   H675    1.109   .     S
C669   C732    1.525   .     S
C669   H736    1.112   .     S
C670   H672    1.109   .     S
C670   H671    1.111   .     S
C670   H673    1.110   .     S
C676   H682    1.108   .     S
C676   H681    1.108   .     S
C676   C697    1.511   .     S
C676   C739    1.538   .     S
C677   H678    1.108   .     S
C677   H679    1.106   .     S
H680   C739    1.107   .     S
C683   O725    1.288   .     A
C683   O723    1.293   .     A
C683   C689    1.427   .     S
C684   O726    1.288   .     A
C684   O724    1.293   .     A
C684   C690    1.428   .     S
C685   C706    1.418   .     A
C685   H715    1.077   .     S
C685   C687    1.395   .     A
C686   H716    1.078   .     S
C686   C688    1.385   .     A
C686   C705    1.405   .     A
C688   H710    1.084   .     S
C688   C146    1.392   1_556 S
C689   C876    1.329   .     S
C689   H903    1.088   .     S
C690   C1061   1.329   1_545 S
C690   H1090   1.088   1_545 S
C691   O727    1.302   .     A
C691   C693    1.491   .     S
C691   O729    1.310   .     A
C692   O728    1.302   .     A
C692   C694    1.475   .     S
C692   O730    1.301   .     A
C693   C699    1.399   .     A
C693   C697    1.420   .     A
C694   C700    1.404   .     A
C694   C698    1.420   .     A
C695   C703    1.400   .     A
C695   C697    1.407   .     A
C696   C704    1.400   .     A
C696   C698    1.400   .     A
C696   H590    1.085   1_655 S
C698   C731    1.518   .     S
C699   H712    1.072   .     S
C699   C701    1.405   .     A
C700   H711    1.078   .     S
C700   C702    1.405   .     A
C701   C705    1.416   .     A
C701   C703    1.407   .     A
C702   C704    1.417   .     A
C702   C706    1.429   .     A
C703   C129    1.396   1_556 S
C705   C148    1.420   1_556 S
Cu707  O730    1.919   .     S
Cu707  O726    1.950   .     S
Cu707  N722    2.025   .     S
Cu707  O723    1.954   .     S
Cu707  O727    1.938   .     S
Cu707  Cu708   2.695   .     S
Cu708  O729    1.919   .     S
Cu708  O725    1.950   .     S
Cu708  N721    2.025   .     S
Cu708  O724    1.954   .     S
Cu708  O728    1.938   .     S
H709   C563    1.084   1_655 S
H713   C571    1.085   1_655 S
H717   C1061   1.088   1_545 S
H718   C876    1.088   .     S
H720   N598    1.029   1_655 S
N721   H595    1.026   1_655 S
N721   N598    1.289   1_655 S
C731   H737    1.109   .     S
C731   C608    1.525   1_655 S
C731   H612    1.112   1_655 S
C732   H734    1.109   .     S
C732   H733    1.111   .     S
C732   H735    1.110   .     S
C738   H744    1.108   .     S
C738   H743    1.108   .     S
C738   C573    1.511   1_655 S
C738   C615    1.538   1_655 S
C739   H740    1.108   .     S
C739   H741    1.106   .     S
H742   C615    1.107   1_655 S
C745   O787    1.288   .     A
C745   O785    1.293   .     A
C745   C751    1.427   .     S
C746   O788    1.288   .     A
C746   O786    1.293   .     A
C746   C752    1.428   .     S
C747   C768    1.418   .     A
C747   H777    1.077   .     S
C747   C749    1.395   .     A
C748   H778    1.078   .     S
C748   C750    1.385   .     A
C748   C767    1.405   .     A
C749   H895    1.084   1_455 S
C750   H772    1.084   .     S
C750   C208    1.392   1_556 S
C751   C938    1.329   .     S
C751   H965    1.088   .     S
C753   O789    1.302   .     A
C753   C755    1.491   .     S
C753   O791    1.310   .     A
C754   O790    1.302   .     A
C754   C756    1.475   .     S
C754   O792    1.301   .     A
C755   C761    1.399   .     A
C755   C759    1.420   .     A
C756   C762    1.404   .     A
C756   C760    1.420   .     A
C757   C765    1.400   .     A
C757   C759    1.407   .     A
C757   H899    1.085   1_455 S
C758   C766    1.400   .     A
C758   C760    1.400   .     A
C758   H838    1.085   .     S
C759   C924    1.511   1_455 S
C760   C793    1.518   .     S
C761   H774    1.072   .     S
C761   C763    1.405   .     A
C762   H773    1.078   .     S
C762   C764    1.405   .     A
C763   C767    1.416   .     A
C763   C765    1.407   .     A
C764   C766    1.417   .     A
C764   C768    1.429   .     A
C765   C191    1.396   1_556 S
C767   C210    1.420   1_556 S
Cu769  O792    1.919   .     S
Cu769  O788    1.950   .     S
Cu769  N784    2.025   .     S
Cu769  O785    1.954   .     S
Cu769  O789    1.938   .     S
Cu769  Cu770   2.695   .     S
Cu770  O791    1.919   .     S
Cu770  O787    1.950   .     S
Cu770  N783    2.025   .     S
Cu770  O786    1.954   .     S
Cu770  O790    1.938   .     S
H771   C811    1.084   .     S
H775   C819    1.085   .     S
H776   C882    1.085   1_455 S
H780   C938    1.088   .     S
H781   N907    1.026   1_455 S
H782   N846    1.029   .     S
N783   H843    1.026   .     S
N783   N846    1.289   .     S
N784   H906    1.029   1_455 S
N784   N907    1.289   1_455 S
C793   H799    1.109   .     S
C793   C856    1.525   .     S
C793   H860    1.112   .     S
C794   H796    1.109   .     S
C794   H795    1.111   .     S
C794   H797    1.110   .     S
C794   C917    1.525   1_455 S
H798   C917    1.112   1_455 S
C800   H806    1.108   .     S
C800   H805    1.108   .     S
C800   C821    1.511   .     S
C800   C863    1.538   .     S
C801   H802    1.108   .     S
C801   H803    1.106   .     S
C801   C924    1.538   1_455 S
C801   H928    1.107   1_455 S
H804   C863    1.107   .     S
C807   O849    1.288   .     A
C807   O847    1.293   .     A
C807   C813    1.427   .     S
C808   O850    1.288   .     A
C808   O848    1.293   .     A
C808   C814    1.428   .     S
C809   C830    1.418   .     A
C809   H839    1.077   .     S
C809   C811    1.395   .     A
C810   H840    1.078   .     S
C810   C812    1.385   .     A
C810   C829    1.405   .     A
C812   H834    1.084   .     S
C812   C270    1.392   1_556 S
C813   C1000   1.329   .     S
C813   H1027   1.088   .     S
C815   O851    1.302   .     A
C815   C817    1.491   .     S
C815   O853    1.310   .     A
C816   O852    1.302   .     A
C816   C818    1.475   .     S
C816   O854    1.301   .     A
C817   C823    1.399   .     A
C817   C821    1.420   .     A
C818   C824    1.404   .     A
C818   C822    1.420   .     A
C819   C827    1.400   .     A
C819   C821    1.407   .     A
C820   C828    1.400   .     A
C820   C822    1.400   .     A
C820   H900    1.085   .     S
C822   C855    1.518   .     S
C823   H836    1.072   .     S
C823   C825    1.405   .     A
C824   H835    1.078   .     S
C824   C826    1.405   .     A
C825   C829    1.416   .     A
C825   C827    1.407   .     A
C826   C828    1.417   .     A
C826   C830    1.429   .     A
C827   C253    1.396   1_556 S
C829   C272    1.420   1_556 S
Cu831  O854    1.919   .     S
Cu831  O850    1.950   .     S
Cu831  N846    2.025   .     S
Cu831  O847    1.954   .     S
Cu831  O851    1.938   .     S
Cu831  Cu832   2.695   .     S
Cu832  O853    1.919   .     S
Cu832  O849    1.950   .     S
Cu832  N845    2.025   .     S
Cu832  O848    1.954   .     S
Cu832  O852    1.938   .     S
H833   C873    1.084   .     S
H837   C881    1.085   .     S
H842   C1000   1.088   .     S
H844   N908    1.029   .     S
N845   H905    1.026   .     S
N845   N908    1.289   .     S
C855   H861    1.109   .     S
C855   C918    1.525   .     S
C855   H922    1.112   .     S
C856   H858    1.109   .     S
C856   H857    1.111   .     S
C856   H859    1.110   .     S
C862   H868    1.108   .     S
C862   H867    1.108   .     S
C862   C883    1.511   .     S
C862   C925    1.538   .     S
C863   H864    1.108   .     S
C863   H865    1.106   .     S
H866   C925    1.107   .     S
C869   O911    1.288   .     A
C869   O909    1.293   .     A
C869   C875    1.427   .     S
C870   O912    1.288   .     A
C870   O910    1.293   .     A
C870   C876    1.428   .     S
C871   C892    1.418   .     A
C871   H901    1.077   .     S
C871   C873    1.395   .     A
C872   H902    1.078   .     S
C872   C874    1.385   .     A
C872   C891    1.405   .     A
C874   H896    1.084   .     S
C874   C332    1.392   1_556 S
C875   C1062   1.329   .     S
C875   H1089   1.088   .     S
C877   O913    1.302   .     A
C877   C879    1.491   .     S
C877   O915    1.310   .     A
C878   O914    1.302   .     A
C878   C880    1.475   .     S
C878   O916    1.301   .     A
C879   C885    1.399   .     A
C879   C883    1.420   .     A
C880   C886    1.404   .     A
C880   C884    1.420   .     A
C881   C889    1.400   .     A
C881   C883    1.407   .     A
C882   C890    1.400   .     A
C882   C884    1.400   .     A
C882   H776    1.085   1_655 S
C884   C917    1.518   .     S
C885   H898    1.072   .     S
C885   C887    1.405   .     A
C886   H897    1.078   .     S
C886   C888    1.405   .     A
C887   C891    1.416   .     A
C887   C889    1.407   .     A
C888   C890    1.417   .     A
C888   C892    1.429   .     A
C889   C315    1.396   1_556 S
C891   C334    1.420   1_556 S
Cu893  O916    1.919   .     S
Cu893  O912    1.950   .     S
Cu893  N908    2.025   .     S
Cu893  O909    1.954   .     S
Cu893  O913    1.938   .     S
Cu893  Cu894   2.695   .     S
Cu894  O915    1.919   .     S
Cu894  O911    1.950   .     S
Cu894  N907    2.025   .     S
Cu894  O910    1.954   .     S
Cu894  O914    1.938   .     S
H895   C749    1.084   1_655 S
H899   C757    1.085   1_655 S
H904   C1062   1.088   .     S
H906   N784    1.029   1_655 S
N907   H781    1.026   1_655 S
N907   N784    1.289   1_655 S
C917   H923    1.109   .     S
C917   C794    1.525   1_655 S
C917   H798    1.112   1_655 S
C918   H920    1.109   .     S
C918   H919    1.111   .     S
C918   H921    1.110   .     S
C924   H930    1.108   .     S
C924   H929    1.108   .     S
C924   C759    1.511   1_655 S
C924   C801    1.538   1_655 S
C925   H926    1.108   .     S
C925   H927    1.106   .     S
H928   C801    1.107   1_655 S
C931   O973    1.288   .     A
C931   O971    1.293   .     A
C931   C937    1.427   .     S
C932   O974    1.288   .     A
C932   O972    1.293   .     A
C932   C938    1.428   .     S
C933   C954    1.418   .     A
C933   H963    1.077   .     S
C933   C935    1.395   .     A
C934   H964    1.078   .     S
C934   C936    1.385   .     A
C934   C953    1.405   .     A
C935   H1081   1.084   1_455 S
C936   H958    1.084   .     S
C936   C394    1.392   1_556 S
C937   C566    1.329   1_565 S
C937   H593    1.088   1_565 S
C939   O975    1.302   .     A
C939   C941    1.491   .     S
C939   O977    1.310   .     A
C940   O976    1.302   .     A
C940   C942    1.475   .     S
C940   O978    1.301   .     A
C941   C947    1.399   .     A
C941   C945    1.420   .     A
C942   C948    1.404   .     A
C942   C946    1.420   .     A
C943   C951    1.400   .     A
C943   C945    1.407   .     A
C943   H1085   1.085   1_455 S
C944   C952    1.400   .     A
C944   C946    1.400   .     A
C944   H1024   1.085   .     S
C945   C1110   1.511   1_455 S
C946   C979    1.518   .     S
C947   H960    1.072   .     S
C947   C949    1.405   .     A
C948   H959    1.078   .     S
C948   C950    1.405   .     A
C949   C953    1.416   .     A
C949   C951    1.407   .     A
C950   C952    1.417   .     A
C950   C954    1.429   .     A
C951   C377    1.396   1_556 S
C953   C396    1.420   1_556 S
Cu955  O978    1.919   .     S
Cu955  O974    1.950   .     S
Cu955  N970    2.025   .     S
Cu955  O971    1.954   .     S
Cu955  O975    1.938   .     S
Cu955  Cu956   2.695   .     S
Cu956  O977    1.919   .     S
Cu956  O973    1.950   .     S
Cu956  N969    2.025   .     S
Cu956  O972    1.954   .     S
Cu956  O976    1.938   .     S
H957   C997    1.084   .     S
H961   C1005   1.085   .     S
H962   C1068   1.085   1_455 S
H966   C566    1.088   1_565 S
H967   N1093   1.026   1_455 S
H968   N1032   1.029   .     S
N969   H1029   1.026   .     S
N969   N1032   1.289   .     S
N970   H1092   1.029   1_455 S
N970   N1093   1.289   1_455 S
C979   H985    1.109   .     S
C979   C1042   1.525   .     S
C979   H1046   1.112   .     S
C980   H982    1.109   .     S
C980   H981    1.111   .     S
C980   H983    1.110   .     S
C980   C1103   1.525   1_455 S
H984   C1103   1.112   1_455 S
C986   H992    1.108   .     S
C986   H991    1.108   .     S
C986   C1007   1.511   .     S
C986   C1049   1.538   .     S
C987   H988    1.108   .     S
C987   H989    1.106   .     S
C987   C1110   1.538   1_455 S
C987   H1114   1.107   1_455 S
H990   C1049   1.107   .     S
C993   O1035   1.288   .     A
C993   O1033   1.293   .     A
C993   C999    1.427   .     S
C994   O1036   1.288   .     A
C994   O1034   1.293   .     A
C994   C1000   1.428   .     S
C995   C1016   1.418   .     A
C995   H1025   1.077   .     S
C995   C997    1.395   .     A
C996   H1026   1.078   .     S
C996   C998    1.385   .     A
C996   C1015   1.405   .     A
C998   H1020   1.084   .     S
C998   C456    1.392   1_556 S
C999   C628    1.329   1_565 S
C999   H655    1.088   1_565 S
C1001  O1037   1.302   .     A
C1001  C1003   1.491   .     S
C1001  O1039   1.310   .     A
C1002  O1038   1.302   .     A
C1002  C1004   1.475   .     S
C1002  O1040   1.301   .     A
C1003  C1009   1.399   .     A
C1003  C1007   1.420   .     A
C1004  C1010   1.404   .     A
C1004  C1008   1.420   .     A
C1005  C1013   1.400   .     A
C1005  C1007   1.407   .     A
C1006  C1014   1.400   .     A
C1006  C1008   1.400   .     A
C1006  H1086   1.085   .     S
C1008  C1041   1.518   .     S
C1009  H1022   1.072   .     S
C1009  C1011   1.405   .     A
C1010  H1021   1.078   .     S
C1010  C1012   1.405   .     A
C1011  C1015   1.416   .     A
C1011  C1013   1.407   .     A
C1012  C1014   1.417   .     A
C1012  C1016   1.429   .     A
C1013  C439    1.396   1_556 S
C1015  C458    1.420   1_556 S
Cu1017 O1040   1.919   .     S
Cu1017 O1036   1.950   .     S
Cu1017 N1032   2.025   .     S
Cu1017 O1033   1.954   .     S
Cu1017 O1037   1.938   .     S
Cu1017 Cu1018  2.695   .     S
Cu1018 O1039   1.919   .     S
Cu1018 O1035   1.950   .     S
Cu1018 N1031   2.025   .     S
Cu1018 O1034   1.954   .     S
Cu1018 O1038   1.938   .     S
H1019  C1059   1.084   .     S
H1023  C1067   1.085   .     S
H1028  C628    1.088   1_565 S
H1030  N1094   1.029   .     S
N1031  H1091   1.026   .     S
N1031  N1094   1.289   .     S
C1041  H1047   1.109   .     S
C1041  C1104   1.525   .     S
C1041  H1108   1.112   .     S
C1042  H1044   1.109   .     S
C1042  H1043   1.111   .     S
C1042  H1045   1.110   .     S
C1048  H1054   1.108   .     S
C1048  H1053   1.108   .     S
C1048  C1069   1.511   .     S
C1048  C1111   1.538   .     S
C1049  H1050   1.108   .     S
C1049  H1051   1.106   .     S
H1052  C1111   1.107   .     S
C1055  O1097   1.288   .     A
C1055  O1095   1.293   .     A
C1055  C1061   1.427   .     S
C1056  O1098   1.288   .     A
C1056  O1096   1.293   .     A
C1056  C1062   1.428   .     S
C1057  C1078   1.418   .     A
C1057  H1087   1.077   .     S
C1057  C1059   1.395   .     A
C1058  H1088   1.078   .     S
C1058  C1060   1.385   .     A
C1058  C1077   1.405   .     A
C1060  H1082   1.084   .     S
C1060  C518    1.392   1_556 S
C1061  C690    1.329   1_565 S
C1061  H717    1.088   1_565 S
C1063  O1099   1.302   .     A
C1063  C1065   1.491   .     S
C1063  O1101   1.310   .     A
C1064  O1100   1.302   .     A
C1064  C1066   1.475   .     S
C1064  O1102   1.301   .     A
C1065  C1071   1.399   .     A
C1065  C1069   1.420   .     A
C1066  C1072   1.404   .     A
C1066  C1070   1.420   .     A
C1067  C1075   1.400   .     A
C1067  C1069   1.407   .     A
C1068  C1076   1.400   .     A
C1068  C1070   1.400   .     A
C1068  H962    1.085   1_655 S
C1070  C1103   1.518   .     S
C1071  H1084   1.072   .     S
C1071  C1073   1.405   .     A
C1072  H1083   1.078   .     S
C1072  C1074   1.405   .     A
C1073  C1077   1.416   .     A
C1073  C1075   1.407   .     A
C1074  C1076   1.417   .     A
C1074  C1078   1.429   .     A
C1075  C501    1.396   1_556 S
C1077  C520    1.420   1_556 S
Cu1079 O1102   1.919   .     S
Cu1079 O1098   1.950   .     S
Cu1079 N1094   2.025   .     S
Cu1079 O1095   1.954   .     S
Cu1079 O1099   1.938   .     S
Cu1079 Cu1080  2.695   .     S
Cu1080 O1101   1.919   .     S
Cu1080 O1097   1.950   .     S
Cu1080 N1093   2.025   .     S
Cu1080 O1096   1.954   .     S
Cu1080 O1100   1.938   .     S
H1081  C935    1.084   1_655 S
H1085  C943    1.085   1_655 S
H1090  C690    1.088   1_565 S
H1092  N970    1.029   1_655 S
N1093  H967    1.026   1_655 S
N1093  N970    1.289   1_655 S
C1103  H1109   1.109   .     S
C1103  C980    1.525   1_655 S
C1103  H984    1.112   1_655 S
C1104  H1106   1.109   .     S
C1104  H1105   1.111   .     S
C1104  H1107   1.110   .     S
C1110  H1116   1.108   .     S
C1110  H1115   1.108   .     S
C1110  C945    1.511   1_655 S
C1110  C987    1.538   1_655 S
C1111  H1112   1.108   .     S
C1111  H1113   1.106   .     S
H1114  C987    1.107   1_655 S
