data_str_m2_o10_o17_pcu_sym.30
_audit_creation_date              2020-01-03
_audit_creation_method            'Materials Studio'
_symmetry_space_group_name_H-M    'P1'
_symmetry_Int_Tables_number       1
_symmetry_cell_setting            triclinic
loop_
_symmetry_equiv_pos_as_xyz
  x,y,z
_cell_length_a                    29.9319
_cell_length_b                    26.0241
_cell_length_c                    22.5494
_cell_angle_alpha                 103.3979
_cell_angle_beta                  93.9862
_cell_angle_gamma                 92.8404
loop_
_atom_site_label
_atom_site_type_symbol
_atom_site_fract_x
_atom_site_fract_y
_atom_site_fract_z
_atom_site_U_iso_or_equiv
_atom_site_adp_type
_atom_site_occupancy
O1     O     0.25325   0.09538   0.20659   0.00000  Uiso   1.00
O2     O     0.24674   0.23796   0.12674   0.00000  Uiso   1.00
O3     O     0.24480   0.08559   0.10279   0.00000  Uiso   1.00
O4     O     0.25520   0.24774   0.23055   0.00000  Uiso   1.00
C5     C     0.24863   0.06661   0.15100   0.00000  Uiso   1.00
C6     C     0.25137   0.26672   0.18233   0.00000  Uiso   1.00
O7     O     0.18935   0.17155   0.21857   0.00000  Uiso   1.00
O8     O     0.31064   0.16179   0.11476   0.00000  Uiso   1.00
O9     O     0.18090   0.16176   0.11477   0.00000  Uiso   1.00
O10    O     0.31910   0.17157   0.21857   0.00000  Uiso   1.00
C11    C     0.16469   0.16691   0.16754   0.00000  Uiso   1.00
C12    C     0.33531   0.16643   0.16579   0.00000  Uiso   1.00
Cu13   Cu    0.25500   0.17246   0.22813   0.00000  Uiso   1.00
Cu14   Cu    0.24499   0.16087   0.10521   0.00000  Uiso   1.00
C15    C     0.40975   0.20963   0.19806   0.00000  Uiso   1.00
C16    C     0.09025   0.12370   0.13528   0.00000  Uiso   1.00
C17    C     0.38340   0.16573   0.16423   0.00000  Uiso   1.00
C18    C     0.11660   0.16760   0.16911   0.00000  Uiso   1.00
C19    C     0.40256   0.12189   0.12932   0.00000  Uiso   1.00
C20    C     0.09744   0.21144   0.20401   0.00000  Uiso   1.00
C21    C     0.44986   0.11958   0.13424   0.00000  Uiso   1.00
C22    C     0.05014   0.21375   0.19910   0.00000  Uiso   1.00
C23    C     0.47648   0.16596   0.16604   0.00000  Uiso   1.00
C24    C     0.02352   0.16737   0.16729   0.00000  Uiso   1.00
C25    C     0.45605   0.21101   0.19702   0.00000  Uiso   1.00
C26    C     0.04395   0.12232   0.13632   0.00000  Uiso   1.00
C27    C     0.47152   0.07304   0.10903   0.00000  Uiso   1.00
C28    C     0.02848   0.26029   0.22430   0.00000  Uiso   1.00
C29    C     0.01814   0.07583   0.10806   0.00000  Uiso   1.00
C30    C     0.48186   0.25751   0.22528   0.00000  Uiso   1.00
H31    H     0.39384   0.24362   0.22329   0.00000  Uiso   1.00
H32    H     0.10616   0.08972   0.11004   0.00000  Uiso   1.00
H33    H     0.03460   0.04053   0.08785   0.00000  Uiso   1.00
H34    H     0.46540   0.29280   0.24549   0.00000  Uiso   1.00
C35    C     0.24801   0.01046   0.14240   0.00000  Uiso   1.00
C36    C     0.25199   0.32288   0.19093   0.00000  Uiso   1.00
H37    H     0.24428   0.31958   0.09582   0.00000  Uiso   1.00
H38    H     0.25572   0.01375   0.23751   0.00000  Uiso   1.00
N39    N     0.23744   0.15214   0.01284   0.00000  Uiso   1.00
N40    N     0.26255   0.18119   0.32049   0.00000  Uiso   1.00
O41    O     0.37428   0.08332   0.09019   0.00000  Uiso   1.00
H42    H     0.38923   0.07142   0.05199   0.00000  Uiso   1.00
O43    O     0.12572   0.25002   0.24314   0.00000  Uiso   1.00
H44    H     0.11077   0.26191   0.28134   0.00000  Uiso   1.00
N45    N     0.44776   0.02179   0.09015   0.00000  Uiso   1.00
O46    O     0.42036   0.00643   0.12597   0.00000  Uiso   1.00
O47    O     0.45952   0.32044   0.04337   0.00000  Uiso   1.00
N48    N     0.05224   0.31154   0.24318   0.00000  Uiso   1.00
O49    O     0.04048   0.01289   0.28996   0.00000  Uiso   1.00
O50    O     0.07964   0.32691   0.20736   0.00000  Uiso   1.00
N51    N     0.19422   0.13960   0.31876   0.00000  Uiso   1.00
O52    O     0.18160   0.09042   0.29333   0.00000  Uiso   1.00
O53    O     0.16381   0.17363   0.33169   0.00000  Uiso   1.00
N54    N     0.30578   0.19375   0.01458   0.00000  Uiso   1.00
O55    O     0.31837   0.24293   0.04007   0.00000  Uiso   1.00
O56    O     0.33620   0.15974   0.00164   0.00000  Uiso   1.00
O57    O     0.75325   0.09538   0.20659   0.00000  Uiso   1.00
O58    O     0.74674   0.23796   0.12674   0.00000  Uiso   1.00
O59    O     0.74480   0.08559   0.10279   0.00000  Uiso   1.00
O60    O     0.75520   0.24774   0.23055   0.00000  Uiso   1.00
C61    C     0.74863   0.06661   0.15100   0.00000  Uiso   1.00
C62    C     0.75137   0.26672   0.18233   0.00000  Uiso   1.00
O63    O     0.68935   0.17155   0.21857   0.00000  Uiso   1.00
O64    O     0.81064   0.16179   0.11476   0.00000  Uiso   1.00
O65    O     0.68090   0.16176   0.11477   0.00000  Uiso   1.00
O66    O     0.81910   0.17157   0.21857   0.00000  Uiso   1.00
C67    C     0.66469   0.16691   0.16754   0.00000  Uiso   1.00
C68    C     0.83531   0.16643   0.16579   0.00000  Uiso   1.00
Cu69   Cu    0.75500   0.17246   0.22813   0.00000  Uiso   1.00
Cu70   Cu    0.74499   0.16087   0.10521   0.00000  Uiso   1.00
C71    C     0.90975   0.20963   0.19806   0.00000  Uiso   1.00
C72    C     0.59025   0.12370   0.13528   0.00000  Uiso   1.00
C73    C     0.88340   0.16573   0.16423   0.00000  Uiso   1.00
C74    C     0.61660   0.16760   0.16911   0.00000  Uiso   1.00
C75    C     0.90256   0.12189   0.12932   0.00000  Uiso   1.00
C76    C     0.59744   0.21144   0.20401   0.00000  Uiso   1.00
C77    C     0.94986   0.11958   0.13424   0.00000  Uiso   1.00
C78    C     0.55014   0.21375   0.19910   0.00000  Uiso   1.00
C79    C     0.97648   0.16596   0.16604   0.00000  Uiso   1.00
C80    C     0.52352   0.16737   0.16729   0.00000  Uiso   1.00
C81    C     0.95605   0.21101   0.19702   0.00000  Uiso   1.00
C82    C     0.54395   0.12232   0.13632   0.00000  Uiso   1.00
C83    C     0.97152   0.07304   0.10903   0.00000  Uiso   1.00
C84    C     0.52848   0.26029   0.22430   0.00000  Uiso   1.00
C85    C     0.51814   0.07583   0.10806   0.00000  Uiso   1.00
C86    C     0.98186   0.25751   0.22528   0.00000  Uiso   1.00
H87    H     0.89384   0.24362   0.22329   0.00000  Uiso   1.00
H88    H     0.60616   0.08972   0.11004   0.00000  Uiso   1.00
H89    H     0.53460   0.04053   0.08785   0.00000  Uiso   1.00
H90    H     0.96540   0.29280   0.24549   0.00000  Uiso   1.00
C91    C     0.74801   0.01046   0.14240   0.00000  Uiso   1.00
C92    C     0.75199   0.32288   0.19093   0.00000  Uiso   1.00
H93    H     0.74428   0.31958   0.09582   0.00000  Uiso   1.00
H94    H     0.75572   0.01375   0.23751   0.00000  Uiso   1.00
N95    N     0.73744   0.15214   0.01284   0.00000  Uiso   1.00
N96    N     0.76255   0.18119   0.32049   0.00000  Uiso   1.00
O97    O     0.87428   0.08332   0.09019   0.00000  Uiso   1.00
H98    H     0.88923   0.07142   0.05199   0.00000  Uiso   1.00
O99    O     0.62572   0.25002   0.24314   0.00000  Uiso   1.00
H100   H     0.61077   0.26191   0.28134   0.00000  Uiso   1.00
N101   N     0.94776   0.02179   0.09015   0.00000  Uiso   1.00
O102   O     0.92036   0.00643   0.12597   0.00000  Uiso   1.00
O103   O     0.95952   0.32044   0.04337   0.00000  Uiso   1.00
N104   N     0.55224   0.31154   0.24318   0.00000  Uiso   1.00
O105   O     0.54048   0.01289   0.28996   0.00000  Uiso   1.00
O106   O     0.57964   0.32691   0.20736   0.00000  Uiso   1.00
N107   N     0.69422   0.13960   0.31876   0.00000  Uiso   1.00
O108   O     0.68160   0.09042   0.29333   0.00000  Uiso   1.00
O109   O     0.66381   0.17363   0.33169   0.00000  Uiso   1.00
N110   N     0.80578   0.19375   0.01458   0.00000  Uiso   1.00
O111   O     0.81837   0.24293   0.04007   0.00000  Uiso   1.00
O112   O     0.83620   0.15974   0.00164   0.00000  Uiso   1.00
O113   O     0.25325   0.42871   0.20659   0.00000  Uiso   1.00
O114   O     0.24674   0.57129   0.12674   0.00000  Uiso   1.00
O115   O     0.24480   0.41892   0.10279   0.00000  Uiso   1.00
O116   O     0.25520   0.58108   0.23055   0.00000  Uiso   1.00
C117   C     0.24863   0.39994   0.15100   0.00000  Uiso   1.00
C118   C     0.25137   0.60006   0.18233   0.00000  Uiso   1.00
O119   O     0.18935   0.50488   0.21857   0.00000  Uiso   1.00
O120   O     0.31064   0.49512   0.11476   0.00000  Uiso   1.00
O121   O     0.18090   0.49510   0.11477   0.00000  Uiso   1.00
O122   O     0.31910   0.50490   0.21857   0.00000  Uiso   1.00
C123   C     0.16469   0.50024   0.16754   0.00000  Uiso   1.00
C124   C     0.33531   0.49976   0.16579   0.00000  Uiso   1.00
Cu125  Cu    0.25500   0.50579   0.22813   0.00000  Uiso   1.00
Cu126  Cu    0.24499   0.49421   0.10521   0.00000  Uiso   1.00
C127   C     0.40975   0.54297   0.19806   0.00000  Uiso   1.00
C128   C     0.09025   0.45703   0.13528   0.00000  Uiso   1.00
C129   C     0.38340   0.49907   0.16423   0.00000  Uiso   1.00
C130   C     0.11660   0.50093   0.16911   0.00000  Uiso   1.00
C131   C     0.40256   0.45522   0.12932   0.00000  Uiso   1.00
C132   C     0.09744   0.54478   0.20401   0.00000  Uiso   1.00
C133   C     0.44986   0.45292   0.13424   0.00000  Uiso   1.00
C134   C     0.05014   0.54708   0.19910   0.00000  Uiso   1.00
C135   C     0.47648   0.49930   0.16604   0.00000  Uiso   1.00
C136   C     0.02352   0.50070   0.16729   0.00000  Uiso   1.00
C137   C     0.45605   0.54435   0.19702   0.00000  Uiso   1.00
C138   C     0.04395   0.45565   0.13632   0.00000  Uiso   1.00
C139   C     0.47152   0.40638   0.10903   0.00000  Uiso   1.00
C140   C     0.02848   0.59362   0.22430   0.00000  Uiso   1.00
C141   C     0.01814   0.40916   0.10806   0.00000  Uiso   1.00
C142   C     0.48186   0.59084   0.22528   0.00000  Uiso   1.00
H143   H     0.39384   0.57695   0.22329   0.00000  Uiso   1.00
H144   H     0.10616   0.42305   0.11004   0.00000  Uiso   1.00
H145   H     0.03460   0.37386   0.08785   0.00000  Uiso   1.00
H146   H     0.46540   0.62614   0.24549   0.00000  Uiso   1.00
C147   C     0.24801   0.34379   0.14240   0.00000  Uiso   1.00
C148   C     0.25199   0.65621   0.19093   0.00000  Uiso   1.00
H149   H     0.24428   0.65292   0.09582   0.00000  Uiso   1.00
H150   H     0.25572   0.34708   0.23751   0.00000  Uiso   1.00
N151   N     0.23744   0.48547   0.01284   0.00000  Uiso   1.00
N152   N     0.26255   0.51453   0.32049   0.00000  Uiso   1.00
O153   O     0.37428   0.41665   0.09019   0.00000  Uiso   1.00
H154   H     0.38923   0.40476   0.05199   0.00000  Uiso   1.00
O155   O     0.12572   0.58335   0.24314   0.00000  Uiso   1.00
H156   H     0.11077   0.59524   0.28134   0.00000  Uiso   1.00
N157   N     0.44776   0.35513   0.09015   0.00000  Uiso   1.00
O158   O     0.42036   0.33976   0.12597   0.00000  Uiso   1.00
O159   O     0.45952   0.65377   0.04337   0.00000  Uiso   1.00
N160   N     0.05224   0.64487   0.24318   0.00000  Uiso   1.00
O161   O     0.04048   0.34623   0.28996   0.00000  Uiso   1.00
O162   O     0.07964   0.66024   0.20736   0.00000  Uiso   1.00
N163   N     0.19422   0.47293   0.31876   0.00000  Uiso   1.00
O164   O     0.18160   0.42376   0.29333   0.00000  Uiso   1.00
O165   O     0.16381   0.50696   0.33169   0.00000  Uiso   1.00
N166   N     0.30578   0.52708   0.01458   0.00000  Uiso   1.00
O167   O     0.31837   0.57626   0.04007   0.00000  Uiso   1.00
O168   O     0.33620   0.49308   0.00164   0.00000  Uiso   1.00
O169   O     0.75325   0.42871   0.20659   0.00000  Uiso   1.00
O170   O     0.74674   0.57129   0.12674   0.00000  Uiso   1.00
O171   O     0.74480   0.41892   0.10279   0.00000  Uiso   1.00
O172   O     0.75520   0.58108   0.23055   0.00000  Uiso   1.00
C173   C     0.74863   0.39994   0.15100   0.00000  Uiso   1.00
C174   C     0.75137   0.60006   0.18233   0.00000  Uiso   1.00
O175   O     0.68935   0.50488   0.21857   0.00000  Uiso   1.00
O176   O     0.81064   0.49512   0.11476   0.00000  Uiso   1.00
O177   O     0.68090   0.49510   0.11477   0.00000  Uiso   1.00
O178   O     0.81910   0.50490   0.21857   0.00000  Uiso   1.00
C179   C     0.66469   0.50024   0.16754   0.00000  Uiso   1.00
C180   C     0.83531   0.49976   0.16579   0.00000  Uiso   1.00
Cu181  Cu    0.75500   0.50579   0.22813   0.00000  Uiso   1.00
Cu182  Cu    0.74499   0.49421   0.10521   0.00000  Uiso   1.00
C183   C     0.90975   0.54297   0.19806   0.00000  Uiso   1.00
C184   C     0.59025   0.45703   0.13528   0.00000  Uiso   1.00
C185   C     0.88340   0.49907   0.16423   0.00000  Uiso   1.00
C186   C     0.61660   0.50093   0.16911   0.00000  Uiso   1.00
C187   C     0.90256   0.45522   0.12932   0.00000  Uiso   1.00
C188   C     0.59744   0.54478   0.20401   0.00000  Uiso   1.00
C189   C     0.94986   0.45292   0.13424   0.00000  Uiso   1.00
C190   C     0.55014   0.54708   0.19910   0.00000  Uiso   1.00
C191   C     0.97648   0.49930   0.16604   0.00000  Uiso   1.00
C192   C     0.52352   0.50070   0.16729   0.00000  Uiso   1.00
C193   C     0.95605   0.54435   0.19702   0.00000  Uiso   1.00
C194   C     0.54395   0.45565   0.13632   0.00000  Uiso   1.00
C195   C     0.97152   0.40638   0.10903   0.00000  Uiso   1.00
C196   C     0.52848   0.59362   0.22430   0.00000  Uiso   1.00
C197   C     0.51814   0.40916   0.10806   0.00000  Uiso   1.00
C198   C     0.98186   0.59084   0.22528   0.00000  Uiso   1.00
H199   H     0.89384   0.57695   0.22329   0.00000  Uiso   1.00
H200   H     0.60616   0.42305   0.11004   0.00000  Uiso   1.00
H201   H     0.53460   0.37386   0.08785   0.00000  Uiso   1.00
H202   H     0.96540   0.62614   0.24549   0.00000  Uiso   1.00
C203   C     0.74801   0.34379   0.14240   0.00000  Uiso   1.00
C204   C     0.75199   0.65621   0.19093   0.00000  Uiso   1.00
H205   H     0.74428   0.65292   0.09582   0.00000  Uiso   1.00
H206   H     0.75572   0.34708   0.23751   0.00000  Uiso   1.00
N207   N     0.73744   0.48547   0.01284   0.00000  Uiso   1.00
N208   N     0.76255   0.51453   0.32049   0.00000  Uiso   1.00
O209   O     0.87428   0.41665   0.09019   0.00000  Uiso   1.00
H210   H     0.88923   0.40476   0.05199   0.00000  Uiso   1.00
O211   O     0.62572   0.58335   0.24314   0.00000  Uiso   1.00
H212   H     0.61077   0.59524   0.28134   0.00000  Uiso   1.00
N213   N     0.94776   0.35513   0.09015   0.00000  Uiso   1.00
O214   O     0.92036   0.33976   0.12597   0.00000  Uiso   1.00
O215   O     0.95952   0.65377   0.04337   0.00000  Uiso   1.00
N216   N     0.55224   0.64487   0.24318   0.00000  Uiso   1.00
O217   O     0.54048   0.34623   0.28996   0.00000  Uiso   1.00
O218   O     0.57964   0.66024   0.20736   0.00000  Uiso   1.00
N219   N     0.69422   0.47293   0.31876   0.00000  Uiso   1.00
O220   O     0.68160   0.42376   0.29333   0.00000  Uiso   1.00
O221   O     0.66381   0.50696   0.33169   0.00000  Uiso   1.00
N222   N     0.80578   0.52708   0.01458   0.00000  Uiso   1.00
O223   O     0.81837   0.57626   0.04007   0.00000  Uiso   1.00
O224   O     0.83620   0.49308   0.00164   0.00000  Uiso   1.00
O225   O     0.25325   0.76204   0.20659   0.00000  Uiso   1.00
O226   O     0.24674   0.90462   0.12674   0.00000  Uiso   1.00
O227   O     0.24480   0.75226   0.10279   0.00000  Uiso   1.00
O228   O     0.25520   0.91441   0.23055   0.00000  Uiso   1.00
C229   C     0.24863   0.73328   0.15100   0.00000  Uiso   1.00
C230   C     0.25137   0.93339   0.18233   0.00000  Uiso   1.00
O231   O     0.18935   0.83821   0.21857   0.00000  Uiso   1.00
O232   O     0.31064   0.82845   0.11476   0.00000  Uiso   1.00
O233   O     0.18090   0.82843   0.11477   0.00000  Uiso   1.00
O234   O     0.31910   0.83824   0.21857   0.00000  Uiso   1.00
C235   C     0.16469   0.83357   0.16754   0.00000  Uiso   1.00
C236   C     0.33531   0.83309   0.16579   0.00000  Uiso   1.00
Cu237  Cu    0.25500   0.83913   0.22813   0.00000  Uiso   1.00
Cu238  Cu    0.24499   0.82754   0.10521   0.00000  Uiso   1.00
C239   C     0.40975   0.87630   0.19806   0.00000  Uiso   1.00
C240   C     0.09025   0.79037   0.13528   0.00000  Uiso   1.00
C241   C     0.38340   0.83240   0.16423   0.00000  Uiso   1.00
C242   C     0.11660   0.83427   0.16911   0.00000  Uiso   1.00
C243   C     0.40256   0.78856   0.12932   0.00000  Uiso   1.00
C244   C     0.09744   0.87811   0.20401   0.00000  Uiso   1.00
C245   C     0.44986   0.78625   0.13424   0.00000  Uiso   1.00
C246   C     0.05014   0.88042   0.19910   0.00000  Uiso   1.00
C247   C     0.47648   0.83263   0.16604   0.00000  Uiso   1.00
C248   C     0.02352   0.83404   0.16729   0.00000  Uiso   1.00
C249   C     0.45605   0.87768   0.19702   0.00000  Uiso   1.00
C250   C     0.04395   0.78899   0.13632   0.00000  Uiso   1.00
C251   C     0.47152   0.73971   0.10903   0.00000  Uiso   1.00
C252   C     0.02848   0.92696   0.22430   0.00000  Uiso   1.00
C253   C     0.01814   0.74249   0.10806   0.00000  Uiso   1.00
C254   C     0.48186   0.92417   0.22528   0.00000  Uiso   1.00
H255   H     0.39384   0.91029   0.22329   0.00000  Uiso   1.00
H256   H     0.10616   0.75638   0.11004   0.00000  Uiso   1.00
H257   H     0.03460   0.70720   0.08785   0.00000  Uiso   1.00
H258   H     0.46540   0.95947   0.24549   0.00000  Uiso   1.00
C259   C     0.24801   0.67712   0.14240   0.00000  Uiso   1.00
C260   C     0.25199   0.98954   0.19093   0.00000  Uiso   1.00
H261   H     0.24428   0.98625   0.09582   0.00000  Uiso   1.00
H262   H     0.25572   0.68042   0.23751   0.00000  Uiso   1.00
N263   N     0.23744   0.81881   0.01284   0.00000  Uiso   1.00
N264   N     0.26255   0.84786   0.32049   0.00000  Uiso   1.00
O265   O     0.37428   0.74998   0.09019   0.00000  Uiso   1.00
H266   H     0.38923   0.73809   0.05199   0.00000  Uiso   1.00
O267   O     0.12572   0.91669   0.24314   0.00000  Uiso   1.00
H268   H     0.11077   0.92858   0.28134   0.00000  Uiso   1.00
N269   N     0.44776   0.68846   0.09015   0.00000  Uiso   1.00
O270   O     0.42036   0.67309   0.12597   0.00000  Uiso   1.00
O271   O     0.45952   0.98711   0.04337   0.00000  Uiso   1.00
N272   N     0.05224   0.97821   0.24318   0.00000  Uiso   1.00
O273   O     0.04048   0.67956   0.28996   0.00000  Uiso   1.00
O274   O     0.07964   0.99357   0.20736   0.00000  Uiso   1.00
N275   N     0.19422   0.80627   0.31876   0.00000  Uiso   1.00
O276   O     0.18160   0.75709   0.29333   0.00000  Uiso   1.00
O277   O     0.16381   0.84030   0.33169   0.00000  Uiso   1.00
N278   N     0.30578   0.86042   0.01458   0.00000  Uiso   1.00
O279   O     0.31837   0.90959   0.04007   0.00000  Uiso   1.00
O280   O     0.33620   0.82641   0.00164   0.00000  Uiso   1.00
O281   O     0.75325   0.76204   0.20659   0.00000  Uiso   1.00
O282   O     0.74674   0.90462   0.12674   0.00000  Uiso   1.00
O283   O     0.74480   0.75226   0.10279   0.00000  Uiso   1.00
O284   O     0.75520   0.91441   0.23055   0.00000  Uiso   1.00
C285   C     0.74863   0.73328   0.15100   0.00000  Uiso   1.00
C286   C     0.75137   0.93339   0.18233   0.00000  Uiso   1.00
O287   O     0.68935   0.83821   0.21857   0.00000  Uiso   1.00
O288   O     0.81064   0.82845   0.11476   0.00000  Uiso   1.00
O289   O     0.68090   0.82843   0.11477   0.00000  Uiso   1.00
O290   O     0.81910   0.83824   0.21857   0.00000  Uiso   1.00
C291   C     0.66469   0.83357   0.16754   0.00000  Uiso   1.00
C292   C     0.83531   0.83309   0.16579   0.00000  Uiso   1.00
Cu293  Cu    0.75500   0.83913   0.22813   0.00000  Uiso   1.00
Cu294  Cu    0.74499   0.82754   0.10521   0.00000  Uiso   1.00
C295   C     0.90975   0.87630   0.19806   0.00000  Uiso   1.00
C296   C     0.59025   0.79037   0.13528   0.00000  Uiso   1.00
C297   C     0.88340   0.83240   0.16423   0.00000  Uiso   1.00
C298   C     0.61660   0.83427   0.16911   0.00000  Uiso   1.00
C299   C     0.90256   0.78856   0.12932   0.00000  Uiso   1.00
C300   C     0.59744   0.87811   0.20401   0.00000  Uiso   1.00
C301   C     0.94986   0.78625   0.13424   0.00000  Uiso   1.00
C302   C     0.55014   0.88042   0.19910   0.00000  Uiso   1.00
C303   C     0.97648   0.83263   0.16604   0.00000  Uiso   1.00
C304   C     0.52352   0.83404   0.16729   0.00000  Uiso   1.00
C305   C     0.95605   0.87768   0.19702   0.00000  Uiso   1.00
C306   C     0.54395   0.78899   0.13632   0.00000  Uiso   1.00
C307   C     0.97152   0.73971   0.10903   0.00000  Uiso   1.00
C308   C     0.52848   0.92696   0.22430   0.00000  Uiso   1.00
C309   C     0.51814   0.74249   0.10806   0.00000  Uiso   1.00
C310   C     0.98186   0.92417   0.22528   0.00000  Uiso   1.00
H311   H     0.89384   0.91029   0.22329   0.00000  Uiso   1.00
H312   H     0.60616   0.75638   0.11004   0.00000  Uiso   1.00
H313   H     0.53460   0.70720   0.08785   0.00000  Uiso   1.00
H314   H     0.96540   0.95947   0.24549   0.00000  Uiso   1.00
C315   C     0.74801   0.67712   0.14240   0.00000  Uiso   1.00
C316   C     0.75199   0.98954   0.19093   0.00000  Uiso   1.00
H317   H     0.74428   0.98625   0.09582   0.00000  Uiso   1.00
H318   H     0.75572   0.68042   0.23751   0.00000  Uiso   1.00
N319   N     0.73744   0.81881   0.01284   0.00000  Uiso   1.00
N320   N     0.76255   0.84786   0.32049   0.00000  Uiso   1.00
O321   O     0.87428   0.74998   0.09019   0.00000  Uiso   1.00
H322   H     0.88923   0.73809   0.05199   0.00000  Uiso   1.00
O323   O     0.62572   0.91669   0.24314   0.00000  Uiso   1.00
H324   H     0.61077   0.92858   0.28134   0.00000  Uiso   1.00
N325   N     0.94776   0.68846   0.09015   0.00000  Uiso   1.00
O326   O     0.92036   0.67309   0.12597   0.00000  Uiso   1.00
O327   O     0.95952   0.98711   0.04337   0.00000  Uiso   1.00
N328   N     0.55224   0.97821   0.24318   0.00000  Uiso   1.00
O329   O     0.54048   0.67956   0.28996   0.00000  Uiso   1.00
O330   O     0.57964   0.99357   0.20736   0.00000  Uiso   1.00
N331   N     0.69422   0.80627   0.31876   0.00000  Uiso   1.00
O332   O     0.68160   0.75709   0.29333   0.00000  Uiso   1.00
O333   O     0.66381   0.84030   0.33169   0.00000  Uiso   1.00
N334   N     0.80578   0.86042   0.01458   0.00000  Uiso   1.00
O335   O     0.81837   0.90959   0.04007   0.00000  Uiso   1.00
O336   O     0.83620   0.82641   0.00164   0.00000  Uiso   1.00
O337   O     0.25325   0.09538   0.53992   0.00000  Uiso   1.00
O338   O     0.24674   0.23796   0.46008   0.00000  Uiso   1.00
O339   O     0.24480   0.08559   0.43612   0.00000  Uiso   1.00
O340   O     0.25520   0.24774   0.56388   0.00000  Uiso   1.00
C341   C     0.24863   0.06661   0.48434   0.00000  Uiso   1.00
C342   C     0.25137   0.26672   0.51566   0.00000  Uiso   1.00
O343   O     0.18935   0.17155   0.55191   0.00000  Uiso   1.00
O344   O     0.31064   0.16179   0.44809   0.00000  Uiso   1.00
O345   O     0.18090   0.16176   0.44810   0.00000  Uiso   1.00
O346   O     0.31910   0.17157   0.55190   0.00000  Uiso   1.00
C347   C     0.16469   0.16691   0.50088   0.00000  Uiso   1.00
C348   C     0.33531   0.16643   0.49912   0.00000  Uiso   1.00
Cu349  Cu    0.25500   0.17246   0.56146   0.00000  Uiso   1.00
Cu350  Cu    0.24499   0.16087   0.43854   0.00000  Uiso   1.00
C351   C     0.40975   0.20963   0.53139   0.00000  Uiso   1.00
C352   C     0.09025   0.12370   0.46861   0.00000  Uiso   1.00
C353   C     0.38340   0.16573   0.49756   0.00000  Uiso   1.00
C354   C     0.11660   0.16760   0.50244   0.00000  Uiso   1.00
C355   C     0.40256   0.12189   0.46266   0.00000  Uiso   1.00
C356   C     0.09744   0.21144   0.53734   0.00000  Uiso   1.00
C357   C     0.44986   0.11958   0.46757   0.00000  Uiso   1.00
C358   C     0.05014   0.21375   0.53243   0.00000  Uiso   1.00
C359   C     0.47648   0.16596   0.49938   0.00000  Uiso   1.00
C360   C     0.02352   0.16737   0.50062   0.00000  Uiso   1.00
C361   C     0.45605   0.21101   0.53035   0.00000  Uiso   1.00
C362   C     0.04395   0.12232   0.46965   0.00000  Uiso   1.00
C363   C     0.47152   0.07304   0.44237   0.00000  Uiso   1.00
C364   C     0.02848   0.26029   0.55763   0.00000  Uiso   1.00
C365   C     0.01814   0.07583   0.44139   0.00000  Uiso   1.00
C366   C     0.48186   0.25751   0.55861   0.00000  Uiso   1.00
H367   H     0.39384   0.24362   0.55663   0.00000  Uiso   1.00
H368   H     0.10616   0.08972   0.44337   0.00000  Uiso   1.00
H369   H     0.03460   0.04053   0.42118   0.00000  Uiso   1.00
H370   H     0.46540   0.29280   0.57882   0.00000  Uiso   1.00
C371   C     0.24801   0.01046   0.47574   0.00000  Uiso   1.00
C372   C     0.25199   0.32288   0.52426   0.00000  Uiso   1.00
H373   H     0.24428   0.31958   0.42916   0.00000  Uiso   1.00
H374   H     0.25572   0.01375   0.57084   0.00000  Uiso   1.00
N375   N     0.23744   0.15214   0.34617   0.00000  Uiso   1.00
N376   N     0.26255   0.18119   0.65383   0.00000  Uiso   1.00
O377   O     0.37428   0.08332   0.42353   0.00000  Uiso   1.00
H378   H     0.38923   0.07142   0.38533   0.00000  Uiso   1.00
O379   O     0.12572   0.25002   0.57647   0.00000  Uiso   1.00
H380   H     0.11077   0.26191   0.61467   0.00000  Uiso   1.00
N381   N     0.44776   0.02179   0.42348   0.00000  Uiso   1.00
O382   O     0.42036   0.00643   0.45930   0.00000  Uiso   1.00
O383   O     0.45952   0.32044   0.37670   0.00000  Uiso   1.00
N384   N     0.05224   0.31154   0.57651   0.00000  Uiso   1.00
O385   O     0.04048   0.01289   0.62330   0.00000  Uiso   1.00
O386   O     0.07964   0.32691   0.54070   0.00000  Uiso   1.00
N387   N     0.19422   0.13960   0.65210   0.00000  Uiso   1.00
O388   O     0.18160   0.09042   0.62666   0.00000  Uiso   1.00
O389   O     0.16381   0.17363   0.66502   0.00000  Uiso   1.00
N390   N     0.30578   0.19375   0.34792   0.00000  Uiso   1.00
O391   O     0.31837   0.24293   0.37340   0.00000  Uiso   1.00
O392   O     0.33620   0.15974   0.33498   0.00000  Uiso   1.00
O393   O     0.75325   0.09538   0.53992   0.00000  Uiso   1.00
O394   O     0.74674   0.23796   0.46008   0.00000  Uiso   1.00
O395   O     0.74480   0.08559   0.43612   0.00000  Uiso   1.00
O396   O     0.75520   0.24774   0.56388   0.00000  Uiso   1.00
C397   C     0.74863   0.06661   0.48434   0.00000  Uiso   1.00
C398   C     0.75137   0.26672   0.51566   0.00000  Uiso   1.00
O399   O     0.68935   0.17155   0.55191   0.00000  Uiso   1.00
O400   O     0.81064   0.16179   0.44809   0.00000  Uiso   1.00
O401   O     0.68090   0.16176   0.44810   0.00000  Uiso   1.00
O402   O     0.81910   0.17157   0.55190   0.00000  Uiso   1.00
C403   C     0.66469   0.16691   0.50088   0.00000  Uiso   1.00
C404   C     0.83531   0.16643   0.49912   0.00000  Uiso   1.00
Cu405  Cu    0.75500   0.17246   0.56146   0.00000  Uiso   1.00
Cu406  Cu    0.74499   0.16087   0.43854   0.00000  Uiso   1.00
C407   C     0.90975   0.20963   0.53139   0.00000  Uiso   1.00
C408   C     0.59025   0.12370   0.46861   0.00000  Uiso   1.00
C409   C     0.88340   0.16573   0.49756   0.00000  Uiso   1.00
C410   C     0.61660   0.16760   0.50244   0.00000  Uiso   1.00
C411   C     0.90256   0.12189   0.46266   0.00000  Uiso   1.00
C412   C     0.59744   0.21144   0.53734   0.00000  Uiso   1.00
C413   C     0.94986   0.11958   0.46757   0.00000  Uiso   1.00
C414   C     0.55014   0.21375   0.53243   0.00000  Uiso   1.00
C415   C     0.97648   0.16596   0.49938   0.00000  Uiso   1.00
C416   C     0.52352   0.16737   0.50062   0.00000  Uiso   1.00
C417   C     0.95605   0.21101   0.53035   0.00000  Uiso   1.00
C418   C     0.54395   0.12232   0.46965   0.00000  Uiso   1.00
C419   C     0.97152   0.07304   0.44237   0.00000  Uiso   1.00
C420   C     0.52848   0.26029   0.55763   0.00000  Uiso   1.00
C421   C     0.51814   0.07583   0.44139   0.00000  Uiso   1.00
C422   C     0.98186   0.25751   0.55861   0.00000  Uiso   1.00
H423   H     0.89384   0.24362   0.55663   0.00000  Uiso   1.00
H424   H     0.60616   0.08972   0.44337   0.00000  Uiso   1.00
H425   H     0.53460   0.04053   0.42118   0.00000  Uiso   1.00
H426   H     0.96540   0.29280   0.57882   0.00000  Uiso   1.00
C427   C     0.74801   0.01046   0.47574   0.00000  Uiso   1.00
C428   C     0.75199   0.32288   0.52426   0.00000  Uiso   1.00
H429   H     0.74428   0.31958   0.42916   0.00000  Uiso   1.00
H430   H     0.75572   0.01375   0.57084   0.00000  Uiso   1.00
N431   N     0.73744   0.15214   0.34617   0.00000  Uiso   1.00
N432   N     0.76255   0.18119   0.65383   0.00000  Uiso   1.00
O433   O     0.87428   0.08332   0.42353   0.00000  Uiso   1.00
H434   H     0.88923   0.07142   0.38533   0.00000  Uiso   1.00
O435   O     0.62572   0.25002   0.57647   0.00000  Uiso   1.00
H436   H     0.61077   0.26191   0.61467   0.00000  Uiso   1.00
N437   N     0.94776   0.02179   0.42348   0.00000  Uiso   1.00
O438   O     0.92036   0.00643   0.45930   0.00000  Uiso   1.00
O439   O     0.95952   0.32044   0.37670   0.00000  Uiso   1.00
N440   N     0.55224   0.31154   0.57651   0.00000  Uiso   1.00
O441   O     0.54048   0.01289   0.62330   0.00000  Uiso   1.00
O442   O     0.57964   0.32691   0.54070   0.00000  Uiso   1.00
N443   N     0.69422   0.13960   0.65210   0.00000  Uiso   1.00
O444   O     0.68160   0.09042   0.62666   0.00000  Uiso   1.00
O445   O     0.66381   0.17363   0.66502   0.00000  Uiso   1.00
N446   N     0.80578   0.19375   0.34792   0.00000  Uiso   1.00
O447   O     0.81837   0.24293   0.37340   0.00000  Uiso   1.00
O448   O     0.83620   0.15974   0.33498   0.00000  Uiso   1.00
O449   O     0.25325   0.42871   0.53992   0.00000  Uiso   1.00
O450   O     0.24674   0.57129   0.46008   0.00000  Uiso   1.00
O451   O     0.24480   0.41892   0.43612   0.00000  Uiso   1.00
O452   O     0.25520   0.58108   0.56388   0.00000  Uiso   1.00
C453   C     0.24863   0.39994   0.48434   0.00000  Uiso   1.00
C454   C     0.25137   0.60006   0.51566   0.00000  Uiso   1.00
O455   O     0.18935   0.50488   0.55191   0.00000  Uiso   1.00
O456   O     0.31064   0.49512   0.44809   0.00000  Uiso   1.00
O457   O     0.18090   0.49510   0.44810   0.00000  Uiso   1.00
O458   O     0.31910   0.50490   0.55190   0.00000  Uiso   1.00
C459   C     0.16469   0.50024   0.50088   0.00000  Uiso   1.00
C460   C     0.33531   0.49976   0.49912   0.00000  Uiso   1.00
Cu461  Cu    0.25500   0.50579   0.56146   0.00000  Uiso   1.00
Cu462  Cu    0.24499   0.49421   0.43854   0.00000  Uiso   1.00
C463   C     0.40975   0.54297   0.53139   0.00000  Uiso   1.00
C464   C     0.09025   0.45703   0.46861   0.00000  Uiso   1.00
C465   C     0.38340   0.49907   0.49756   0.00000  Uiso   1.00
C466   C     0.11660   0.50093   0.50244   0.00000  Uiso   1.00
C467   C     0.40256   0.45522   0.46266   0.00000  Uiso   1.00
C468   C     0.09744   0.54478   0.53734   0.00000  Uiso   1.00
C469   C     0.44986   0.45292   0.46757   0.00000  Uiso   1.00
C470   C     0.05014   0.54708   0.53243   0.00000  Uiso   1.00
C471   C     0.47648   0.49930   0.49938   0.00000  Uiso   1.00
C472   C     0.02352   0.50070   0.50062   0.00000  Uiso   1.00
C473   C     0.45605   0.54435   0.53035   0.00000  Uiso   1.00
C474   C     0.04395   0.45565   0.46965   0.00000  Uiso   1.00
C475   C     0.47152   0.40638   0.44237   0.00000  Uiso   1.00
C476   C     0.02848   0.59362   0.55763   0.00000  Uiso   1.00
C477   C     0.01814   0.40916   0.44139   0.00000  Uiso   1.00
C478   C     0.48186   0.59084   0.55861   0.00000  Uiso   1.00
H479   H     0.39384   0.57695   0.55663   0.00000  Uiso   1.00
H480   H     0.10616   0.42305   0.44337   0.00000  Uiso   1.00
H481   H     0.03460   0.37386   0.42118   0.00000  Uiso   1.00
H482   H     0.46540   0.62614   0.57882   0.00000  Uiso   1.00
C483   C     0.24801   0.34379   0.47574   0.00000  Uiso   1.00
C484   C     0.25199   0.65621   0.52426   0.00000  Uiso   1.00
H485   H     0.24428   0.65292   0.42916   0.00000  Uiso   1.00
H486   H     0.25572   0.34708   0.57084   0.00000  Uiso   1.00
N487   N     0.23744   0.48547   0.34617   0.00000  Uiso   1.00
N488   N     0.26255   0.51453   0.65383   0.00000  Uiso   1.00
O489   O     0.37428   0.41665   0.42353   0.00000  Uiso   1.00
H490   H     0.38923   0.40476   0.38533   0.00000  Uiso   1.00
O491   O     0.12572   0.58335   0.57647   0.00000  Uiso   1.00
H492   H     0.11077   0.59524   0.61467   0.00000  Uiso   1.00
N493   N     0.44776   0.35513   0.42348   0.00000  Uiso   1.00
O494   O     0.42036   0.33976   0.45930   0.00000  Uiso   1.00
O495   O     0.45952   0.65377   0.37670   0.00000  Uiso   1.00
N496   N     0.05224   0.64487   0.57651   0.00000  Uiso   1.00
O497   O     0.04048   0.34623   0.62330   0.00000  Uiso   1.00
O498   O     0.07964   0.66024   0.54070   0.00000  Uiso   1.00
N499   N     0.19422   0.47293   0.65210   0.00000  Uiso   1.00
O500   O     0.18160   0.42376   0.62666   0.00000  Uiso   1.00
O501   O     0.16381   0.50696   0.66502   0.00000  Uiso   1.00
N502   N     0.30578   0.52708   0.34792   0.00000  Uiso   1.00
O503   O     0.31837   0.57626   0.37340   0.00000  Uiso   1.00
O504   O     0.33620   0.49308   0.33498   0.00000  Uiso   1.00
O505   O     0.75325   0.42871   0.53992   0.00000  Uiso   1.00
O506   O     0.74674   0.57129   0.46008   0.00000  Uiso   1.00
O507   O     0.74480   0.41892   0.43612   0.00000  Uiso   1.00
O508   O     0.75520   0.58108   0.56388   0.00000  Uiso   1.00
C509   C     0.74863   0.39994   0.48434   0.00000  Uiso   1.00
C510   C     0.75137   0.60006   0.51566   0.00000  Uiso   1.00
O511   O     0.68935   0.50488   0.55191   0.00000  Uiso   1.00
O512   O     0.81064   0.49512   0.44809   0.00000  Uiso   1.00
O513   O     0.68090   0.49510   0.44810   0.00000  Uiso   1.00
O514   O     0.81910   0.50490   0.55190   0.00000  Uiso   1.00
C515   C     0.66469   0.50024   0.50088   0.00000  Uiso   1.00
C516   C     0.83531   0.49976   0.49912   0.00000  Uiso   1.00
Cu517  Cu    0.75500   0.50579   0.56146   0.00000  Uiso   1.00
Cu518  Cu    0.74499   0.49421   0.43854   0.00000  Uiso   1.00
C519   C     0.90975   0.54297   0.53139   0.00000  Uiso   1.00
C520   C     0.59025   0.45703   0.46861   0.00000  Uiso   1.00
C521   C     0.88340   0.49907   0.49756   0.00000  Uiso   1.00
C522   C     0.61660   0.50093   0.50244   0.00000  Uiso   1.00
C523   C     0.90256   0.45522   0.46266   0.00000  Uiso   1.00
C524   C     0.59744   0.54478   0.53734   0.00000  Uiso   1.00
C525   C     0.94986   0.45292   0.46757   0.00000  Uiso   1.00
C526   C     0.55014   0.54708   0.53243   0.00000  Uiso   1.00
C527   C     0.97648   0.49930   0.49938   0.00000  Uiso   1.00
C528   C     0.52352   0.50070   0.50062   0.00000  Uiso   1.00
C529   C     0.95605   0.54435   0.53035   0.00000  Uiso   1.00
C530   C     0.54395   0.45565   0.46965   0.00000  Uiso   1.00
C531   C     0.97152   0.40638   0.44237   0.00000  Uiso   1.00
C532   C     0.52848   0.59362   0.55763   0.00000  Uiso   1.00
C533   C     0.51814   0.40916   0.44139   0.00000  Uiso   1.00
C534   C     0.98186   0.59084   0.55861   0.00000  Uiso   1.00
H535   H     0.89384   0.57695   0.55663   0.00000  Uiso   1.00
H536   H     0.60616   0.42305   0.44337   0.00000  Uiso   1.00
H537   H     0.53460   0.37386   0.42118   0.00000  Uiso   1.00
H538   H     0.96540   0.62614   0.57882   0.00000  Uiso   1.00
C539   C     0.74801   0.34379   0.47574   0.00000  Uiso   1.00
C540   C     0.75199   0.65621   0.52426   0.00000  Uiso   1.00
H541   H     0.74428   0.65292   0.42916   0.00000  Uiso   1.00
H542   H     0.75572   0.34708   0.57084   0.00000  Uiso   1.00
N543   N     0.73744   0.48547   0.34617   0.00000  Uiso   1.00
N544   N     0.76255   0.51453   0.65383   0.00000  Uiso   1.00
O545   O     0.87428   0.41665   0.42353   0.00000  Uiso   1.00
H546   H     0.88923   0.40476   0.38533   0.00000  Uiso   1.00
O547   O     0.62572   0.58335   0.57647   0.00000  Uiso   1.00
H548   H     0.61077   0.59524   0.61467   0.00000  Uiso   1.00
N549   N     0.94776   0.35513   0.42348   0.00000  Uiso   1.00
O550   O     0.92036   0.33976   0.45930   0.00000  Uiso   1.00
O551   O     0.95952   0.65377   0.37670   0.00000  Uiso   1.00
N552   N     0.55224   0.64487   0.57651   0.00000  Uiso   1.00
O553   O     0.54048   0.34623   0.62330   0.00000  Uiso   1.00
O554   O     0.57964   0.66024   0.54070   0.00000  Uiso   1.00
N555   N     0.69422   0.47293   0.65210   0.00000  Uiso   1.00
O556   O     0.68160   0.42376   0.62666   0.00000  Uiso   1.00
O557   O     0.66381   0.50696   0.66502   0.00000  Uiso   1.00
N558   N     0.80578   0.52708   0.34792   0.00000  Uiso   1.00
O559   O     0.81837   0.57626   0.37340   0.00000  Uiso   1.00
O560   O     0.83620   0.49308   0.33498   0.00000  Uiso   1.00
O561   O     0.25325   0.76204   0.53992   0.00000  Uiso   1.00
O562   O     0.24674   0.90462   0.46008   0.00000  Uiso   1.00
O563   O     0.24480   0.75226   0.43612   0.00000  Uiso   1.00
O564   O     0.25520   0.91441   0.56388   0.00000  Uiso   1.00
C565   C     0.24863   0.73328   0.48434   0.00000  Uiso   1.00
C566   C     0.25137   0.93339   0.51566   0.00000  Uiso   1.00
O567   O     0.18935   0.83821   0.55191   0.00000  Uiso   1.00
O568   O     0.31064   0.82845   0.44809   0.00000  Uiso   1.00
O569   O     0.18090   0.82843   0.44810   0.00000  Uiso   1.00
O570   O     0.31910   0.83824   0.55190   0.00000  Uiso   1.00
C571   C     0.16469   0.83357   0.50088   0.00000  Uiso   1.00
C572   C     0.33531   0.83309   0.49912   0.00000  Uiso   1.00
Cu573  Cu    0.25500   0.83913   0.56146   0.00000  Uiso   1.00
Cu574  Cu    0.24499   0.82754   0.43854   0.00000  Uiso   1.00
C575   C     0.40975   0.87630   0.53139   0.00000  Uiso   1.00
C576   C     0.09025   0.79037   0.46861   0.00000  Uiso   1.00
C577   C     0.38340   0.83240   0.49756   0.00000  Uiso   1.00
C578   C     0.11660   0.83427   0.50244   0.00000  Uiso   1.00
C579   C     0.40256   0.78856   0.46266   0.00000  Uiso   1.00
C580   C     0.09744   0.87811   0.53734   0.00000  Uiso   1.00
C581   C     0.44986   0.78625   0.46757   0.00000  Uiso   1.00
C582   C     0.05014   0.88042   0.53243   0.00000  Uiso   1.00
C583   C     0.47648   0.83263   0.49938   0.00000  Uiso   1.00
C584   C     0.02352   0.83404   0.50062   0.00000  Uiso   1.00
C585   C     0.45605   0.87768   0.53035   0.00000  Uiso   1.00
C586   C     0.04395   0.78899   0.46965   0.00000  Uiso   1.00
C587   C     0.47152   0.73971   0.44237   0.00000  Uiso   1.00
C588   C     0.02848   0.92696   0.55763   0.00000  Uiso   1.00
C589   C     0.01814   0.74249   0.44139   0.00000  Uiso   1.00
C590   C     0.48186   0.92417   0.55861   0.00000  Uiso   1.00
H591   H     0.39384   0.91029   0.55663   0.00000  Uiso   1.00
H592   H     0.10616   0.75638   0.44337   0.00000  Uiso   1.00
H593   H     0.03460   0.70720   0.42118   0.00000  Uiso   1.00
H594   H     0.46540   0.95947   0.57882   0.00000  Uiso   1.00
C595   C     0.24801   0.67712   0.47574   0.00000  Uiso   1.00
C596   C     0.25199   0.98954   0.52426   0.00000  Uiso   1.00
H597   H     0.24428   0.98625   0.42916   0.00000  Uiso   1.00
H598   H     0.25572   0.68042   0.57084   0.00000  Uiso   1.00
N599   N     0.23744   0.81881   0.34617   0.00000  Uiso   1.00
N600   N     0.26255   0.84786   0.65383   0.00000  Uiso   1.00
O601   O     0.37428   0.74998   0.42353   0.00000  Uiso   1.00
H602   H     0.38923   0.73809   0.38533   0.00000  Uiso   1.00
O603   O     0.12572   0.91669   0.57647   0.00000  Uiso   1.00
H604   H     0.11077   0.92858   0.61467   0.00000  Uiso   1.00
N605   N     0.44776   0.68846   0.42348   0.00000  Uiso   1.00
O606   O     0.42036   0.67309   0.45930   0.00000  Uiso   1.00
O607   O     0.45952   0.98711   0.37670   0.00000  Uiso   1.00
N608   N     0.05224   0.97821   0.57651   0.00000  Uiso   1.00
O609   O     0.04048   0.67956   0.62330   0.00000  Uiso   1.00
O610   O     0.07964   0.99357   0.54070   0.00000  Uiso   1.00
N611   N     0.19422   0.80627   0.65210   0.00000  Uiso   1.00
O612   O     0.18160   0.75709   0.62666   0.00000  Uiso   1.00
O613   O     0.16381   0.84030   0.66502   0.00000  Uiso   1.00
N614   N     0.30578   0.86042   0.34792   0.00000  Uiso   1.00
O615   O     0.31837   0.90959   0.37340   0.00000  Uiso   1.00
O616   O     0.33620   0.82641   0.33498   0.00000  Uiso   1.00
O617   O     0.75325   0.76204   0.53992   0.00000  Uiso   1.00
O618   O     0.74674   0.90462   0.46008   0.00000  Uiso   1.00
O619   O     0.74480   0.75226   0.43612   0.00000  Uiso   1.00
O620   O     0.75520   0.91441   0.56388   0.00000  Uiso   1.00
C621   C     0.74863   0.73328   0.48434   0.00000  Uiso   1.00
C622   C     0.75137   0.93339   0.51566   0.00000  Uiso   1.00
O623   O     0.68935   0.83821   0.55191   0.00000  Uiso   1.00
O624   O     0.81064   0.82845   0.44809   0.00000  Uiso   1.00
O625   O     0.68090   0.82843   0.44810   0.00000  Uiso   1.00
O626   O     0.81910   0.83824   0.55190   0.00000  Uiso   1.00
C627   C     0.66469   0.83357   0.50088   0.00000  Uiso   1.00
C628   C     0.83531   0.83309   0.49912   0.00000  Uiso   1.00
Cu629  Cu    0.75500   0.83913   0.56146   0.00000  Uiso   1.00
Cu630  Cu    0.74499   0.82754   0.43854   0.00000  Uiso   1.00
C631   C     0.90975   0.87630   0.53139   0.00000  Uiso   1.00
C632   C     0.59025   0.79037   0.46861   0.00000  Uiso   1.00
C633   C     0.88340   0.83240   0.49756   0.00000  Uiso   1.00
C634   C     0.61660   0.83427   0.50244   0.00000  Uiso   1.00
C635   C     0.90256   0.78856   0.46266   0.00000  Uiso   1.00
C636   C     0.59744   0.87811   0.53734   0.00000  Uiso   1.00
C637   C     0.94986   0.78625   0.46757   0.00000  Uiso   1.00
C638   C     0.55014   0.88042   0.53243   0.00000  Uiso   1.00
C639   C     0.97648   0.83263   0.49938   0.00000  Uiso   1.00
C640   C     0.52352   0.83404   0.50062   0.00000  Uiso   1.00
C641   C     0.95605   0.87768   0.53035   0.00000  Uiso   1.00
C642   C     0.54395   0.78899   0.46965   0.00000  Uiso   1.00
C643   C     0.97152   0.73971   0.44237   0.00000  Uiso   1.00
C644   C     0.52848   0.92696   0.55763   0.00000  Uiso   1.00
C645   C     0.51814   0.74249   0.44139   0.00000  Uiso   1.00
C646   C     0.98186   0.92417   0.55861   0.00000  Uiso   1.00
H647   H     0.89384   0.91029   0.55663   0.00000  Uiso   1.00
H648   H     0.60616   0.75638   0.44337   0.00000  Uiso   1.00
H649   H     0.53460   0.70720   0.42118   0.00000  Uiso   1.00
H650   H     0.96540   0.95947   0.57882   0.00000  Uiso   1.00
C651   C     0.74801   0.67712   0.47574   0.00000  Uiso   1.00
C652   C     0.75199   0.98954   0.52426   0.00000  Uiso   1.00
H653   H     0.74428   0.98625   0.42916   0.00000  Uiso   1.00
H654   H     0.75572   0.68042   0.57084   0.00000  Uiso   1.00
N655   N     0.73744   0.81881   0.34617   0.00000  Uiso   1.00
N656   N     0.76255   0.84786   0.65383   0.00000  Uiso   1.00
O657   O     0.87428   0.74998   0.42353   0.00000  Uiso   1.00
H658   H     0.88923   0.73809   0.38533   0.00000  Uiso   1.00
O659   O     0.62572   0.91669   0.57647   0.00000  Uiso   1.00
H660   H     0.61077   0.92858   0.61467   0.00000  Uiso   1.00
N661   N     0.94776   0.68846   0.42348   0.00000  Uiso   1.00
O662   O     0.92036   0.67309   0.45930   0.00000  Uiso   1.00
O663   O     0.95952   0.98711   0.37670   0.00000  Uiso   1.00
N664   N     0.55224   0.97821   0.57651   0.00000  Uiso   1.00
O665   O     0.54048   0.67956   0.62330   0.00000  Uiso   1.00
O666   O     0.57964   0.99357   0.54070   0.00000  Uiso   1.00
N667   N     0.69422   0.80627   0.65210   0.00000  Uiso   1.00
O668   O     0.68160   0.75709   0.62666   0.00000  Uiso   1.00
O669   O     0.66381   0.84030   0.66502   0.00000  Uiso   1.00
N670   N     0.80578   0.86042   0.34792   0.00000  Uiso   1.00
O671   O     0.81837   0.90959   0.37340   0.00000  Uiso   1.00
O672   O     0.83620   0.82641   0.33498   0.00000  Uiso   1.00
O673   O     0.25325   0.09538   0.87326   0.00000  Uiso   1.00
O674   O     0.24674   0.23796   0.79341   0.00000  Uiso   1.00
O675   O     0.24480   0.08559   0.76945   0.00000  Uiso   1.00
O676   O     0.25520   0.24774   0.89721   0.00000  Uiso   1.00
C677   C     0.24863   0.06661   0.81767   0.00000  Uiso   1.00
C678   C     0.25137   0.26672   0.84900   0.00000  Uiso   1.00
O679   O     0.18935   0.17155   0.88524   0.00000  Uiso   1.00
O680   O     0.31064   0.16179   0.78143   0.00000  Uiso   1.00
O681   O     0.18090   0.16176   0.78143   0.00000  Uiso   1.00
O682   O     0.31910   0.17157   0.88523   0.00000  Uiso   1.00
C683   C     0.16469   0.16691   0.83421   0.00000  Uiso   1.00
C684   C     0.33531   0.16643   0.83246   0.00000  Uiso   1.00
Cu685  Cu    0.25500   0.17246   0.89479   0.00000  Uiso   1.00
Cu686  Cu    0.24499   0.16087   0.77187   0.00000  Uiso   1.00
C687   C     0.40975   0.20963   0.86472   0.00000  Uiso   1.00
C688   C     0.09025   0.12370   0.80194   0.00000  Uiso   1.00
C689   C     0.38340   0.16573   0.83089   0.00000  Uiso   1.00
C690   C     0.11660   0.16760   0.83577   0.00000  Uiso   1.00
C691   C     0.40256   0.12189   0.79599   0.00000  Uiso   1.00
C692   C     0.09744   0.21144   0.87068   0.00000  Uiso   1.00
C693   C     0.44986   0.11958   0.80090   0.00000  Uiso   1.00
C694   C     0.05014   0.21375   0.86576   0.00000  Uiso   1.00
C695   C     0.47648   0.16596   0.83271   0.00000  Uiso   1.00
C696   C     0.02352   0.16737   0.83396   0.00000  Uiso   1.00
C697   C     0.45605   0.21101   0.86368   0.00000  Uiso   1.00
C698   C     0.04395   0.12232   0.80298   0.00000  Uiso   1.00
C699   C     0.47152   0.07304   0.77570   0.00000  Uiso   1.00
C700   C     0.02848   0.26029   0.89096   0.00000  Uiso   1.00
C701   C     0.01814   0.07583   0.77472   0.00000  Uiso   1.00
C702   C     0.48186   0.25751   0.89194   0.00000  Uiso   1.00
H703   H     0.39384   0.24362   0.88996   0.00000  Uiso   1.00
H704   H     0.10616   0.08972   0.77671   0.00000  Uiso   1.00
H705   H     0.03460   0.04053   0.75451   0.00000  Uiso   1.00
H706   H     0.46540   0.29280   0.91215   0.00000  Uiso   1.00
C707   C     0.24801   0.01046   0.80907   0.00000  Uiso   1.00
C708   C     0.25199   0.32288   0.85760   0.00000  Uiso   1.00
H709   H     0.24428   0.31958   0.76249   0.00000  Uiso   1.00
H710   H     0.25572   0.01375   0.90418   0.00000  Uiso   1.00
N711   N     0.23744   0.15214   0.67951   0.00000  Uiso   1.00
N712   N     0.26255   0.18119   0.98716   0.00000  Uiso   1.00
O713   O     0.37428   0.08332   0.75686   0.00000  Uiso   1.00
H714   H     0.38923   0.07142   0.71866   0.00000  Uiso   1.00
O715   O     0.12572   0.25002   0.90980   0.00000  Uiso   1.00
H716   H     0.11077   0.26191   0.94801   0.00000  Uiso   1.00
N717   N     0.44776   0.02179   0.75682   0.00000  Uiso   1.00
O718   O     0.42036   0.00643   0.79264   0.00000  Uiso   1.00
O719   O     0.45952   0.32044   0.71003   0.00000  Uiso   1.00
N720   N     0.05224   0.31154   0.90985   0.00000  Uiso   1.00
O721   O     0.04048   0.01289   0.95663   0.00000  Uiso   1.00
O722   O     0.07964   0.32691   0.87403   0.00000  Uiso   1.00
N723   N     0.19422   0.13960   0.98543   0.00000  Uiso   1.00
O724   O     0.18160   0.09042   0.96000   0.00000  Uiso   1.00
O725   O     0.16381   0.17363   0.99836   0.00000  Uiso   1.00
N726   N     0.30578   0.19375   0.68125   0.00000  Uiso   1.00
O727   O     0.31837   0.24293   0.70673   0.00000  Uiso   1.00
O728   O     0.33620   0.15974   0.66831   0.00000  Uiso   1.00
O729   O     0.75325   0.09538   0.87326   0.00000  Uiso   1.00
O730   O     0.74674   0.23796   0.79341   0.00000  Uiso   1.00
O731   O     0.74480   0.08559   0.76945   0.00000  Uiso   1.00
O732   O     0.75520   0.24774   0.89721   0.00000  Uiso   1.00
C733   C     0.74863   0.06661   0.81767   0.00000  Uiso   1.00
C734   C     0.75137   0.26672   0.84900   0.00000  Uiso   1.00
O735   O     0.68935   0.17155   0.88524   0.00000  Uiso   1.00
O736   O     0.81064   0.16179   0.78143   0.00000  Uiso   1.00
O737   O     0.68090   0.16176   0.78143   0.00000  Uiso   1.00
O738   O     0.81910   0.17157   0.88523   0.00000  Uiso   1.00
C739   C     0.66469   0.16691   0.83421   0.00000  Uiso   1.00
C740   C     0.83531   0.16643   0.83246   0.00000  Uiso   1.00
Cu741  Cu    0.75500   0.17246   0.89479   0.00000  Uiso   1.00
Cu742  Cu    0.74499   0.16087   0.77187   0.00000  Uiso   1.00
C743   C     0.90975   0.20963   0.86472   0.00000  Uiso   1.00
C744   C     0.59025   0.12370   0.80194   0.00000  Uiso   1.00
C745   C     0.88340   0.16573   0.83089   0.00000  Uiso   1.00
C746   C     0.61660   0.16760   0.83577   0.00000  Uiso   1.00
C747   C     0.90256   0.12189   0.79599   0.00000  Uiso   1.00
C748   C     0.59744   0.21144   0.87068   0.00000  Uiso   1.00
C749   C     0.94986   0.11958   0.80090   0.00000  Uiso   1.00
C750   C     0.55014   0.21375   0.86576   0.00000  Uiso   1.00
C751   C     0.97648   0.16596   0.83271   0.00000  Uiso   1.00
C752   C     0.52352   0.16737   0.83396   0.00000  Uiso   1.00
C753   C     0.95605   0.21101   0.86368   0.00000  Uiso   1.00
C754   C     0.54395   0.12232   0.80298   0.00000  Uiso   1.00
C755   C     0.97152   0.07304   0.77570   0.00000  Uiso   1.00
C756   C     0.52848   0.26029   0.89096   0.00000  Uiso   1.00
C757   C     0.51814   0.07583   0.77472   0.00000  Uiso   1.00
C758   C     0.98186   0.25751   0.89194   0.00000  Uiso   1.00
H759   H     0.89384   0.24362   0.88996   0.00000  Uiso   1.00
H760   H     0.60616   0.08972   0.77671   0.00000  Uiso   1.00
H761   H     0.53460   0.04053   0.75451   0.00000  Uiso   1.00
H762   H     0.96540   0.29280   0.91215   0.00000  Uiso   1.00
C763   C     0.74801   0.01046   0.80907   0.00000  Uiso   1.00
C764   C     0.75199   0.32288   0.85760   0.00000  Uiso   1.00
H765   H     0.74428   0.31958   0.76249   0.00000  Uiso   1.00
H766   H     0.75572   0.01375   0.90418   0.00000  Uiso   1.00
N767   N     0.73744   0.15214   0.67951   0.00000  Uiso   1.00
N768   N     0.76255   0.18119   0.98716   0.00000  Uiso   1.00
O769   O     0.87428   0.08332   0.75686   0.00000  Uiso   1.00
H770   H     0.88923   0.07142   0.71866   0.00000  Uiso   1.00
O771   O     0.62572   0.25002   0.90980   0.00000  Uiso   1.00
H772   H     0.61077   0.26191   0.94801   0.00000  Uiso   1.00
N773   N     0.94776   0.02179   0.75682   0.00000  Uiso   1.00
O774   O     0.92036   0.00643   0.79264   0.00000  Uiso   1.00
O775   O     0.95952   0.32044   0.71003   0.00000  Uiso   1.00
N776   N     0.55224   0.31154   0.90985   0.00000  Uiso   1.00
O777   O     0.54048   0.01289   0.95663   0.00000  Uiso   1.00
O778   O     0.57964   0.32691   0.87403   0.00000  Uiso   1.00
N779   N     0.69422   0.13960   0.98543   0.00000  Uiso   1.00
O780   O     0.68160   0.09042   0.96000   0.00000  Uiso   1.00
O781   O     0.66381   0.17363   0.99836   0.00000  Uiso   1.00
N782   N     0.80578   0.19375   0.68125   0.00000  Uiso   1.00
O783   O     0.81837   0.24293   0.70673   0.00000  Uiso   1.00
O784   O     0.83620   0.15974   0.66831   0.00000  Uiso   1.00
O785   O     0.25325   0.42871   0.87326   0.00000  Uiso   1.00
O786   O     0.24674   0.57129   0.79341   0.00000  Uiso   1.00
O787   O     0.24480   0.41892   0.76945   0.00000  Uiso   1.00
O788   O     0.25520   0.58108   0.89721   0.00000  Uiso   1.00
C789   C     0.24863   0.39994   0.81767   0.00000  Uiso   1.00
C790   C     0.25137   0.60006   0.84900   0.00000  Uiso   1.00
O791   O     0.18935   0.50488   0.88524   0.00000  Uiso   1.00
O792   O     0.31064   0.49512   0.78143   0.00000  Uiso   1.00
O793   O     0.18090   0.49510   0.78143   0.00000  Uiso   1.00
O794   O     0.31910   0.50490   0.88523   0.00000  Uiso   1.00
C795   C     0.16469   0.50024   0.83421   0.00000  Uiso   1.00
C796   C     0.33531   0.49976   0.83246   0.00000  Uiso   1.00
Cu797  Cu    0.25500   0.50579   0.89479   0.00000  Uiso   1.00
Cu798  Cu    0.24499   0.49421   0.77187   0.00000  Uiso   1.00
C799   C     0.40975   0.54297   0.86472   0.00000  Uiso   1.00
C800   C     0.09025   0.45703   0.80194   0.00000  Uiso   1.00
C801   C     0.38340   0.49907   0.83089   0.00000  Uiso   1.00
C802   C     0.11660   0.50093   0.83577   0.00000  Uiso   1.00
C803   C     0.40256   0.45522   0.79599   0.00000  Uiso   1.00
C804   C     0.09744   0.54478   0.87068   0.00000  Uiso   1.00
C805   C     0.44986   0.45292   0.80090   0.00000  Uiso   1.00
C806   C     0.05014   0.54708   0.86576   0.00000  Uiso   1.00
C807   C     0.47648   0.49930   0.83271   0.00000  Uiso   1.00
C808   C     0.02352   0.50070   0.83396   0.00000  Uiso   1.00
C809   C     0.45605   0.54435   0.86368   0.00000  Uiso   1.00
C810   C     0.04395   0.45565   0.80298   0.00000  Uiso   1.00
C811   C     0.47152   0.40638   0.77570   0.00000  Uiso   1.00
C812   C     0.02848   0.59362   0.89096   0.00000  Uiso   1.00
C813   C     0.01814   0.40916   0.77472   0.00000  Uiso   1.00
C814   C     0.48186   0.59084   0.89194   0.00000  Uiso   1.00
H815   H     0.39384   0.57695   0.88996   0.00000  Uiso   1.00
H816   H     0.10616   0.42305   0.77671   0.00000  Uiso   1.00
H817   H     0.03460   0.37386   0.75451   0.00000  Uiso   1.00
H818   H     0.46540   0.62614   0.91215   0.00000  Uiso   1.00
C819   C     0.24801   0.34379   0.80907   0.00000  Uiso   1.00
C820   C     0.25199   0.65621   0.85760   0.00000  Uiso   1.00
H821   H     0.24428   0.65292   0.76249   0.00000  Uiso   1.00
H822   H     0.25572   0.34708   0.90418   0.00000  Uiso   1.00
N823   N     0.23744   0.48547   0.67951   0.00000  Uiso   1.00
N824   N     0.26255   0.51453   0.98716   0.00000  Uiso   1.00
O825   O     0.37428   0.41665   0.75686   0.00000  Uiso   1.00
H826   H     0.38923   0.40476   0.71866   0.00000  Uiso   1.00
O827   O     0.12572   0.58335   0.90980   0.00000  Uiso   1.00
H828   H     0.11077   0.59524   0.94801   0.00000  Uiso   1.00
N829   N     0.44776   0.35513   0.75682   0.00000  Uiso   1.00
O830   O     0.42036   0.33976   0.79264   0.00000  Uiso   1.00
O831   O     0.45952   0.65377   0.71003   0.00000  Uiso   1.00
N832   N     0.05224   0.64487   0.90985   0.00000  Uiso   1.00
O833   O     0.04048   0.34623   0.95663   0.00000  Uiso   1.00
O834   O     0.07964   0.66024   0.87403   0.00000  Uiso   1.00
N835   N     0.19422   0.47293   0.98543   0.00000  Uiso   1.00
O836   O     0.18160   0.42376   0.96000   0.00000  Uiso   1.00
O837   O     0.16381   0.50696   0.99836   0.00000  Uiso   1.00
N838   N     0.30578   0.52708   0.68125   0.00000  Uiso   1.00
O839   O     0.31837   0.57626   0.70673   0.00000  Uiso   1.00
O840   O     0.33620   0.49308   0.66831   0.00000  Uiso   1.00
O841   O     0.75325   0.42871   0.87326   0.00000  Uiso   1.00
O842   O     0.74674   0.57129   0.79341   0.00000  Uiso   1.00
O843   O     0.74480   0.41892   0.76945   0.00000  Uiso   1.00
O844   O     0.75520   0.58108   0.89721   0.00000  Uiso   1.00
C845   C     0.74863   0.39994   0.81767   0.00000  Uiso   1.00
C846   C     0.75137   0.60006   0.84900   0.00000  Uiso   1.00
O847   O     0.68935   0.50488   0.88524   0.00000  Uiso   1.00
O848   O     0.81064   0.49512   0.78143   0.00000  Uiso   1.00
O849   O     0.68090   0.49510   0.78143   0.00000  Uiso   1.00
O850   O     0.81910   0.50490   0.88523   0.00000  Uiso   1.00
C851   C     0.66469   0.50024   0.83421   0.00000  Uiso   1.00
C852   C     0.83531   0.49976   0.83246   0.00000  Uiso   1.00
Cu853  Cu    0.75500   0.50579   0.89479   0.00000  Uiso   1.00
Cu854  Cu    0.74499   0.49421   0.77187   0.00000  Uiso   1.00
C855   C     0.90975   0.54297   0.86472   0.00000  Uiso   1.00
C856   C     0.59025   0.45703   0.80194   0.00000  Uiso   1.00
C857   C     0.88340   0.49907   0.83089   0.00000  Uiso   1.00
C858   C     0.61660   0.50093   0.83577   0.00000  Uiso   1.00
C859   C     0.90256   0.45522   0.79599   0.00000  Uiso   1.00
C860   C     0.59744   0.54478   0.87068   0.00000  Uiso   1.00
C861   C     0.94986   0.45292   0.80090   0.00000  Uiso   1.00
C862   C     0.55014   0.54708   0.86576   0.00000  Uiso   1.00
C863   C     0.97648   0.49930   0.83271   0.00000  Uiso   1.00
C864   C     0.52352   0.50070   0.83396   0.00000  Uiso   1.00
C865   C     0.95605   0.54435   0.86368   0.00000  Uiso   1.00
C866   C     0.54395   0.45565   0.80298   0.00000  Uiso   1.00
C867   C     0.97152   0.40638   0.77570   0.00000  Uiso   1.00
C868   C     0.52848   0.59362   0.89096   0.00000  Uiso   1.00
C869   C     0.51814   0.40916   0.77472   0.00000  Uiso   1.00
C870   C     0.98186   0.59084   0.89194   0.00000  Uiso   1.00
H871   H     0.89384   0.57695   0.88996   0.00000  Uiso   1.00
H872   H     0.60616   0.42305   0.77671   0.00000  Uiso   1.00
H873   H     0.53460   0.37386   0.75451   0.00000  Uiso   1.00
H874   H     0.96540   0.62614   0.91215   0.00000  Uiso   1.00
C875   C     0.74801   0.34379   0.80907   0.00000  Uiso   1.00
C876   C     0.75199   0.65621   0.85760   0.00000  Uiso   1.00
H877   H     0.74428   0.65292   0.76249   0.00000  Uiso   1.00
H878   H     0.75572   0.34708   0.90418   0.00000  Uiso   1.00
N879   N     0.73744   0.48547   0.67951   0.00000  Uiso   1.00
N880   N     0.76255   0.51453   0.98716   0.00000  Uiso   1.00
O881   O     0.87428   0.41665   0.75686   0.00000  Uiso   1.00
H882   H     0.88923   0.40476   0.71866   0.00000  Uiso   1.00
O883   O     0.62572   0.58335   0.90980   0.00000  Uiso   1.00
H884   H     0.61077   0.59524   0.94801   0.00000  Uiso   1.00
N885   N     0.94776   0.35513   0.75682   0.00000  Uiso   1.00
O886   O     0.92036   0.33976   0.79264   0.00000  Uiso   1.00
O887   O     0.95952   0.65377   0.71003   0.00000  Uiso   1.00
N888   N     0.55224   0.64487   0.90985   0.00000  Uiso   1.00
O889   O     0.54048   0.34623   0.95663   0.00000  Uiso   1.00
O890   O     0.57964   0.66024   0.87403   0.00000  Uiso   1.00
N891   N     0.69422   0.47293   0.98543   0.00000  Uiso   1.00
O892   O     0.68160   0.42376   0.96000   0.00000  Uiso   1.00
O893   O     0.66381   0.50696   0.99836   0.00000  Uiso   1.00
N894   N     0.80578   0.52708   0.68125   0.00000  Uiso   1.00
O895   O     0.81837   0.57626   0.70673   0.00000  Uiso   1.00
O896   O     0.83620   0.49308   0.66831   0.00000  Uiso   1.00
O897   O     0.25325   0.76204   0.87326   0.00000  Uiso   1.00
O898   O     0.24674   0.90462   0.79341   0.00000  Uiso   1.00
O899   O     0.24480   0.75226   0.76945   0.00000  Uiso   1.00
O900   O     0.25520   0.91441   0.89721   0.00000  Uiso   1.00
C901   C     0.24863   0.73328   0.81767   0.00000  Uiso   1.00
C902   C     0.25137   0.93339   0.84900   0.00000  Uiso   1.00
O903   O     0.18935   0.83821   0.88524   0.00000  Uiso   1.00
O904   O     0.31064   0.82845   0.78143   0.00000  Uiso   1.00
O905   O     0.18090   0.82843   0.78143   0.00000  Uiso   1.00
O906   O     0.31910   0.83824   0.88523   0.00000  Uiso   1.00
C907   C     0.16469   0.83357   0.83421   0.00000  Uiso   1.00
C908   C     0.33531   0.83309   0.83246   0.00000  Uiso   1.00
Cu909  Cu    0.25500   0.83913   0.89479   0.00000  Uiso   1.00
Cu910  Cu    0.24499   0.82754   0.77187   0.00000  Uiso   1.00
C911   C     0.40975   0.87630   0.86472   0.00000  Uiso   1.00
C912   C     0.09025   0.79037   0.80194   0.00000  Uiso   1.00
C913   C     0.38340   0.83240   0.83089   0.00000  Uiso   1.00
C914   C     0.11660   0.83427   0.83577   0.00000  Uiso   1.00
C915   C     0.40256   0.78856   0.79599   0.00000  Uiso   1.00
C916   C     0.09744   0.87811   0.87068   0.00000  Uiso   1.00
C917   C     0.44986   0.78625   0.80090   0.00000  Uiso   1.00
C918   C     0.05014   0.88042   0.86576   0.00000  Uiso   1.00
C919   C     0.47648   0.83263   0.83271   0.00000  Uiso   1.00
C920   C     0.02352   0.83404   0.83396   0.00000  Uiso   1.00
C921   C     0.45605   0.87768   0.86368   0.00000  Uiso   1.00
C922   C     0.04395   0.78899   0.80298   0.00000  Uiso   1.00
C923   C     0.47152   0.73971   0.77570   0.00000  Uiso   1.00
C924   C     0.02848   0.92696   0.89096   0.00000  Uiso   1.00
C925   C     0.01814   0.74249   0.77472   0.00000  Uiso   1.00
C926   C     0.48186   0.92417   0.89194   0.00000  Uiso   1.00
H927   H     0.39384   0.91029   0.88996   0.00000  Uiso   1.00
H928   H     0.10616   0.75638   0.77671   0.00000  Uiso   1.00
H929   H     0.03460   0.70720   0.75451   0.00000  Uiso   1.00
H930   H     0.46540   0.95947   0.91215   0.00000  Uiso   1.00
C931   C     0.24801   0.67712   0.80907   0.00000  Uiso   1.00
C932   C     0.25199   0.98954   0.85760   0.00000  Uiso   1.00
H933   H     0.24428   0.98625   0.76249   0.00000  Uiso   1.00
H934   H     0.25572   0.68042   0.90418   0.00000  Uiso   1.00
N935   N     0.23744   0.81881   0.67951   0.00000  Uiso   1.00
N936   N     0.26255   0.84786   0.98716   0.00000  Uiso   1.00
O937   O     0.37428   0.74998   0.75686   0.00000  Uiso   1.00
H938   H     0.38923   0.73809   0.71866   0.00000  Uiso   1.00
O939   O     0.12572   0.91669   0.90980   0.00000  Uiso   1.00
H940   H     0.11077   0.92858   0.94801   0.00000  Uiso   1.00
N941   N     0.44776   0.68846   0.75682   0.00000  Uiso   1.00
O942   O     0.42036   0.67309   0.79264   0.00000  Uiso   1.00
O943   O     0.45952   0.98711   0.71003   0.00000  Uiso   1.00
N944   N     0.05224   0.97821   0.90985   0.00000  Uiso   1.00
O945   O     0.04048   0.67956   0.95663   0.00000  Uiso   1.00
O946   O     0.07964   0.99357   0.87403   0.00000  Uiso   1.00
N947   N     0.19422   0.80627   0.98543   0.00000  Uiso   1.00
O948   O     0.18160   0.75709   0.96000   0.00000  Uiso   1.00
O949   O     0.16381   0.84030   0.99836   0.00000  Uiso   1.00
N950   N     0.30578   0.86042   0.68125   0.00000  Uiso   1.00
O951   O     0.31837   0.90959   0.70673   0.00000  Uiso   1.00
O952   O     0.33620   0.82641   0.66831   0.00000  Uiso   1.00
O953   O     0.75325   0.76204   0.87326   0.00000  Uiso   1.00
O954   O     0.74674   0.90462   0.79341   0.00000  Uiso   1.00
O955   O     0.74480   0.75226   0.76945   0.00000  Uiso   1.00
O956   O     0.75520   0.91441   0.89721   0.00000  Uiso   1.00
C957   C     0.74863   0.73328   0.81767   0.00000  Uiso   1.00
C958   C     0.75137   0.93339   0.84900   0.00000  Uiso   1.00
O959   O     0.68935   0.83821   0.88524   0.00000  Uiso   1.00
O960   O     0.81064   0.82845   0.78143   0.00000  Uiso   1.00
O961   O     0.68090   0.82843   0.78143   0.00000  Uiso   1.00
O962   O     0.81910   0.83824   0.88523   0.00000  Uiso   1.00
C963   C     0.66469   0.83357   0.83421   0.00000  Uiso   1.00
C964   C     0.83531   0.83309   0.83246   0.00000  Uiso   1.00
Cu965  Cu    0.75500   0.83913   0.89479   0.00000  Uiso   1.00
Cu966  Cu    0.74499   0.82754   0.77187   0.00000  Uiso   1.00
C967   C     0.90975   0.87630   0.86472   0.00000  Uiso   1.00
C968   C     0.59025   0.79037   0.80194   0.00000  Uiso   1.00
C969   C     0.88340   0.83240   0.83089   0.00000  Uiso   1.00
C970   C     0.61660   0.83427   0.83577   0.00000  Uiso   1.00
C971   C     0.90256   0.78856   0.79599   0.00000  Uiso   1.00
C972   C     0.59744   0.87811   0.87068   0.00000  Uiso   1.00
C973   C     0.94986   0.78625   0.80090   0.00000  Uiso   1.00
C974   C     0.55014   0.88042   0.86576   0.00000  Uiso   1.00
C975   C     0.97648   0.83263   0.83271   0.00000  Uiso   1.00
C976   C     0.52352   0.83404   0.83396   0.00000  Uiso   1.00
C977   C     0.95605   0.87768   0.86368   0.00000  Uiso   1.00
C978   C     0.54395   0.78899   0.80298   0.00000  Uiso   1.00
C979   C     0.97152   0.73971   0.77570   0.00000  Uiso   1.00
C980   C     0.52848   0.92696   0.89096   0.00000  Uiso   1.00
C981   C     0.51814   0.74249   0.77472   0.00000  Uiso   1.00
C982   C     0.98186   0.92417   0.89194   0.00000  Uiso   1.00
H983   H     0.89384   0.91029   0.88996   0.00000  Uiso   1.00
H984   H     0.60616   0.75638   0.77671   0.00000  Uiso   1.00
H985   H     0.53460   0.70720   0.75451   0.00000  Uiso   1.00
H986   H     0.96540   0.95947   0.91215   0.00000  Uiso   1.00
C987   C     0.74801   0.67712   0.80907   0.00000  Uiso   1.00
C988   C     0.75199   0.98954   0.85760   0.00000  Uiso   1.00
H989   H     0.74428   0.98625   0.76249   0.00000  Uiso   1.00
H990   H     0.75572   0.68042   0.90418   0.00000  Uiso   1.00
N991   N     0.73744   0.81881   0.67951   0.00000  Uiso   1.00
N992   N     0.76255   0.84786   0.98716   0.00000  Uiso   1.00
O993   O     0.87428   0.74998   0.75686   0.00000  Uiso   1.00
H994   H     0.88923   0.73809   0.71866   0.00000  Uiso   1.00
O995   O     0.62572   0.91669   0.90980   0.00000  Uiso   1.00
H996   H     0.61077   0.92858   0.94801   0.00000  Uiso   1.00
N997   N     0.94776   0.68846   0.75682   0.00000  Uiso   1.00
O998   O     0.92036   0.67309   0.79264   0.00000  Uiso   1.00
O999   O     0.95952   0.98711   0.71003   0.00000  Uiso   1.00
N1000  N     0.55224   0.97821   0.90985   0.00000  Uiso   1.00
O1001  O     0.54048   0.67956   0.95663   0.00000  Uiso   1.00
O1002  O     0.57964   0.99357   0.87403   0.00000  Uiso   1.00
N1003  N     0.69422   0.80627   0.98543   0.00000  Uiso   1.00
O1004  O     0.68160   0.75709   0.96000   0.00000  Uiso   1.00
O1005  O     0.66381   0.84030   0.99836   0.00000  Uiso   1.00
N1006  N     0.80578   0.86042   0.68125   0.00000  Uiso   1.00
O1007  O     0.81837   0.90959   0.70673   0.00000  Uiso   1.00
O1008  O     0.83620   0.82641   0.66831   0.00000  Uiso   1.00
loop_
_geom_bond_atom_site_label_1
_geom_bond_atom_site_label_2
_geom_bond_distance
_geom_bond_site_symmetry_2
_ccdc_geom_bond_type
O1     C5      1.297   .     A
O1     Cu13    1.949   .     S
O2     C6      1.297   .     A
O2     Cu14    1.949   .     S
O3     Cu14    1.947   .     S
O3     C5      1.295   .     A
O4     Cu13    1.947   .     S
O4     C6      1.295   .     A
C5     C35     1.428   .     S
C6     C36     1.428   .     S
O7     Cu13    1.960   .     S
O7     C11     1.301   .     A
O8     C12     1.301   .     A
O8     Cu14    1.960   .     S
O9     C11     1.297   .     A
O9     Cu14    1.946   .     S
O10    C12     1.297   .     A
O10    Cu13    1.946   .     S
C11    C18     1.443   .     S
C12    C17     1.443   .     S
Cu13   Cu14    2.711   .     S
Cu13   N40     2.037   .     S
Cu14   N39     2.037   .     S
C15    H31     1.086   .     S
C15    C25     1.387   .     A
C15    C17     1.390   .     A
C16    C18     1.390   .     A
C16    C26     1.387   .     A
C16    H32     1.086   .     S
C17    C19     1.401   .     A
C18    C20     1.401   .     A
C19    C21     1.418   .     A
C19    O41     1.380   .     S
C20    O43     1.380   .     S
C20    C22     1.418   .     A
C21    C27     1.421   .     A
C21    C23     1.425   .     A
C22    C28     1.421   .     A
C22    C24     1.425   .     A
C23    C25     1.410   .     A
C23    C80     1.405   .     S
C24    C26     1.410   .     A
C24    C79     1.405   1_455 S
C25    C30     1.396   .     A
C26    C29     1.396   .     A
C27    N45     1.438   .     S
C27    C85     1.396   .     S
C28    N48     1.438   .     S
C28    C86     1.396   1_455 S
C29    H33     1.084   .     S
C29    C83     1.396   1_455 S
C30    H34     1.084   .     S
C30    C84     1.396   .     S
C35    C260    1.331   1_545 S
C35    H261    1.088   1_545 S
C36    C147    1.331   .     S
C36    H150    1.088   .     S
H37    C147    1.088   .     S
H38    C260    1.088   1_545 S
N39    N712    1.296   1_554 S
N39    N723    1.384   1_554 S
N40    N375    1.296   .     S
N40    N390    1.384   .     S
O41    H42     0.991   .     S
O43    H44     0.991   .     S
N45    O46     1.302   .     A
N45    O271    1.301   1_545 S
O47    N157    1.301   .     S
N48    O50     1.302   .     A
N48    O161    1.301   .     S
O49    N272    1.301   1_545 S
N51    O53     1.302   .     A
N51    O52     1.300   .     A
N51    N375    1.384   .     S
N54    O55     1.301   .     A
N54    O56     1.302   .     A
N54    N712    1.384   1_554 S
O57    C61     1.297   .     A
O57    Cu69    1.949   .     S
O58    C62     1.297   .     A
O58    Cu70    1.949   .     S
O59    Cu70    1.947   .     S
O59    C61     1.295   .     A
O60    Cu69    1.947   .     S
O60    C62     1.295   .     A
C61    C91     1.428   .     S
C62    C92     1.428   .     S
O63    Cu69    1.960   .     S
O63    C67     1.301   .     A
O64    C68     1.301   .     A
O64    Cu70    1.960   .     S
O65    C67     1.297   .     A
O65    Cu70    1.946   .     S
O66    C68     1.297   .     A
O66    Cu69    1.946   .     S
C67    C74     1.443   .     S
C68    C73     1.443   .     S
Cu69   Cu70    2.711   .     S
Cu69   N96     2.037   .     S
Cu70   N95     2.037   .     S
C71    H87     1.086   .     S
C71    C81     1.387   .     A
C71    C73     1.390   .     A
C72    C74     1.390   .     A
C72    C82     1.387   .     A
C72    H88     1.086   .     S
C73    C75     1.401   .     A
C74    C76     1.401   .     A
C75    C77     1.418   .     A
C75    O97     1.380   .     S
C76    O99     1.380   .     S
C76    C78     1.418   .     A
C77    C83     1.421   .     A
C77    C79     1.425   .     A
C78    C84     1.421   .     A
C78    C80     1.425   .     A
C79    C81     1.410   .     A
C79    C24     1.405   1_655 S
C80    C82     1.410   .     A
C81    C86     1.396   .     A
C82    C85     1.396   .     A
C83    N101    1.438   .     S
C83    C29     1.396   1_655 S
C84    N104    1.438   .     S
C85    H89     1.084   .     S
C86    H90     1.084   .     S
C86    C28     1.396   1_655 S
C91    C316    1.331   1_545 S
C91    H317    1.088   1_545 S
C92    C203    1.331   .     S
C92    H206    1.088   .     S
H93    C203    1.088   .     S
H94    C316    1.088   1_545 S
N95    N768    1.296   1_554 S
N95    N779    1.384   1_554 S
N96    N431    1.296   .     S
N96    N446    1.384   .     S
O97    H98     0.991   .     S
O99    H100    0.991   .     S
N101   O102    1.302   .     A
N101   O327    1.301   1_545 S
O103   N213    1.301   .     S
N104   O106    1.302   .     A
N104   O217    1.301   .     S
O105   N328    1.301   1_545 S
N107   O109    1.302   .     A
N107   O108    1.300   .     A
N107   N431    1.384   .     S
N110   O111    1.301   .     A
N110   O112    1.302   .     A
N110   N768    1.384   1_554 S
O113   C117    1.297   .     A
O113   Cu125   1.949   .     S
O114   C118    1.297   .     A
O114   Cu126   1.949   .     S
O115   Cu126   1.947   .     S
O115   C117    1.295   .     A
O116   Cu125   1.947   .     S
O116   C118    1.295   .     A
C117   C147    1.428   .     S
C118   C148    1.428   .     S
O119   Cu125   1.960   .     S
O119   C123    1.301   .     A
O120   C124    1.301   .     A
O120   Cu126   1.960   .     S
O121   C123    1.297   .     A
O121   Cu126   1.946   .     S
O122   C124    1.297   .     A
O122   Cu125   1.946   .     S
C123   C130    1.443   .     S
C124   C129    1.443   .     S
Cu125  Cu126   2.711   .     S
Cu125  N152    2.037   .     S
Cu126  N151    2.037   .     S
C127   H143    1.086   .     S
C127   C137    1.387   .     A
C127   C129    1.390   .     A
C128   C130    1.390   .     A
C128   C138    1.387   .     A
C128   H144    1.086   .     S
C129   C131    1.401   .     A
C130   C132    1.401   .     A
C131   C133    1.418   .     A
C131   O153    1.380   .     S
C132   O155    1.380   .     S
C132   C134    1.418   .     A
C133   C139    1.421   .     A
C133   C135    1.425   .     A
C134   C140    1.421   .     A
C134   C136    1.425   .     A
C135   C137    1.410   .     A
C135   C192    1.405   .     S
C136   C138    1.410   .     A
C136   C191    1.405   1_455 S
C137   C142    1.396   .     A
C138   C141    1.396   .     A
C139   N157    1.438   .     S
C139   C197    1.396   .     S
C140   N160    1.438   .     S
C140   C198    1.396   1_455 S
C141   H145    1.084   .     S
C141   C195    1.396   1_455 S
C142   H146    1.084   .     S
C142   C196    1.396   .     S
C148   C259    1.331   .     S
C148   H262    1.088   .     S
H149   C259    1.088   .     S
N151   N824    1.296   1_554 S
N151   N835    1.384   1_554 S
N152   N487    1.296   .     S
N152   N502    1.384   .     S
O153   H154    0.991   .     S
O155   H156    0.991   .     S
N157   O158    1.302   .     A
O159   N269    1.301   .     S
N160   O162    1.302   .     A
N160   O273    1.301   .     S
N163   O165    1.302   .     A
N163   O164    1.300   .     A
N163   N487    1.384   .     S
N166   O167    1.301   .     A
N166   O168    1.302   .     A
N166   N824    1.384   1_554 S
O169   C173    1.297   .     A
O169   Cu181   1.949   .     S
O170   C174    1.297   .     A
O170   Cu182   1.949   .     S
O171   Cu182   1.947   .     S
O171   C173    1.295   .     A
O172   Cu181   1.947   .     S
O172   C174    1.295   .     A
C173   C203    1.428   .     S
C174   C204    1.428   .     S
O175   Cu181   1.960   .     S
O175   C179    1.301   .     A
O176   C180    1.301   .     A
O176   Cu182   1.960   .     S
O177   C179    1.297   .     A
O177   Cu182   1.946   .     S
O178   C180    1.297   .     A
O178   Cu181   1.946   .     S
C179   C186    1.443   .     S
C180   C185    1.443   .     S
Cu181  Cu182   2.711   .     S
Cu181  N208    2.037   .     S
Cu182  N207    2.037   .     S
C183   H199    1.086   .     S
C183   C193    1.387   .     A
C183   C185    1.390   .     A
C184   C186    1.390   .     A
C184   C194    1.387   .     A
C184   H200    1.086   .     S
C185   C187    1.401   .     A
C186   C188    1.401   .     A
C187   C189    1.418   .     A
C187   O209    1.380   .     S
C188   O211    1.380   .     S
C188   C190    1.418   .     A
C189   C195    1.421   .     A
C189   C191    1.425   .     A
C190   C196    1.421   .     A
C190   C192    1.425   .     A
C191   C193    1.410   .     A
C191   C136    1.405   1_655 S
C192   C194    1.410   .     A
C193   C198    1.396   .     A
C194   C197    1.396   .     A
C195   N213    1.438   .     S
C195   C141    1.396   1_655 S
C196   N216    1.438   .     S
C197   H201    1.084   .     S
C198   H202    1.084   .     S
C198   C140    1.396   1_655 S
C204   C315    1.331   .     S
C204   H318    1.088   .     S
H205   C315    1.088   .     S
N207   N880    1.296   1_554 S
N207   N891    1.384   1_554 S
N208   N543    1.296   .     S
N208   N558    1.384   .     S
O209   H210    0.991   .     S
O211   H212    0.991   .     S
N213   O214    1.302   .     A
O215   N325    1.301   .     S
N216   O218    1.302   .     A
N216   O329    1.301   .     S
N219   O221    1.302   .     A
N219   O220    1.300   .     A
N219   N543    1.384   .     S
N222   O223    1.301   .     A
N222   O224    1.302   .     A
N222   N880    1.384   1_554 S
O225   C229    1.297   .     A
O225   Cu237   1.949   .     S
O226   C230    1.297   .     A
O226   Cu238   1.949   .     S
O227   Cu238   1.947   .     S
O227   C229    1.295   .     A
O228   Cu237   1.947   .     S
O228   C230    1.295   .     A
C229   C259    1.428   .     S
C230   C260    1.428   .     S
O231   Cu237   1.960   .     S
O231   C235    1.301   .     A
O232   C236    1.301   .     A
O232   Cu238   1.960   .     S
O233   C235    1.297   .     A
O233   Cu238   1.946   .     S
O234   C236    1.297   .     A
O234   Cu237   1.946   .     S
C235   C242    1.443   .     S
C236   C241    1.443   .     S
Cu237  Cu238   2.711   .     S
Cu237  N264    2.037   .     S
Cu238  N263    2.037   .     S
C239   H255    1.086   .     S
C239   C249    1.387   .     A
C239   C241    1.390   .     A
C240   C242    1.390   .     A
C240   C250    1.387   .     A
C240   H256    1.086   .     S
C241   C243    1.401   .     A
C242   C244    1.401   .     A
C243   C245    1.418   .     A
C243   O265    1.380   .     S
C244   O267    1.380   .     S
C244   C246    1.418   .     A
C245   C251    1.421   .     A
C245   C247    1.425   .     A
C246   C252    1.421   .     A
C246   C248    1.425   .     A
C247   C249    1.410   .     A
C247   C304    1.405   .     S
C248   C250    1.410   .     A
C248   C303    1.405   1_455 S
C249   C254    1.396   .     A
C250   C253    1.396   .     A
C251   N269    1.438   .     S
C251   C309    1.396   .     S
C252   N272    1.438   .     S
C252   C310    1.396   1_455 S
C253   H257    1.084   .     S
C253   C307    1.396   1_455 S
C254   H258    1.084   .     S
C254   C308    1.396   .     S
C260   C35     1.331   1_565 S
C260   H38     1.088   1_565 S
H261   C35     1.088   1_565 S
N263   N936    1.296   1_554 S
N263   N947    1.384   1_554 S
N264   N599    1.296   .     S
N264   N614    1.384   .     S
O265   H266    0.991   .     S
O267   H268    0.991   .     S
N269   O270    1.302   .     A
O271   N45     1.301   1_565 S
N272   O274    1.302   .     A
N272   O49     1.301   1_565 S
N275   O277    1.302   .     A
N275   O276    1.300   .     A
N275   N599    1.384   .     S
N278   O279    1.301   .     A
N278   O280    1.302   .     A
N278   N936    1.384   1_554 S
O281   C285    1.297   .     A
O281   Cu293   1.949   .     S
O282   C286    1.297   .     A
O282   Cu294   1.949   .     S
O283   Cu294   1.947   .     S
O283   C285    1.295   .     A
O284   Cu293   1.947   .     S
O284   C286    1.295   .     A
C285   C315    1.428   .     S
C286   C316    1.428   .     S
O287   Cu293   1.960   .     S
O287   C291    1.301   .     A
O288   C292    1.301   .     A
O288   Cu294   1.960   .     S
O289   C291    1.297   .     A
O289   Cu294   1.946   .     S
O290   C292    1.297   .     A
O290   Cu293   1.946   .     S
C291   C298    1.443   .     S
C292   C297    1.443   .     S
Cu293  Cu294   2.711   .     S
Cu293  N320    2.037   .     S
Cu294  N319    2.037   .     S
C295   H311    1.086   .     S
C295   C305    1.387   .     A
C295   C297    1.390   .     A
C296   C298    1.390   .     A
C296   C306    1.387   .     A
C296   H312    1.086   .     S
C297   C299    1.401   .     A
C298   C300    1.401   .     A
C299   C301    1.418   .     A
C299   O321    1.380   .     S
C300   O323    1.380   .     S
C300   C302    1.418   .     A
C301   C307    1.421   .     A
C301   C303    1.425   .     A
C302   C308    1.421   .     A
C302   C304    1.425   .     A
C303   C305    1.410   .     A
C303   C248    1.405   1_655 S
C304   C306    1.410   .     A
C305   C310    1.396   .     A
C306   C309    1.396   .     A
C307   N325    1.438   .     S
C307   C253    1.396   1_655 S
C308   N328    1.438   .     S
C309   H313    1.084   .     S
C310   H314    1.084   .     S
C310   C252    1.396   1_655 S
C316   C91     1.331   1_565 S
C316   H94     1.088   1_565 S
H317   C91     1.088   1_565 S
N319   N992    1.296   1_554 S
N319   N1003   1.384   1_554 S
N320   N655    1.296   .     S
N320   N670    1.384   .     S
O321   H322    0.991   .     S
O323   H324    0.991   .     S
N325   O326    1.302   .     A
O327   N101    1.301   1_565 S
N328   O330    1.302   .     A
N328   O105    1.301   1_565 S
N331   O333    1.302   .     A
N331   O332    1.300   .     A
N331   N655    1.384   .     S
N334   O335    1.301   .     A
N334   O336    1.302   .     A
N334   N992    1.384   1_554 S
O337   C341    1.297   .     A
O337   Cu349   1.949   .     S
O338   C342    1.297   .     A
O338   Cu350   1.949   .     S
O339   Cu350   1.947   .     S
O339   C341    1.295   .     A
O340   Cu349   1.947   .     S
O340   C342    1.295   .     A
C341   C371    1.428   .     S
C342   C372    1.428   .     S
O343   Cu349   1.960   .     S
O343   C347    1.301   .     A
O344   C348    1.301   .     A
O344   Cu350   1.960   .     S
O345   C347    1.297   .     A
O345   Cu350   1.946   .     S
O346   C348    1.297   .     A
O346   Cu349   1.946   .     S
C347   C354    1.443   .     S
C348   C353    1.443   .     S
Cu349  Cu350   2.711   .     S
Cu349  N376    2.037   .     S
Cu350  N375    2.037   .     S
C351   H367    1.086   .     S
C351   C361    1.387   .     A
C351   C353    1.390   .     A
C352   C354    1.390   .     A
C352   C362    1.387   .     A
C352   H368    1.086   .     S
C353   C355    1.401   .     A
C354   C356    1.401   .     A
C355   C357    1.418   .     A
C355   O377    1.380   .     S
C356   O379    1.380   .     S
C356   C358    1.418   .     A
C357   C363    1.421   .     A
C357   C359    1.425   .     A
C358   C364    1.421   .     A
C358   C360    1.425   .     A
C359   C361    1.410   .     A
C359   C416    1.405   .     S
C360   C362    1.410   .     A
C360   C415    1.405   1_455 S
C361   C366    1.396   .     A
C362   C365    1.396   .     A
C363   N381    1.438   .     S
C363   C421    1.396   .     S
C364   N384    1.438   .     S
C364   C422    1.396   1_455 S
C365   H369    1.084   .     S
C365   C419    1.396   1_455 S
C366   H370    1.084   .     S
C366   C420    1.396   .     S
C371   C596    1.331   1_545 S
C371   H597    1.088   1_545 S
C372   C483    1.331   .     S
C372   H486    1.088   .     S
H373   C483    1.088   .     S
H374   C596    1.088   1_545 S
N376   N711    1.296   .     S
N376   N726    1.384   .     S
O377   H378    0.991   .     S
O379   H380    0.991   .     S
N381   O382    1.302   .     A
N381   O607    1.301   1_545 S
O383   N493    1.301   .     S
N384   O386    1.302   .     A
N384   O497    1.301   .     S
O385   N608    1.301   1_545 S
N387   O389    1.302   .     A
N387   O388    1.300   .     A
N387   N711    1.384   .     S
N390   O391    1.301   .     A
N390   O392    1.302   .     A
O393   C397    1.297   .     A
O393   Cu405   1.949   .     S
O394   C398    1.297   .     A
O394   Cu406   1.949   .     S
O395   Cu406   1.947   .     S
O395   C397    1.295   .     A
O396   Cu405   1.947   .     S
O396   C398    1.295   .     A
C397   C427    1.428   .     S
C398   C428    1.428   .     S
O399   Cu405   1.960   .     S
O399   C403    1.301   .     A
O400   C404    1.301   .     A
O400   Cu406   1.960   .     S
O401   C403    1.297   .     A
O401   Cu406   1.946   .     S
O402   C404    1.297   .     A
O402   Cu405   1.946   .     S
C403   C410    1.443   .     S
C404   C409    1.443   .     S
Cu405  Cu406   2.711   .     S
Cu405  N432    2.037   .     S
Cu406  N431    2.037   .     S
C407   H423    1.086   .     S
C407   C417    1.387   .     A
C407   C409    1.390   .     A
C408   C410    1.390   .     A
C408   C418    1.387   .     A
C408   H424    1.086   .     S
C409   C411    1.401   .     A
C410   C412    1.401   .     A
C411   C413    1.418   .     A
C411   O433    1.380   .     S
C412   O435    1.380   .     S
C412   C414    1.418   .     A
C413   C419    1.421   .     A
C413   C415    1.425   .     A
C414   C420    1.421   .     A
C414   C416    1.425   .     A
C415   C417    1.410   .     A
C415   C360    1.405   1_655 S
C416   C418    1.410   .     A
C417   C422    1.396   .     A
C418   C421    1.396   .     A
C419   N437    1.438   .     S
C419   C365    1.396   1_655 S
C420   N440    1.438   .     S
C421   H425    1.084   .     S
C422   H426    1.084   .     S
C422   C364    1.396   1_655 S
C427   C652    1.331   1_545 S
C427   H653    1.088   1_545 S
C428   C539    1.331   .     S
C428   H542    1.088   .     S
H429   C539    1.088   .     S
H430   C652    1.088   1_545 S
N432   N767    1.296   .     S
N432   N782    1.384   .     S
O433   H434    0.991   .     S
O435   H436    0.991   .     S
N437   O438    1.302   .     A
N437   O663    1.301   1_545 S
O439   N549    1.301   .     S
N440   O442    1.302   .     A
N440   O553    1.301   .     S
O441   N664    1.301   1_545 S
N443   O445    1.302   .     A
N443   O444    1.300   .     A
N443   N767    1.384   .     S
N446   O447    1.301   .     A
N446   O448    1.302   .     A
O449   C453    1.297   .     A
O449   Cu461   1.949   .     S
O450   C454    1.297   .     A
O450   Cu462   1.949   .     S
O451   Cu462   1.947   .     S
O451   C453    1.295   .     A
O452   Cu461   1.947   .     S
O452   C454    1.295   .     A
C453   C483    1.428   .     S
C454   C484    1.428   .     S
O455   Cu461   1.960   .     S
O455   C459    1.301   .     A
O456   C460    1.301   .     A
O456   Cu462   1.960   .     S
O457   C459    1.297   .     A
O457   Cu462   1.946   .     S
O458   C460    1.297   .     A
O458   Cu461   1.946   .     S
C459   C466    1.443   .     S
C460   C465    1.443   .     S
Cu461  Cu462   2.711   .     S
Cu461  N488    2.037   .     S
Cu462  N487    2.037   .     S
C463   H479    1.086   .     S
C463   C473    1.387   .     A
C463   C465    1.390   .     A
C464   C466    1.390   .     A
C464   C474    1.387   .     A
C464   H480    1.086   .     S
C465   C467    1.401   .     A
C466   C468    1.401   .     A
C467   C469    1.418   .     A
C467   O489    1.380   .     S
C468   O491    1.380   .     S
C468   C470    1.418   .     A
C469   C475    1.421   .     A
C469   C471    1.425   .     A
C470   C476    1.421   .     A
C470   C472    1.425   .     A
C471   C473    1.410   .     A
C471   C528    1.405   .     S
C472   C474    1.410   .     A
C472   C527    1.405   1_455 S
C473   C478    1.396   .     A
C474   C477    1.396   .     A
C475   N493    1.438   .     S
C475   C533    1.396   .     S
C476   N496    1.438   .     S
C476   C534    1.396   1_455 S
C477   H481    1.084   .     S
C477   C531    1.396   1_455 S
C478   H482    1.084   .     S
C478   C532    1.396   .     S
C484   C595    1.331   .     S
C484   H598    1.088   .     S
H485   C595    1.088   .     S
N488   N823    1.296   .     S
N488   N838    1.384   .     S
O489   H490    0.991   .     S
O491   H492    0.991   .     S
N493   O494    1.302   .     A
O495   N605    1.301   .     S
N496   O498    1.302   .     A
N496   O609    1.301   .     S
N499   O501    1.302   .     A
N499   O500    1.300   .     A
N499   N823    1.384   .     S
N502   O503    1.301   .     A
N502   O504    1.302   .     A
O505   C509    1.297   .     A
O505   Cu517   1.949   .     S
O506   C510    1.297   .     A
O506   Cu518   1.949   .     S
O507   Cu518   1.947   .     S
O507   C509    1.295   .     A
O508   Cu517   1.947   .     S
O508   C510    1.295   .     A
C509   C539    1.428   .     S
C510   C540    1.428   .     S
O511   Cu517   1.960   .     S
O511   C515    1.301   .     A
O512   C516    1.301   .     A
O512   Cu518   1.960   .     S
O513   C515    1.297   .     A
O513   Cu518   1.946   .     S
O514   C516    1.297   .     A
O514   Cu517   1.946   .     S
C515   C522    1.443   .     S
C516   C521    1.443   .     S
Cu517  Cu518   2.711   .     S
Cu517  N544    2.037   .     S
Cu518  N543    2.037   .     S
C519   H535    1.086   .     S
C519   C529    1.387   .     A
C519   C521    1.390   .     A
C520   C522    1.390   .     A
C520   C530    1.387   .     A
C520   H536    1.086   .     S
C521   C523    1.401   .     A
C522   C524    1.401   .     A
C523   C525    1.418   .     A
C523   O545    1.380   .     S
C524   O547    1.380   .     S
C524   C526    1.418   .     A
C525   C531    1.421   .     A
C525   C527    1.425   .     A
C526   C532    1.421   .     A
C526   C528    1.425   .     A
C527   C529    1.410   .     A
C527   C472    1.405   1_655 S
C528   C530    1.410   .     A
C529   C534    1.396   .     A
C530   C533    1.396   .     A
C531   N549    1.438   .     S
C531   C477    1.396   1_655 S
C532   N552    1.438   .     S
C533   H537    1.084   .     S
C534   H538    1.084   .     S
C534   C476    1.396   1_655 S
C540   C651    1.331   .     S
C540   H654    1.088   .     S
H541   C651    1.088   .     S
N544   N879    1.296   .     S
N544   N894    1.384   .     S
O545   H546    0.991   .     S
O547   H548    0.991   .     S
N549   O550    1.302   .     A
O551   N661    1.301   .     S
N552   O554    1.302   .     A
N552   O665    1.301   .     S
N555   O557    1.302   .     A
N555   O556    1.300   .     A
N555   N879    1.384   .     S
N558   O559    1.301   .     A
N558   O560    1.302   .     A
O561   C565    1.297   .     A
O561   Cu573   1.949   .     S
O562   C566    1.297   .     A
O562   Cu574   1.949   .     S
O563   Cu574   1.947   .     S
O563   C565    1.295   .     A
O564   Cu573   1.947   .     S
O564   C566    1.295   .     A
C565   C595    1.428   .     S
C566   C596    1.428   .     S
O567   Cu573   1.960   .     S
O567   C571    1.301   .     A
O568   C572    1.301   .     A
O568   Cu574   1.960   .     S
O569   C571    1.297   .     A
O569   Cu574   1.946   .     S
O570   C572    1.297   .     A
O570   Cu573   1.946   .     S
C571   C578    1.443   .     S
C572   C577    1.443   .     S
Cu573  Cu574   2.711   .     S
Cu573  N600    2.037   .     S
Cu574  N599    2.037   .     S
C575   H591    1.086   .     S
C575   C585    1.387   .     A
C575   C577    1.390   .     A
C576   C578    1.390   .     A
C576   C586    1.387   .     A
C576   H592    1.086   .     S
C577   C579    1.401   .     A
C578   C580    1.401   .     A
C579   C581    1.418   .     A
C579   O601    1.380   .     S
C580   O603    1.380   .     S
C580   C582    1.418   .     A
C581   C587    1.421   .     A
C581   C583    1.425   .     A
C582   C588    1.421   .     A
C582   C584    1.425   .     A
C583   C585    1.410   .     A
C583   C640    1.405   .     S
C584   C586    1.410   .     A
C584   C639    1.405   1_455 S
C585   C590    1.396   .     A
C586   C589    1.396   .     A
C587   N605    1.438   .     S
C587   C645    1.396   .     S
C588   N608    1.438   .     S
C588   C646    1.396   1_455 S
C589   H593    1.084   .     S
C589   C643    1.396   1_455 S
C590   H594    1.084   .     S
C590   C644    1.396   .     S
C596   C371    1.331   1_565 S
C596   H374    1.088   1_565 S
H597   C371    1.088   1_565 S
N600   N935    1.296   .     S
N600   N950    1.384   .     S
O601   H602    0.991   .     S
O603   H604    0.991   .     S
N605   O606    1.302   .     A
O607   N381    1.301   1_565 S
N608   O610    1.302   .     A
N608   O385    1.301   1_565 S
N611   O613    1.302   .     A
N611   O612    1.300   .     A
N611   N935    1.384   .     S
N614   O615    1.301   .     A
N614   O616    1.302   .     A
O617   C621    1.297   .     A
O617   Cu629   1.949   .     S
O618   C622    1.297   .     A
O618   Cu630   1.949   .     S
O619   Cu630   1.947   .     S
O619   C621    1.295   .     A
O620   Cu629   1.947   .     S
O620   C622    1.295   .     A
C621   C651    1.428   .     S
C622   C652    1.428   .     S
O623   Cu629   1.960   .     S
O623   C627    1.301   .     A
O624   C628    1.301   .     A
O624   Cu630   1.960   .     S
O625   C627    1.297   .     A
O625   Cu630   1.946   .     S
O626   C628    1.297   .     A
O626   Cu629   1.946   .     S
C627   C634    1.443   .     S
C628   C633    1.443   .     S
Cu629  Cu630   2.711   .     S
Cu629  N656    2.037   .     S
Cu630  N655    2.037   .     S
C631   H647    1.086   .     S
C631   C641    1.387   .     A
C631   C633    1.390   .     A
C632   C634    1.390   .     A
C632   C642    1.387   .     A
C632   H648    1.086   .     S
C633   C635    1.401   .     A
C634   C636    1.401   .     A
C635   C637    1.418   .     A
C635   O657    1.380   .     S
C636   O659    1.380   .     S
C636   C638    1.418   .     A
C637   C643    1.421   .     A
C637   C639    1.425   .     A
C638   C644    1.421   .     A
C638   C640    1.425   .     A
C639   C641    1.410   .     A
C639   C584    1.405   1_655 S
C640   C642    1.410   .     A
C641   C646    1.396   .     A
C642   C645    1.396   .     A
C643   N661    1.438   .     S
C643   C589    1.396   1_655 S
C644   N664    1.438   .     S
C645   H649    1.084   .     S
C646   H650    1.084   .     S
C646   C588    1.396   1_655 S
C652   C427    1.331   1_565 S
C652   H430    1.088   1_565 S
H653   C427    1.088   1_565 S
N656   N991    1.296   .     S
N656   N1006   1.384   .     S
O657   H658    0.991   .     S
O659   H660    0.991   .     S
N661   O662    1.302   .     A
O663   N437    1.301   1_565 S
N664   O666    1.302   .     A
N664   O441    1.301   1_565 S
N667   O669    1.302   .     A
N667   O668    1.300   .     A
N667   N991    1.384   .     S
N670   O671    1.301   .     A
N670   O672    1.302   .     A
O673   C677    1.297   .     A
O673   Cu685   1.949   .     S
O674   C678    1.297   .     A
O674   Cu686   1.949   .     S
O675   Cu686   1.947   .     S
O675   C677    1.295   .     A
O676   Cu685   1.947   .     S
O676   C678    1.295   .     A
C677   C707    1.428   .     S
C678   C708    1.428   .     S
O679   Cu685   1.960   .     S
O679   C683    1.301   .     A
O680   C684    1.301   .     A
O680   Cu686   1.960   .     S
O681   C683    1.297   .     A
O681   Cu686   1.946   .     S
O682   C684    1.297   .     A
O682   Cu685   1.946   .     S
C683   C690    1.443   .     S
C684   C689    1.443   .     S
Cu685  Cu686   2.711   .     S
Cu685  N712    2.037   .     S
Cu686  N711    2.037   .     S
C687   H703    1.086   .     S
C687   C697    1.387   .     A
C687   C689    1.390   .     A
C688   C690    1.390   .     A
C688   C698    1.387   .     A
C688   H704    1.086   .     S
C689   C691    1.401   .     A
C690   C692    1.401   .     A
C691   C693    1.418   .     A
C691   O713    1.380   .     S
C692   O715    1.380   .     S
C692   C694    1.418   .     A
C693   C699    1.421   .     A
C693   C695    1.425   .     A
C694   C700    1.421   .     A
C694   C696    1.425   .     A
C695   C697    1.410   .     A
C695   C752    1.405   .     S
C696   C698    1.410   .     A
C696   C751    1.405   1_455 S
C697   C702    1.396   .     A
C698   C701    1.396   .     A
C699   N717    1.438   .     S
C699   C757    1.396   .     S
C700   N720    1.438   .     S
C700   C758    1.396   1_455 S
C701   H705    1.084   .     S
C701   C755    1.396   1_455 S
C702   H706    1.084   .     S
C702   C756    1.396   .     S
C707   C932    1.331   1_545 S
C707   H933    1.088   1_545 S
C708   C819    1.331   .     S
C708   H822    1.088   .     S
H709   C819    1.088   .     S
H710   C932    1.088   1_545 S
N712   N39     1.296   1_556 S
N712   N54     1.384   1_556 S
O713   H714    0.991   .     S
O715   H716    0.991   .     S
N717   O718    1.302   .     A
N717   O943    1.301   1_545 S
O719   N829    1.301   .     S
N720   O722    1.302   .     A
N720   O833    1.301   .     S
O721   N944    1.301   1_545 S
N723   O725    1.302   .     A
N723   O724    1.300   .     A
N723   N39     1.384   1_556 S
N726   O727    1.301   .     A
N726   O728    1.302   .     A
O729   C733    1.297   .     A
O729   Cu741   1.949   .     S
O730   C734    1.297   .     A
O730   Cu742   1.949   .     S
O731   Cu742   1.947   .     S
O731   C733    1.295   .     A
O732   Cu741   1.947   .     S
O732   C734    1.295   .     A
C733   C763    1.428   .     S
C734   C764    1.428   .     S
O735   Cu741   1.960   .     S
O735   C739    1.301   .     A
O736   C740    1.301   .     A
O736   Cu742   1.960   .     S
O737   C739    1.297   .     A
O737   Cu742   1.946   .     S
O738   C740    1.297   .     A
O738   Cu741   1.946   .     S
C739   C746    1.443   .     S
C740   C745    1.443   .     S
Cu741  Cu742   2.711   .     S
Cu741  N768    2.037   .     S
Cu742  N767    2.037   .     S
C743   H759    1.086   .     S
C743   C753    1.387   .     A
C743   C745    1.390   .     A
C744   C746    1.390   .     A
C744   C754    1.387   .     A
C744   H760    1.086   .     S
C745   C747    1.401   .     A
C746   C748    1.401   .     A
C747   C749    1.418   .     A
C747   O769    1.380   .     S
C748   O771    1.380   .     S
C748   C750    1.418   .     A
C749   C755    1.421   .     A
C749   C751    1.425   .     A
C750   C756    1.421   .     A
C750   C752    1.425   .     A
C751   C753    1.410   .     A
C751   C696    1.405   1_655 S
C752   C754    1.410   .     A
C753   C758    1.396   .     A
C754   C757    1.396   .     A
C755   N773    1.438   .     S
C755   C701    1.396   1_655 S
C756   N776    1.438   .     S
C757   H761    1.084   .     S
C758   H762    1.084   .     S
C758   C700    1.396   1_655 S
C763   C988    1.331   1_545 S
C763   H989    1.088   1_545 S
C764   C875    1.331   .     S
C764   H878    1.088   .     S
H765   C875    1.088   .     S
H766   C988    1.088   1_545 S
N768   N95     1.296   1_556 S
N768   N110    1.384   1_556 S
O769   H770    0.991   .     S
O771   H772    0.991   .     S
N773   O774    1.302   .     A
N773   O999    1.301   1_545 S
O775   N885    1.301   .     S
N776   O778    1.302   .     A
N776   O889    1.301   .     S
O777   N1000   1.301   1_545 S
N779   O781    1.302   .     A
N779   O780    1.300   .     A
N779   N95     1.384   1_556 S
N782   O783    1.301   .     A
N782   O784    1.302   .     A
O785   C789    1.297   .     A
O785   Cu797   1.949   .     S
O786   C790    1.297   .     A
O786   Cu798   1.949   .     S
O787   Cu798   1.947   .     S
O787   C789    1.295   .     A
O788   Cu797   1.947   .     S
O788   C790    1.295   .     A
C789   C819    1.428   .     S
C790   C820    1.428   .     S
O791   Cu797   1.960   .     S
O791   C795    1.301   .     A
O792   C796    1.301   .     A
O792   Cu798   1.960   .     S
O793   C795    1.297   .     A
O793   Cu798   1.946   .     S
O794   C796    1.297   .     A
O794   Cu797   1.946   .     S
C795   C802    1.443   .     S
C796   C801    1.443   .     S
Cu797  Cu798   2.711   .     S
Cu797  N824    2.037   .     S
Cu798  N823    2.037   .     S
C799   H815    1.086   .     S
C799   C809    1.387   .     A
C799   C801    1.390   .     A
C800   C802    1.390   .     A
C800   C810    1.387   .     A
C800   H816    1.086   .     S
C801   C803    1.401   .     A
C802   C804    1.401   .     A
C803   C805    1.418   .     A
C803   O825    1.380   .     S
C804   O827    1.380   .     S
C804   C806    1.418   .     A
C805   C811    1.421   .     A
C805   C807    1.425   .     A
C806   C812    1.421   .     A
C806   C808    1.425   .     A
C807   C809    1.410   .     A
C807   C864    1.405   .     S
C808   C810    1.410   .     A
C808   C863    1.405   1_455 S
C809   C814    1.396   .     A
C810   C813    1.396   .     A
C811   N829    1.438   .     S
C811   C869    1.396   .     S
C812   N832    1.438   .     S
C812   C870    1.396   1_455 S
C813   H817    1.084   .     S
C813   C867    1.396   1_455 S
C814   H818    1.084   .     S
C814   C868    1.396   .     S
C820   C931    1.331   .     S
C820   H934    1.088   .     S
H821   C931    1.088   .     S
N824   N151    1.296   1_556 S
N824   N166    1.384   1_556 S
O825   H826    0.991   .     S
O827   H828    0.991   .     S
N829   O830    1.302   .     A
O831   N941    1.301   .     S
N832   O834    1.302   .     A
N832   O945    1.301   .     S
N835   O837    1.302   .     A
N835   O836    1.300   .     A
N835   N151    1.384   1_556 S
N838   O839    1.301   .     A
N838   O840    1.302   .     A
O841   C845    1.297   .     A
O841   Cu853   1.949   .     S
O842   C846    1.297   .     A
O842   Cu854   1.949   .     S
O843   Cu854   1.947   .     S
O843   C845    1.295   .     A
O844   Cu853   1.947   .     S
O844   C846    1.295   .     A
C845   C875    1.428   .     S
C846   C876    1.428   .     S
O847   Cu853   1.960   .     S
O847   C851    1.301   .     A
O848   C852    1.301   .     A
O848   Cu854   1.960   .     S
O849   C851    1.297   .     A
O849   Cu854   1.946   .     S
O850   C852    1.297   .     A
O850   Cu853   1.946   .     S
C851   C858    1.443   .     S
C852   C857    1.443   .     S
Cu853  Cu854   2.711   .     S
Cu853  N880    2.037   .     S
Cu854  N879    2.037   .     S
C855   H871    1.086   .     S
C855   C865    1.387   .     A
C855   C857    1.390   .     A
C856   C858    1.390   .     A
C856   C866    1.387   .     A
C856   H872    1.086   .     S
C857   C859    1.401   .     A
C858   C860    1.401   .     A
C859   C861    1.418   .     A
C859   O881    1.380   .     S
C860   O883    1.380   .     S
C860   C862    1.418   .     A
C861   C867    1.421   .     A
C861   C863    1.425   .     A
C862   C868    1.421   .     A
C862   C864    1.425   .     A
C863   C865    1.410   .     A
C863   C808    1.405   1_655 S
C864   C866    1.410   .     A
C865   C870    1.396   .     A
C866   C869    1.396   .     A
C867   N885    1.438   .     S
C867   C813    1.396   1_655 S
C868   N888    1.438   .     S
C869   H873    1.084   .     S
C870   H874    1.084   .     S
C870   C812    1.396   1_655 S
C876   C987    1.331   .     S
C876   H990    1.088   .     S
H877   C987    1.088   .     S
N880   N207    1.296   1_556 S
N880   N222    1.384   1_556 S
O881   H882    0.991   .     S
O883   H884    0.991   .     S
N885   O886    1.302   .     A
O887   N997    1.301   .     S
N888   O890    1.302   .     A
N888   O1001   1.301   .     S
N891   O893    1.302   .     A
N891   O892    1.300   .     A
N891   N207    1.384   1_556 S
N894   O895    1.301   .     A
N894   O896    1.302   .     A
O897   C901    1.297   .     A
O897   Cu909   1.949   .     S
O898   C902    1.297   .     A
O898   Cu910   1.949   .     S
O899   Cu910   1.947   .     S
O899   C901    1.295   .     A
O900   Cu909   1.947   .     S
O900   C902    1.295   .     A
C901   C931    1.428   .     S
C902   C932    1.428   .     S
O903   Cu909   1.960   .     S
O903   C907    1.301   .     A
O904   C908    1.301   .     A
O904   Cu910   1.960   .     S
O905   C907    1.297   .     A
O905   Cu910   1.946   .     S
O906   C908    1.297   .     A
O906   Cu909   1.946   .     S
C907   C914    1.443   .     S
C908   C913    1.443   .     S
Cu909  Cu910   2.711   .     S
Cu909  N936    2.037   .     S
Cu910  N935    2.037   .     S
C911   H927    1.086   .     S
C911   C921    1.387   .     A
C911   C913    1.390   .     A
C912   C914    1.390   .     A
C912   C922    1.387   .     A
C912   H928    1.086   .     S
C913   C915    1.401   .     A
C914   C916    1.401   .     A
C915   C917    1.418   .     A
C915   O937    1.380   .     S
C916   O939    1.380   .     S
C916   C918    1.418   .     A
C917   C923    1.421   .     A
C917   C919    1.425   .     A
C918   C924    1.421   .     A
C918   C920    1.425   .     A
C919   C921    1.410   .     A
C919   C976    1.405   .     S
C920   C922    1.410   .     A
C920   C975    1.405   1_455 S
C921   C926    1.396   .     A
C922   C925    1.396   .     A
C923   N941    1.438   .     S
C923   C981    1.396   .     S
C924   N944    1.438   .     S
C924   C982    1.396   1_455 S
C925   H929    1.084   .     S
C925   C979    1.396   1_455 S
C926   H930    1.084   .     S
C926   C980    1.396   .     S
C932   C707    1.331   1_565 S
C932   H710    1.088   1_565 S
H933   C707    1.088   1_565 S
N936   N263    1.296   1_556 S
N936   N278    1.384   1_556 S
O937   H938    0.991   .     S
O939   H940    0.991   .     S
N941   O942    1.302   .     A
O943   N717    1.301   1_565 S
N944   O946    1.302   .     A
N944   O721    1.301   1_565 S
N947   O949    1.302   .     A
N947   O948    1.300   .     A
N947   N263    1.384   1_556 S
N950   O951    1.301   .     A
N950   O952    1.302   .     A
O953   C957    1.297   .     A
O953   Cu965   1.949   .     S
O954   C958    1.297   .     A
O954   Cu966   1.949   .     S
O955   Cu966   1.947   .     S
O955   C957    1.295   .     A
O956   Cu965   1.947   .     S
O956   C958    1.295   .     A
C957   C987    1.428   .     S
C958   C988    1.428   .     S
O959   Cu965   1.960   .     S
O959   C963    1.301   .     A
O960   C964    1.301   .     A
O960   Cu966   1.960   .     S
O961   C963    1.297   .     A
O961   Cu966   1.946   .     S
O962   C964    1.297   .     A
O962   Cu965   1.946   .     S
C963   C970    1.443   .     S
C964   C969    1.443   .     S
Cu965  Cu966   2.711   .     S
Cu965  N992    2.037   .     S
Cu966  N991    2.037   .     S
C967   H983    1.086   .     S
C967   C977    1.387   .     A
C967   C969    1.390   .     A
C968   C970    1.390   .     A
C968   C978    1.387   .     A
C968   H984    1.086   .     S
C969   C971    1.401   .     A
C970   C972    1.401   .     A
C971   C973    1.418   .     A
C971   O993    1.380   .     S
C972   O995    1.380   .     S
C972   C974    1.418   .     A
C973   C979    1.421   .     A
C973   C975    1.425   .     A
C974   C980    1.421   .     A
C974   C976    1.425   .     A
C975   C977    1.410   .     A
C975   C920    1.405   1_655 S
C976   C978    1.410   .     A
C977   C982    1.396   .     A
C978   C981    1.396   .     A
C979   N997    1.438   .     S
C979   C925    1.396   1_655 S
C980   N1000   1.438   .     S
C981   H985    1.084   .     S
C982   H986    1.084   .     S
C982   C924    1.396   1_655 S
C988   C763    1.331   1_565 S
C988   H766    1.088   1_565 S
H989   C763    1.088   1_565 S
N992   N319    1.296   1_556 S
N992   N334    1.384   1_556 S
O993   H994    0.991   .     S
O995   H996    0.991   .     S
N997   O998    1.302   .     A
O999   N773    1.301   1_565 S
N1000  O1002   1.302   .     A
N1000  O777    1.301   1_565 S
N1003  O1005   1.302   .     A
N1003  O1004   1.300   .     A
N1003  N319    1.384   1_556 S
N1006  O1007   1.301   .     A
N1006  O1008   1.302   .     A
