data_str_m2_o10_o18_pcu_sym.170
_audit_creation_date              2020-01-03
_audit_creation_method            'Materials Studio'
_symmetry_space_group_name_H-M    'P1'
_symmetry_Int_Tables_number       1
_symmetry_cell_setting            triclinic
loop_
_symmetry_equiv_pos_as_xyz
  x,y,z
_cell_length_a                    22.4216
_cell_length_b                    26.2940
_cell_length_c                    31.5876
_cell_angle_alpha                 95.2228
_cell_angle_beta                  75.2258
_cell_angle_gamma                 103.4167
loop_
_atom_site_label
_atom_site_type_symbol
_atom_site_fract_x
_atom_site_fract_y
_atom_site_fract_z
_atom_site_U_iso_or_equiv
_atom_site_adp_type
_atom_site_occupancy
C1     C     0.18132   0.26650   0.25173   0.00000  Uiso   1.00
C2     C     0.15200   0.06684   0.24829   0.00000  Uiso   1.00
C3     C     0.09728   0.12159   0.03660   0.00000  Uiso   1.00
C4     C     0.24202   0.19123   0.45909   0.00000  Uiso   1.00
C5     C     0.05450   0.10850   0.01041   0.00000  Uiso   1.00
C6     C     0.28515   0.20323   0.48505   0.00000  Uiso   1.00
C7     C     0.18664   0.32208   0.25691   0.00000  Uiso   1.00
C8     C     0.14666   0.01125   0.24313   0.00000  Uiso   1.00
C9     C     0.12817   0.16255   0.33302   0.00000  Uiso   1.00
C10    C     0.20513   0.17027   0.16692   0.00000  Uiso   1.00
C11    C     0.10490   0.15457   0.38021   0.00000  Uiso   1.00
C12    C     0.22844   0.17425   0.11924   0.00000  Uiso   1.00
C13    C     0.02709   0.11120   0.44137   0.00000  Uiso   1.00
C14    C     0.31064   0.20520   0.05533   0.00000  Uiso   1.00
C15    C     0.04407   0.12587   0.39789   0.00000  Uiso   1.00
C16    C     0.29167   0.19607   0.10004   0.00000  Uiso   1.00
C17    C     0.14760   0.17051   0.40670   0.00000  Uiso   1.00
C18    C     0.18514   0.15894   0.09306   0.00000  Uiso   1.00
C19    C     0.13299   0.15438   0.45004   0.00000  Uiso   1.00
C20    C     0.20311   0.16639   0.04771   0.00000  Uiso   1.00
C21    C     0.07121   0.12480   0.46746   0.00000  Uiso   1.00
C22    C     0.26659   0.19150   0.02920   0.00000  Uiso   1.00
C23    C     0.17816   0.16626   0.47621   0.00000  Uiso   1.00
C24    C     0.15918   0.15150   0.02073   0.00000  Uiso   1.00
Cu25   Cu    0.10737   0.16108   0.24517   0.00000  Uiso   1.00
Cu26   Cu    0.22596   0.17225   0.25484   0.00000  Uiso   1.00
H27    H     0.00778   0.08543   0.02416   0.00000  Uiso   1.00
H28    H     0.00019   0.22210   0.47023   0.00000  Uiso   1.00
H29    H     0.13684   0.14320   0.10935   0.00000  Uiso   1.00
H30    H     0.19244   0.19507   0.39214   0.00000  Uiso   1.00
H31    H     0.32582   0.20803   0.11985   0.00000  Uiso   1.00
H32    H     0.01050   0.11319   0.37771   0.00000  Uiso   1.00
H33    H     0.08053   0.10610   0.06892   0.00000  Uiso   1.00
H34    H     0.26124   0.20098   0.42526   0.00000  Uiso   1.00
N35    N     0.31506   0.18068   0.26212   0.00000  Uiso   1.00
N36    N     0.01827   0.15265   0.23788   0.00000  Uiso   1.00
O37    O     0.12815   0.23809   0.24686   0.00000  Uiso   1.00
O38    O     0.20518   0.09524   0.25314   0.00000  Uiso   1.00
O39    O     0.22829   0.24753   0.25503   0.00000  Uiso   1.00
O40    O     0.10504   0.08580   0.24498   0.00000  Uiso   1.00
O41    O     0.08851   0.15930   0.30855   0.00000  Uiso   1.00
O42    O     0.24482   0.17403   0.19146   0.00000  Uiso   1.00
O43    O     0.18866   0.16874   0.31671   0.00000  Uiso   1.00
O44    O     0.14468   0.16460   0.18329   0.00000  Uiso   1.00
F45    F     0.30133   0.08257   0.45758   0.00000  Uiso   1.00
F46    F     0.03841   0.22863   0.03784   0.00000  Uiso   1.00
N47    N     0.23240   0.01824   0.27967   0.00000  Uiso   1.00
H48    H     0.27733   0.01384   0.26212   0.00000  Uiso   1.00
H49    H     0.22315   0.00242   0.31048   0.00000  Uiso   1.00
N50    N     0.10088   0.31510   0.22039   0.00000  Uiso   1.00
H51    H     0.05595   0.31947   0.23797   0.00000  Uiso   1.00
H52    H     0.11009   0.33092   0.18959   0.00000  Uiso   1.00
N53    N     0.00343   0.20937   0.29626   0.00000  Uiso   1.00
H54    H     0.30588   0.19460   0.32537   0.00000  Uiso   1.00
H55    H     0.33196   0.24763   0.29448   0.00000  Uiso   1.00
N56    N     0.32985   0.12389   0.20379   0.00000  Uiso   1.00
H57    H     0.02745   0.13849   0.17465   0.00000  Uiso   1.00
H58    H     0.00114   0.08560   0.20570   0.00000  Uiso   1.00
C59    C     0.51466   0.26650   0.25173   0.00000  Uiso   1.00
C60    C     0.48533   0.06684   0.24829   0.00000  Uiso   1.00
C61    C     0.43062   0.12159   0.03660   0.00000  Uiso   1.00
C62    C     0.57535   0.19123   0.45909   0.00000  Uiso   1.00
C63    C     0.38783   0.10850   0.01041   0.00000  Uiso   1.00
C64    C     0.61848   0.20323   0.48505   0.00000  Uiso   1.00
C65    C     0.51998   0.32208   0.25691   0.00000  Uiso   1.00
C66    C     0.47999   0.01125   0.24313   0.00000  Uiso   1.00
C67    C     0.46150   0.16255   0.33302   0.00000  Uiso   1.00
C68    C     0.53846   0.17027   0.16692   0.00000  Uiso   1.00
C69    C     0.43824   0.15457   0.38021   0.00000  Uiso   1.00
C70    C     0.56177   0.17425   0.11924   0.00000  Uiso   1.00
C71    C     0.36042   0.11120   0.44137   0.00000  Uiso   1.00
C72    C     0.64398   0.20520   0.05533   0.00000  Uiso   1.00
C73    C     0.37740   0.12587   0.39789   0.00000  Uiso   1.00
C74    C     0.62500   0.19607   0.10004   0.00000  Uiso   1.00
C75    C     0.48093   0.17051   0.40670   0.00000  Uiso   1.00
C76    C     0.51848   0.15894   0.09306   0.00000  Uiso   1.00
C77    C     0.46633   0.15438   0.45004   0.00000  Uiso   1.00
C78    C     0.53644   0.16639   0.04771   0.00000  Uiso   1.00
C79    C     0.40455   0.12480   0.46746   0.00000  Uiso   1.00
C80    C     0.59993   0.19150   0.02920   0.00000  Uiso   1.00
C81    C     0.51149   0.16626   0.47621   0.00000  Uiso   1.00
C82    C     0.49251   0.15150   0.02073   0.00000  Uiso   1.00
Cu83   Cu    0.44071   0.16108   0.24517   0.00000  Uiso   1.00
Cu84   Cu    0.55929   0.17225   0.25484   0.00000  Uiso   1.00
H85    H     0.34111   0.08543   0.02416   0.00000  Uiso   1.00
H86    H     0.33352   0.22210   0.47023   0.00000  Uiso   1.00
H87    H     0.47018   0.14320   0.10935   0.00000  Uiso   1.00
H88    H     0.52577   0.19507   0.39214   0.00000  Uiso   1.00
H89    H     0.65915   0.20803   0.11985   0.00000  Uiso   1.00
H90    H     0.34384   0.11319   0.37771   0.00000  Uiso   1.00
H91    H     0.41386   0.10610   0.06892   0.00000  Uiso   1.00
H92    H     0.59457   0.20098   0.42526   0.00000  Uiso   1.00
N93    N     0.64839   0.18068   0.26212   0.00000  Uiso   1.00
N94    N     0.35161   0.15265   0.23788   0.00000  Uiso   1.00
O95    O     0.46148   0.23809   0.24686   0.00000  Uiso   1.00
O96    O     0.53852   0.09524   0.25314   0.00000  Uiso   1.00
O97    O     0.56163   0.24753   0.25503   0.00000  Uiso   1.00
O98    O     0.43837   0.08580   0.24498   0.00000  Uiso   1.00
O99    O     0.42185   0.15930   0.30855   0.00000  Uiso   1.00
O100   O     0.57815   0.17403   0.19146   0.00000  Uiso   1.00
O101   O     0.52199   0.16874   0.31671   0.00000  Uiso   1.00
O102   O     0.47801   0.16460   0.18329   0.00000  Uiso   1.00
F103   F     0.63467   0.08257   0.45758   0.00000  Uiso   1.00
F104   F     0.37174   0.22863   0.03784   0.00000  Uiso   1.00
N105   N     0.56573   0.01824   0.27967   0.00000  Uiso   1.00
H106   H     0.61067   0.01384   0.26212   0.00000  Uiso   1.00
H107   H     0.55649   0.00242   0.31048   0.00000  Uiso   1.00
N108   N     0.43422   0.31510   0.22039   0.00000  Uiso   1.00
H109   H     0.38929   0.31947   0.23797   0.00000  Uiso   1.00
H110   H     0.44342   0.33092   0.18959   0.00000  Uiso   1.00
N111   N     0.33676   0.20937   0.29626   0.00000  Uiso   1.00
H112   H     0.63922   0.19460   0.32537   0.00000  Uiso   1.00
H113   H     0.66529   0.24763   0.29448   0.00000  Uiso   1.00
N114   N     0.66318   0.12389   0.20379   0.00000  Uiso   1.00
H115   H     0.36079   0.13849   0.17465   0.00000  Uiso   1.00
H116   H     0.33448   0.08560   0.20570   0.00000  Uiso   1.00
C117   C     0.84799   0.26650   0.25173   0.00000  Uiso   1.00
C118   C     0.81867   0.06684   0.24829   0.00000  Uiso   1.00
C119   C     0.76395   0.12159   0.03660   0.00000  Uiso   1.00
C120   C     0.90869   0.19123   0.45909   0.00000  Uiso   1.00
C121   C     0.72116   0.10850   0.01041   0.00000  Uiso   1.00
C122   C     0.95181   0.20323   0.48505   0.00000  Uiso   1.00
C123   C     0.85331   0.32208   0.25691   0.00000  Uiso   1.00
C124   C     0.81333   0.01125   0.24313   0.00000  Uiso   1.00
C125   C     0.79484   0.16255   0.33302   0.00000  Uiso   1.00
C126   C     0.87179   0.17027   0.16692   0.00000  Uiso   1.00
C127   C     0.77157   0.15457   0.38021   0.00000  Uiso   1.00
C128   C     0.89511   0.17425   0.11924   0.00000  Uiso   1.00
C129   C     0.69375   0.11120   0.44137   0.00000  Uiso   1.00
C130   C     0.97731   0.20520   0.05533   0.00000  Uiso   1.00
C131   C     0.71074   0.12587   0.39789   0.00000  Uiso   1.00
C132   C     0.95834   0.19607   0.10004   0.00000  Uiso   1.00
C133   C     0.81427   0.17051   0.40670   0.00000  Uiso   1.00
C134   C     0.85181   0.15894   0.09306   0.00000  Uiso   1.00
C135   C     0.79966   0.15438   0.45004   0.00000  Uiso   1.00
C136   C     0.86977   0.16639   0.04771   0.00000  Uiso   1.00
C137   C     0.73788   0.12480   0.46746   0.00000  Uiso   1.00
C138   C     0.93326   0.19150   0.02920   0.00000  Uiso   1.00
C139   C     0.84482   0.16626   0.47621   0.00000  Uiso   1.00
C140   C     0.82584   0.15150   0.02073   0.00000  Uiso   1.00
Cu141  Cu    0.77404   0.16108   0.24517   0.00000  Uiso   1.00
Cu142  Cu    0.89263   0.17225   0.25484   0.00000  Uiso   1.00
H143   H     0.67444   0.08543   0.02416   0.00000  Uiso   1.00
H144   H     0.66685   0.22210   0.47023   0.00000  Uiso   1.00
H145   H     0.80351   0.14320   0.10935   0.00000  Uiso   1.00
H146   H     0.85910   0.19507   0.39214   0.00000  Uiso   1.00
H147   H     0.99248   0.20803   0.11985   0.00000  Uiso   1.00
H148   H     0.67717   0.11319   0.37771   0.00000  Uiso   1.00
H149   H     0.74720   0.10610   0.06892   0.00000  Uiso   1.00
H150   H     0.92791   0.20098   0.42526   0.00000  Uiso   1.00
N151   N     0.98173   0.18068   0.26212   0.00000  Uiso   1.00
N152   N     0.68494   0.15265   0.23788   0.00000  Uiso   1.00
O153   O     0.79482   0.23809   0.24686   0.00000  Uiso   1.00
O154   O     0.87185   0.09524   0.25314   0.00000  Uiso   1.00
O155   O     0.89496   0.24753   0.25503   0.00000  Uiso   1.00
O156   O     0.77171   0.08580   0.24498   0.00000  Uiso   1.00
O157   O     0.75518   0.15930   0.30855   0.00000  Uiso   1.00
O158   O     0.91149   0.17403   0.19146   0.00000  Uiso   1.00
O159   O     0.85532   0.16874   0.31671   0.00000  Uiso   1.00
O160   O     0.81134   0.16460   0.18329   0.00000  Uiso   1.00
F161   F     0.96800   0.08257   0.45758   0.00000  Uiso   1.00
F162   F     0.70507   0.22863   0.03784   0.00000  Uiso   1.00
N163   N     0.89907   0.01824   0.27967   0.00000  Uiso   1.00
H164   H     0.94400   0.01384   0.26212   0.00000  Uiso   1.00
H165   H     0.88982   0.00242   0.31048   0.00000  Uiso   1.00
N166   N     0.76755   0.31510   0.22039   0.00000  Uiso   1.00
H167   H     0.72262   0.31947   0.23797   0.00000  Uiso   1.00
H168   H     0.77675   0.33092   0.18959   0.00000  Uiso   1.00
N169   N     0.67009   0.20937   0.29626   0.00000  Uiso   1.00
H170   H     0.97255   0.19460   0.32537   0.00000  Uiso   1.00
H171   H     0.99863   0.24763   0.29448   0.00000  Uiso   1.00
N172   N     0.99652   0.12389   0.20379   0.00000  Uiso   1.00
H173   H     0.69412   0.13849   0.17465   0.00000  Uiso   1.00
H174   H     0.66781   0.08560   0.20570   0.00000  Uiso   1.00
C175   C     0.18132   0.59983   0.25173   0.00000  Uiso   1.00
C176   C     0.15200   0.40017   0.24829   0.00000  Uiso   1.00
C177   C     0.09728   0.45492   0.03660   0.00000  Uiso   1.00
C178   C     0.24202   0.52456   0.45909   0.00000  Uiso   1.00
C179   C     0.05450   0.44183   0.01041   0.00000  Uiso   1.00
C180   C     0.28515   0.53657   0.48505   0.00000  Uiso   1.00
C181   C     0.18664   0.65541   0.25691   0.00000  Uiso   1.00
C182   C     0.14666   0.34459   0.24313   0.00000  Uiso   1.00
C183   C     0.12817   0.49589   0.33302   0.00000  Uiso   1.00
C184   C     0.20513   0.50361   0.16692   0.00000  Uiso   1.00
C185   C     0.10490   0.48790   0.38021   0.00000  Uiso   1.00
C186   C     0.22844   0.50758   0.11924   0.00000  Uiso   1.00
C187   C     0.02709   0.44454   0.44137   0.00000  Uiso   1.00
C188   C     0.31064   0.53853   0.05533   0.00000  Uiso   1.00
C189   C     0.04407   0.45921   0.39789   0.00000  Uiso   1.00
C190   C     0.29167   0.52941   0.10004   0.00000  Uiso   1.00
C191   C     0.14760   0.50384   0.40670   0.00000  Uiso   1.00
C192   C     0.18514   0.49227   0.09306   0.00000  Uiso   1.00
C193   C     0.13299   0.48772   0.45004   0.00000  Uiso   1.00
C194   C     0.20311   0.49972   0.04771   0.00000  Uiso   1.00
C195   C     0.07121   0.45813   0.46746   0.00000  Uiso   1.00
C196   C     0.26659   0.52484   0.02920   0.00000  Uiso   1.00
C197   C     0.17816   0.49960   0.47621   0.00000  Uiso   1.00
C198   C     0.15918   0.48483   0.02073   0.00000  Uiso   1.00
Cu199  Cu    0.10737   0.49441   0.24517   0.00000  Uiso   1.00
Cu200  Cu    0.22596   0.50559   0.25484   0.00000  Uiso   1.00
H201   H     0.00778   0.41877   0.02416   0.00000  Uiso   1.00
H202   H     0.00019   0.55543   0.47023   0.00000  Uiso   1.00
H203   H     0.13684   0.47653   0.10935   0.00000  Uiso   1.00
H204   H     0.19244   0.52841   0.39214   0.00000  Uiso   1.00
H205   H     0.32582   0.54137   0.11985   0.00000  Uiso   1.00
H206   H     0.01050   0.44652   0.37771   0.00000  Uiso   1.00
H207   H     0.08053   0.43943   0.06892   0.00000  Uiso   1.00
H208   H     0.26124   0.53432   0.42526   0.00000  Uiso   1.00
N209   N     0.31506   0.51401   0.26212   0.00000  Uiso   1.00
N210   N     0.01827   0.48599   0.23788   0.00000  Uiso   1.00
O211   O     0.12815   0.57142   0.24686   0.00000  Uiso   1.00
O212   O     0.20518   0.42858   0.25314   0.00000  Uiso   1.00
O213   O     0.22829   0.58086   0.25503   0.00000  Uiso   1.00
O214   O     0.10504   0.41914   0.24498   0.00000  Uiso   1.00
O215   O     0.08851   0.49263   0.30855   0.00000  Uiso   1.00
O216   O     0.24482   0.50737   0.19146   0.00000  Uiso   1.00
O217   O     0.18866   0.50207   0.31671   0.00000  Uiso   1.00
O218   O     0.14468   0.49793   0.18329   0.00000  Uiso   1.00
F219   F     0.30133   0.41590   0.45758   0.00000  Uiso   1.00
F220   F     0.03841   0.56196   0.03784   0.00000  Uiso   1.00
N221   N     0.23240   0.35157   0.27967   0.00000  Uiso   1.00
H222   H     0.27733   0.34718   0.26212   0.00000  Uiso   1.00
H223   H     0.22315   0.33576   0.31048   0.00000  Uiso   1.00
N224   N     0.10088   0.64843   0.22039   0.00000  Uiso   1.00
H225   H     0.05595   0.65280   0.23797   0.00000  Uiso   1.00
H226   H     0.11009   0.66425   0.18959   0.00000  Uiso   1.00
N227   N     0.00343   0.54270   0.29626   0.00000  Uiso   1.00
H228   H     0.30588   0.52794   0.32537   0.00000  Uiso   1.00
H229   H     0.33196   0.58096   0.29448   0.00000  Uiso   1.00
N230   N     0.32985   0.45722   0.20379   0.00000  Uiso   1.00
H231   H     0.02745   0.47183   0.17465   0.00000  Uiso   1.00
H232   H     0.00114   0.41893   0.20570   0.00000  Uiso   1.00
C233   C     0.51466   0.59983   0.25173   0.00000  Uiso   1.00
C234   C     0.48533   0.40017   0.24829   0.00000  Uiso   1.00
C235   C     0.43062   0.45492   0.03660   0.00000  Uiso   1.00
C236   C     0.57535   0.52456   0.45909   0.00000  Uiso   1.00
C237   C     0.38783   0.44183   0.01041   0.00000  Uiso   1.00
C238   C     0.61848   0.53657   0.48505   0.00000  Uiso   1.00
C239   C     0.51998   0.65541   0.25691   0.00000  Uiso   1.00
C240   C     0.47999   0.34459   0.24313   0.00000  Uiso   1.00
C241   C     0.46150   0.49589   0.33302   0.00000  Uiso   1.00
C242   C     0.53846   0.50361   0.16692   0.00000  Uiso   1.00
C243   C     0.43824   0.48790   0.38021   0.00000  Uiso   1.00
C244   C     0.56177   0.50758   0.11924   0.00000  Uiso   1.00
C245   C     0.36042   0.44454   0.44137   0.00000  Uiso   1.00
C246   C     0.64398   0.53853   0.05533   0.00000  Uiso   1.00
C247   C     0.37740   0.45921   0.39789   0.00000  Uiso   1.00
C248   C     0.62500   0.52941   0.10004   0.00000  Uiso   1.00
C249   C     0.48093   0.50384   0.40670   0.00000  Uiso   1.00
C250   C     0.51848   0.49227   0.09306   0.00000  Uiso   1.00
C251   C     0.46633   0.48772   0.45004   0.00000  Uiso   1.00
C252   C     0.53644   0.49972   0.04771   0.00000  Uiso   1.00
C253   C     0.40455   0.45813   0.46746   0.00000  Uiso   1.00
C254   C     0.59993   0.52484   0.02920   0.00000  Uiso   1.00
C255   C     0.51149   0.49960   0.47621   0.00000  Uiso   1.00
C256   C     0.49251   0.48483   0.02073   0.00000  Uiso   1.00
Cu257  Cu    0.44071   0.49441   0.24517   0.00000  Uiso   1.00
Cu258  Cu    0.55929   0.50559   0.25484   0.00000  Uiso   1.00
H259   H     0.34111   0.41877   0.02416   0.00000  Uiso   1.00
H260   H     0.33352   0.55543   0.47023   0.00000  Uiso   1.00
H261   H     0.47018   0.47653   0.10935   0.00000  Uiso   1.00
H262   H     0.52577   0.52841   0.39214   0.00000  Uiso   1.00
H263   H     0.65915   0.54137   0.11985   0.00000  Uiso   1.00
H264   H     0.34384   0.44652   0.37771   0.00000  Uiso   1.00
H265   H     0.41386   0.43943   0.06892   0.00000  Uiso   1.00
H266   H     0.59457   0.53432   0.42526   0.00000  Uiso   1.00
N267   N     0.64839   0.51401   0.26212   0.00000  Uiso   1.00
N268   N     0.35161   0.48599   0.23788   0.00000  Uiso   1.00
O269   O     0.46148   0.57142   0.24686   0.00000  Uiso   1.00
O270   O     0.53852   0.42858   0.25314   0.00000  Uiso   1.00
O271   O     0.56163   0.58086   0.25503   0.00000  Uiso   1.00
O272   O     0.43837   0.41914   0.24498   0.00000  Uiso   1.00
O273   O     0.42185   0.49263   0.30855   0.00000  Uiso   1.00
O274   O     0.57815   0.50737   0.19146   0.00000  Uiso   1.00
O275   O     0.52199   0.50207   0.31671   0.00000  Uiso   1.00
O276   O     0.47801   0.49793   0.18329   0.00000  Uiso   1.00
F277   F     0.63467   0.41590   0.45758   0.00000  Uiso   1.00
F278   F     0.37174   0.56196   0.03784   0.00000  Uiso   1.00
N279   N     0.56573   0.35157   0.27967   0.00000  Uiso   1.00
H280   H     0.61067   0.34718   0.26212   0.00000  Uiso   1.00
H281   H     0.55649   0.33576   0.31048   0.00000  Uiso   1.00
N282   N     0.43422   0.64843   0.22039   0.00000  Uiso   1.00
H283   H     0.38929   0.65280   0.23797   0.00000  Uiso   1.00
H284   H     0.44342   0.66425   0.18959   0.00000  Uiso   1.00
N285   N     0.33676   0.54270   0.29626   0.00000  Uiso   1.00
H286   H     0.63922   0.52794   0.32537   0.00000  Uiso   1.00
H287   H     0.66529   0.58096   0.29448   0.00000  Uiso   1.00
N288   N     0.66318   0.45722   0.20379   0.00000  Uiso   1.00
H289   H     0.36079   0.47183   0.17465   0.00000  Uiso   1.00
H290   H     0.33448   0.41893   0.20570   0.00000  Uiso   1.00
C291   C     0.84799   0.59983   0.25173   0.00000  Uiso   1.00
C292   C     0.81867   0.40017   0.24829   0.00000  Uiso   1.00
C293   C     0.76395   0.45492   0.03660   0.00000  Uiso   1.00
C294   C     0.90869   0.52456   0.45909   0.00000  Uiso   1.00
C295   C     0.72116   0.44183   0.01041   0.00000  Uiso   1.00
C296   C     0.95181   0.53657   0.48505   0.00000  Uiso   1.00
C297   C     0.85331   0.65541   0.25691   0.00000  Uiso   1.00
C298   C     0.81333   0.34459   0.24313   0.00000  Uiso   1.00
C299   C     0.79484   0.49589   0.33302   0.00000  Uiso   1.00
C300   C     0.87179   0.50361   0.16692   0.00000  Uiso   1.00
C301   C     0.77157   0.48790   0.38021   0.00000  Uiso   1.00
C302   C     0.89511   0.50758   0.11924   0.00000  Uiso   1.00
C303   C     0.69375   0.44454   0.44137   0.00000  Uiso   1.00
C304   C     0.97731   0.53853   0.05533   0.00000  Uiso   1.00
C305   C     0.71074   0.45921   0.39789   0.00000  Uiso   1.00
C306   C     0.95834   0.52941   0.10004   0.00000  Uiso   1.00
C307   C     0.81427   0.50384   0.40670   0.00000  Uiso   1.00
C308   C     0.85181   0.49227   0.09306   0.00000  Uiso   1.00
C309   C     0.79966   0.48772   0.45004   0.00000  Uiso   1.00
C310   C     0.86977   0.49972   0.04771   0.00000  Uiso   1.00
C311   C     0.73788   0.45813   0.46746   0.00000  Uiso   1.00
C312   C     0.93326   0.52484   0.02920   0.00000  Uiso   1.00
C313   C     0.84482   0.49960   0.47621   0.00000  Uiso   1.00
C314   C     0.82584   0.48483   0.02073   0.00000  Uiso   1.00
Cu315  Cu    0.77404   0.49441   0.24517   0.00000  Uiso   1.00
Cu316  Cu    0.89263   0.50559   0.25484   0.00000  Uiso   1.00
H317   H     0.67444   0.41877   0.02416   0.00000  Uiso   1.00
H318   H     0.66685   0.55543   0.47023   0.00000  Uiso   1.00
H319   H     0.80351   0.47653   0.10935   0.00000  Uiso   1.00
H320   H     0.85910   0.52841   0.39214   0.00000  Uiso   1.00
H321   H     0.99248   0.54137   0.11985   0.00000  Uiso   1.00
H322   H     0.67717   0.44652   0.37771   0.00000  Uiso   1.00
H323   H     0.74720   0.43943   0.06892   0.00000  Uiso   1.00
H324   H     0.92791   0.53432   0.42526   0.00000  Uiso   1.00
N325   N     0.98173   0.51401   0.26212   0.00000  Uiso   1.00
N326   N     0.68494   0.48599   0.23788   0.00000  Uiso   1.00
O327   O     0.79482   0.57142   0.24686   0.00000  Uiso   1.00
O328   O     0.87185   0.42858   0.25314   0.00000  Uiso   1.00
O329   O     0.89496   0.58086   0.25503   0.00000  Uiso   1.00
O330   O     0.77171   0.41914   0.24498   0.00000  Uiso   1.00
O331   O     0.75518   0.49263   0.30855   0.00000  Uiso   1.00
O332   O     0.91149   0.50737   0.19146   0.00000  Uiso   1.00
O333   O     0.85532   0.50207   0.31671   0.00000  Uiso   1.00
O334   O     0.81134   0.49793   0.18329   0.00000  Uiso   1.00
F335   F     0.96800   0.41590   0.45758   0.00000  Uiso   1.00
F336   F     0.70507   0.56196   0.03784   0.00000  Uiso   1.00
N337   N     0.89907   0.35157   0.27967   0.00000  Uiso   1.00
H338   H     0.94400   0.34718   0.26212   0.00000  Uiso   1.00
H339   H     0.88982   0.33576   0.31048   0.00000  Uiso   1.00
N340   N     0.76755   0.64843   0.22039   0.00000  Uiso   1.00
H341   H     0.72262   0.65280   0.23797   0.00000  Uiso   1.00
H342   H     0.77675   0.66425   0.18959   0.00000  Uiso   1.00
N343   N     0.67009   0.54270   0.29626   0.00000  Uiso   1.00
H344   H     0.97255   0.52794   0.32537   0.00000  Uiso   1.00
H345   H     0.99863   0.58096   0.29448   0.00000  Uiso   1.00
N346   N     0.99652   0.45722   0.20379   0.00000  Uiso   1.00
H347   H     0.69412   0.47183   0.17465   0.00000  Uiso   1.00
H348   H     0.66781   0.41893   0.20570   0.00000  Uiso   1.00
C349   C     0.18132   0.93316   0.25173   0.00000  Uiso   1.00
C350   C     0.15200   0.73350   0.24829   0.00000  Uiso   1.00
C351   C     0.09728   0.78826   0.03660   0.00000  Uiso   1.00
C352   C     0.24202   0.85790   0.45909   0.00000  Uiso   1.00
C353   C     0.05450   0.77517   0.01041   0.00000  Uiso   1.00
C354   C     0.28515   0.86990   0.48505   0.00000  Uiso   1.00
C355   C     0.18664   0.98875   0.25691   0.00000  Uiso   1.00
C356   C     0.14666   0.67792   0.24313   0.00000  Uiso   1.00
C357   C     0.12817   0.82922   0.33302   0.00000  Uiso   1.00
C358   C     0.20513   0.83694   0.16692   0.00000  Uiso   1.00
C359   C     0.10490   0.82124   0.38021   0.00000  Uiso   1.00
C360   C     0.22844   0.84091   0.11924   0.00000  Uiso   1.00
C361   C     0.02709   0.77787   0.44137   0.00000  Uiso   1.00
C362   C     0.31064   0.87186   0.05533   0.00000  Uiso   1.00
C363   C     0.04407   0.79254   0.39789   0.00000  Uiso   1.00
C364   C     0.29167   0.86274   0.10004   0.00000  Uiso   1.00
C365   C     0.14760   0.83717   0.40670   0.00000  Uiso   1.00
C366   C     0.18514   0.82560   0.09306   0.00000  Uiso   1.00
C367   C     0.13299   0.82105   0.45004   0.00000  Uiso   1.00
C368   C     0.20311   0.83305   0.04771   0.00000  Uiso   1.00
C369   C     0.07121   0.79146   0.46746   0.00000  Uiso   1.00
C370   C     0.26659   0.85817   0.02920   0.00000  Uiso   1.00
C371   C     0.17816   0.83293   0.47621   0.00000  Uiso   1.00
C372   C     0.15918   0.81817   0.02073   0.00000  Uiso   1.00
Cu373  Cu    0.10737   0.82775   0.24517   0.00000  Uiso   1.00
Cu374  Cu    0.22596   0.83892   0.25484   0.00000  Uiso   1.00
H375   H     0.00778   0.75210   0.02416   0.00000  Uiso   1.00
H376   H     0.00019   0.88877   0.47023   0.00000  Uiso   1.00
H377   H     0.13684   0.80986   0.10935   0.00000  Uiso   1.00
H378   H     0.19244   0.86174   0.39214   0.00000  Uiso   1.00
H379   H     0.32582   0.87470   0.11985   0.00000  Uiso   1.00
H380   H     0.01050   0.77985   0.37771   0.00000  Uiso   1.00
H381   H     0.08053   0.77277   0.06892   0.00000  Uiso   1.00
H382   H     0.26124   0.86765   0.42526   0.00000  Uiso   1.00
N383   N     0.31506   0.84735   0.26212   0.00000  Uiso   1.00
N384   N     0.01827   0.81932   0.23788   0.00000  Uiso   1.00
O385   O     0.12815   0.90476   0.24686   0.00000  Uiso   1.00
O386   O     0.20518   0.76191   0.25314   0.00000  Uiso   1.00
O387   O     0.22829   0.91420   0.25503   0.00000  Uiso   1.00
O388   O     0.10504   0.75247   0.24498   0.00000  Uiso   1.00
O389   O     0.08851   0.82597   0.30855   0.00000  Uiso   1.00
O390   O     0.24482   0.84070   0.19146   0.00000  Uiso   1.00
O391   O     0.18866   0.83540   0.31671   0.00000  Uiso   1.00
O392   O     0.14468   0.83126   0.18329   0.00000  Uiso   1.00
F393   F     0.30133   0.74923   0.45758   0.00000  Uiso   1.00
F394   F     0.03841   0.89529   0.03784   0.00000  Uiso   1.00
N395   N     0.23240   0.68490   0.27967   0.00000  Uiso   1.00
H396   H     0.27733   0.68051   0.26212   0.00000  Uiso   1.00
H397   H     0.22315   0.66909   0.31048   0.00000  Uiso   1.00
N398   N     0.10088   0.98176   0.22039   0.00000  Uiso   1.00
H399   H     0.05595   0.98613   0.23797   0.00000  Uiso   1.00
H400   H     0.11009   0.99759   0.18959   0.00000  Uiso   1.00
N401   N     0.00343   0.87604   0.29626   0.00000  Uiso   1.00
H402   H     0.30588   0.86127   0.32537   0.00000  Uiso   1.00
H403   H     0.33196   0.91430   0.29448   0.00000  Uiso   1.00
N404   N     0.32985   0.79055   0.20379   0.00000  Uiso   1.00
H405   H     0.02745   0.80516   0.17465   0.00000  Uiso   1.00
H406   H     0.00114   0.75227   0.20570   0.00000  Uiso   1.00
C407   C     0.51466   0.93316   0.25173   0.00000  Uiso   1.00
C408   C     0.48533   0.73350   0.24829   0.00000  Uiso   1.00
C409   C     0.43062   0.78826   0.03660   0.00000  Uiso   1.00
C410   C     0.57535   0.85790   0.45909   0.00000  Uiso   1.00
C411   C     0.38783   0.77517   0.01041   0.00000  Uiso   1.00
C412   C     0.61848   0.86990   0.48505   0.00000  Uiso   1.00
C413   C     0.51998   0.98875   0.25691   0.00000  Uiso   1.00
C414   C     0.47999   0.67792   0.24313   0.00000  Uiso   1.00
C415   C     0.46150   0.82922   0.33302   0.00000  Uiso   1.00
C416   C     0.53846   0.83694   0.16692   0.00000  Uiso   1.00
C417   C     0.43824   0.82124   0.38021   0.00000  Uiso   1.00
C418   C     0.56177   0.84091   0.11924   0.00000  Uiso   1.00
C419   C     0.36042   0.77787   0.44137   0.00000  Uiso   1.00
C420   C     0.64398   0.87186   0.05533   0.00000  Uiso   1.00
C421   C     0.37740   0.79254   0.39789   0.00000  Uiso   1.00
C422   C     0.62500   0.86274   0.10004   0.00000  Uiso   1.00
C423   C     0.48093   0.83717   0.40670   0.00000  Uiso   1.00
C424   C     0.51848   0.82560   0.09306   0.00000  Uiso   1.00
C425   C     0.46633   0.82105   0.45004   0.00000  Uiso   1.00
C426   C     0.53644   0.83305   0.04771   0.00000  Uiso   1.00
C427   C     0.40455   0.79146   0.46746   0.00000  Uiso   1.00
C428   C     0.59993   0.85817   0.02920   0.00000  Uiso   1.00
C429   C     0.51149   0.83293   0.47621   0.00000  Uiso   1.00
C430   C     0.49251   0.81817   0.02073   0.00000  Uiso   1.00
Cu431  Cu    0.44071   0.82775   0.24517   0.00000  Uiso   1.00
Cu432  Cu    0.55929   0.83892   0.25484   0.00000  Uiso   1.00
H433   H     0.34111   0.75210   0.02416   0.00000  Uiso   1.00
H434   H     0.33352   0.88877   0.47023   0.00000  Uiso   1.00
H435   H     0.47018   0.80986   0.10935   0.00000  Uiso   1.00
H436   H     0.52577   0.86174   0.39214   0.00000  Uiso   1.00
H437   H     0.65915   0.87470   0.11985   0.00000  Uiso   1.00
H438   H     0.34384   0.77985   0.37771   0.00000  Uiso   1.00
H439   H     0.41386   0.77277   0.06892   0.00000  Uiso   1.00
H440   H     0.59457   0.86765   0.42526   0.00000  Uiso   1.00
N441   N     0.64839   0.84735   0.26212   0.00000  Uiso   1.00
N442   N     0.35161   0.81932   0.23788   0.00000  Uiso   1.00
O443   O     0.46148   0.90476   0.24686   0.00000  Uiso   1.00
O444   O     0.53852   0.76191   0.25314   0.00000  Uiso   1.00
O445   O     0.56163   0.91420   0.25503   0.00000  Uiso   1.00
O446   O     0.43837   0.75247   0.24498   0.00000  Uiso   1.00
O447   O     0.42185   0.82597   0.30855   0.00000  Uiso   1.00
O448   O     0.57815   0.84070   0.19146   0.00000  Uiso   1.00
O449   O     0.52199   0.83540   0.31671   0.00000  Uiso   1.00
O450   O     0.47801   0.83126   0.18329   0.00000  Uiso   1.00
F451   F     0.63467   0.74923   0.45758   0.00000  Uiso   1.00
F452   F     0.37174   0.89529   0.03784   0.00000  Uiso   1.00
N453   N     0.56573   0.68490   0.27967   0.00000  Uiso   1.00
H454   H     0.61067   0.68051   0.26212   0.00000  Uiso   1.00
H455   H     0.55649   0.66909   0.31048   0.00000  Uiso   1.00
N456   N     0.43422   0.98176   0.22039   0.00000  Uiso   1.00
H457   H     0.38929   0.98613   0.23797   0.00000  Uiso   1.00
H458   H     0.44342   0.99759   0.18959   0.00000  Uiso   1.00
N459   N     0.33676   0.87604   0.29626   0.00000  Uiso   1.00
H460   H     0.63922   0.86127   0.32537   0.00000  Uiso   1.00
H461   H     0.66529   0.91430   0.29448   0.00000  Uiso   1.00
N462   N     0.66318   0.79055   0.20379   0.00000  Uiso   1.00
H463   H     0.36079   0.80516   0.17465   0.00000  Uiso   1.00
H464   H     0.33448   0.75227   0.20570   0.00000  Uiso   1.00
C465   C     0.84799   0.93316   0.25173   0.00000  Uiso   1.00
C466   C     0.81867   0.73350   0.24829   0.00000  Uiso   1.00
C467   C     0.76395   0.78826   0.03660   0.00000  Uiso   1.00
C468   C     0.90869   0.85790   0.45909   0.00000  Uiso   1.00
C469   C     0.72116   0.77517   0.01041   0.00000  Uiso   1.00
C470   C     0.95181   0.86990   0.48505   0.00000  Uiso   1.00
C471   C     0.85331   0.98875   0.25691   0.00000  Uiso   1.00
C472   C     0.81333   0.67792   0.24313   0.00000  Uiso   1.00
C473   C     0.79484   0.82922   0.33302   0.00000  Uiso   1.00
C474   C     0.87179   0.83694   0.16692   0.00000  Uiso   1.00
C475   C     0.77157   0.82124   0.38021   0.00000  Uiso   1.00
C476   C     0.89511   0.84091   0.11924   0.00000  Uiso   1.00
C477   C     0.69375   0.77787   0.44137   0.00000  Uiso   1.00
C478   C     0.97731   0.87186   0.05533   0.00000  Uiso   1.00
C479   C     0.71074   0.79254   0.39789   0.00000  Uiso   1.00
C480   C     0.95834   0.86274   0.10004   0.00000  Uiso   1.00
C481   C     0.81427   0.83717   0.40670   0.00000  Uiso   1.00
C482   C     0.85181   0.82560   0.09306   0.00000  Uiso   1.00
C483   C     0.79966   0.82105   0.45004   0.00000  Uiso   1.00
C484   C     0.86977   0.83305   0.04771   0.00000  Uiso   1.00
C485   C     0.73788   0.79146   0.46746   0.00000  Uiso   1.00
C486   C     0.93326   0.85817   0.02920   0.00000  Uiso   1.00
C487   C     0.84482   0.83293   0.47621   0.00000  Uiso   1.00
C488   C     0.82584   0.81817   0.02073   0.00000  Uiso   1.00
Cu489  Cu    0.77404   0.82775   0.24517   0.00000  Uiso   1.00
Cu490  Cu    0.89263   0.83892   0.25484   0.00000  Uiso   1.00
H491   H     0.67444   0.75210   0.02416   0.00000  Uiso   1.00
H492   H     0.66685   0.88877   0.47023   0.00000  Uiso   1.00
H493   H     0.80351   0.80986   0.10935   0.00000  Uiso   1.00
H494   H     0.85910   0.86174   0.39214   0.00000  Uiso   1.00
H495   H     0.99248   0.87470   0.11985   0.00000  Uiso   1.00
H496   H     0.67717   0.77985   0.37771   0.00000  Uiso   1.00
H497   H     0.74720   0.77277   0.06892   0.00000  Uiso   1.00
H498   H     0.92791   0.86765   0.42526   0.00000  Uiso   1.00
N499   N     0.98173   0.84735   0.26212   0.00000  Uiso   1.00
N500   N     0.68494   0.81932   0.23788   0.00000  Uiso   1.00
O501   O     0.79482   0.90476   0.24686   0.00000  Uiso   1.00
O502   O     0.87185   0.76191   0.25314   0.00000  Uiso   1.00
O503   O     0.89496   0.91420   0.25503   0.00000  Uiso   1.00
O504   O     0.77171   0.75247   0.24498   0.00000  Uiso   1.00
O505   O     0.75518   0.82597   0.30855   0.00000  Uiso   1.00
O506   O     0.91149   0.84070   0.19146   0.00000  Uiso   1.00
O507   O     0.85532   0.83540   0.31671   0.00000  Uiso   1.00
O508   O     0.81134   0.83126   0.18329   0.00000  Uiso   1.00
F509   F     0.96800   0.74923   0.45758   0.00000  Uiso   1.00
F510   F     0.70507   0.89529   0.03784   0.00000  Uiso   1.00
N511   N     0.89907   0.68490   0.27967   0.00000  Uiso   1.00
H512   H     0.94400   0.68051   0.26212   0.00000  Uiso   1.00
H513   H     0.88982   0.66909   0.31048   0.00000  Uiso   1.00
N514   N     0.76755   0.98176   0.22039   0.00000  Uiso   1.00
H515   H     0.72262   0.98613   0.23797   0.00000  Uiso   1.00
H516   H     0.77675   0.99759   0.18959   0.00000  Uiso   1.00
N517   N     0.67009   0.87604   0.29626   0.00000  Uiso   1.00
H518   H     0.97255   0.86127   0.32537   0.00000  Uiso   1.00
H519   H     0.99863   0.91430   0.29448   0.00000  Uiso   1.00
N520   N     0.99652   0.79055   0.20379   0.00000  Uiso   1.00
H521   H     0.69412   0.80516   0.17465   0.00000  Uiso   1.00
H522   H     0.66781   0.75227   0.20570   0.00000  Uiso   1.00
C523   C     0.18132   0.26650   0.75173   0.00000  Uiso   1.00
C524   C     0.15200   0.06684   0.74829   0.00000  Uiso   1.00
C525   C     0.09728   0.12159   0.53660   0.00000  Uiso   1.00
C526   C     0.24202   0.19123   0.95909   0.00000  Uiso   1.00
C527   C     0.05450   0.10850   0.51041   0.00000  Uiso   1.00
C528   C     0.28515   0.20323   0.98505   0.00000  Uiso   1.00
C529   C     0.18664   0.32208   0.75691   0.00000  Uiso   1.00
C530   C     0.14666   0.01125   0.74313   0.00000  Uiso   1.00
C531   C     0.12817   0.16255   0.83302   0.00000  Uiso   1.00
C532   C     0.20513   0.17027   0.66692   0.00000  Uiso   1.00
C533   C     0.10490   0.15457   0.88021   0.00000  Uiso   1.00
C534   C     0.22844   0.17425   0.61924   0.00000  Uiso   1.00
C535   C     0.02709   0.11120   0.94137   0.00000  Uiso   1.00
C536   C     0.31064   0.20520   0.55533   0.00000  Uiso   1.00
C537   C     0.04407   0.12587   0.89789   0.00000  Uiso   1.00
C538   C     0.29167   0.19607   0.60004   0.00000  Uiso   1.00
C539   C     0.14760   0.17051   0.90670   0.00000  Uiso   1.00
C540   C     0.18514   0.15894   0.59306   0.00000  Uiso   1.00
C541   C     0.13299   0.15438   0.95004   0.00000  Uiso   1.00
C542   C     0.20311   0.16639   0.54771   0.00000  Uiso   1.00
C543   C     0.07121   0.12480   0.96746   0.00000  Uiso   1.00
C544   C     0.26659   0.19150   0.52920   0.00000  Uiso   1.00
C545   C     0.17816   0.16626   0.97621   0.00000  Uiso   1.00
C546   C     0.15918   0.15150   0.52073   0.00000  Uiso   1.00
Cu547  Cu    0.10737   0.16108   0.74517   0.00000  Uiso   1.00
Cu548  Cu    0.22596   0.17225   0.75484   0.00000  Uiso   1.00
H549   H     0.00778   0.08543   0.52416   0.00000  Uiso   1.00
H550   H     0.00019   0.22210   0.97023   0.00000  Uiso   1.00
H551   H     0.13684   0.14320   0.60935   0.00000  Uiso   1.00
H552   H     0.19244   0.19507   0.89214   0.00000  Uiso   1.00
H553   H     0.32582   0.20803   0.61985   0.00000  Uiso   1.00
H554   H     0.01050   0.11319   0.87771   0.00000  Uiso   1.00
H555   H     0.08053   0.10610   0.56892   0.00000  Uiso   1.00
H556   H     0.26124   0.20098   0.92526   0.00000  Uiso   1.00
N557   N     0.31506   0.18068   0.76212   0.00000  Uiso   1.00
N558   N     0.01827   0.15265   0.73788   0.00000  Uiso   1.00
O559   O     0.12815   0.23809   0.74686   0.00000  Uiso   1.00
O560   O     0.20518   0.09524   0.75314   0.00000  Uiso   1.00
O561   O     0.22829   0.24753   0.75503   0.00000  Uiso   1.00
O562   O     0.10504   0.08580   0.74498   0.00000  Uiso   1.00
O563   O     0.08851   0.15930   0.80855   0.00000  Uiso   1.00
O564   O     0.24482   0.17403   0.69146   0.00000  Uiso   1.00
O565   O     0.18866   0.16874   0.81671   0.00000  Uiso   1.00
O566   O     0.14468   0.16460   0.68329   0.00000  Uiso   1.00
F567   F     0.30133   0.08257   0.95758   0.00000  Uiso   1.00
F568   F     0.03841   0.22863   0.53784   0.00000  Uiso   1.00
N569   N     0.23240   0.01824   0.77967   0.00000  Uiso   1.00
H570   H     0.27733   0.01384   0.76212   0.00000  Uiso   1.00
H571   H     0.22315   0.00242   0.81048   0.00000  Uiso   1.00
N572   N     0.10088   0.31510   0.72039   0.00000  Uiso   1.00
H573   H     0.05595   0.31947   0.73797   0.00000  Uiso   1.00
H574   H     0.11009   0.33092   0.68959   0.00000  Uiso   1.00
N575   N     0.00343   0.20937   0.79626   0.00000  Uiso   1.00
H576   H     0.30588   0.19460   0.82537   0.00000  Uiso   1.00
H577   H     0.33196   0.24763   0.79448   0.00000  Uiso   1.00
N578   N     0.32985   0.12389   0.70379   0.00000  Uiso   1.00
H579   H     0.02745   0.13849   0.67465   0.00000  Uiso   1.00
H580   H     0.00114   0.08560   0.70570   0.00000  Uiso   1.00
C581   C     0.51466   0.26650   0.75173   0.00000  Uiso   1.00
C582   C     0.48533   0.06684   0.74829   0.00000  Uiso   1.00
C583   C     0.43062   0.12159   0.53660   0.00000  Uiso   1.00
C584   C     0.57535   0.19123   0.95909   0.00000  Uiso   1.00
C585   C     0.38783   0.10850   0.51041   0.00000  Uiso   1.00
C586   C     0.61848   0.20323   0.98505   0.00000  Uiso   1.00
C587   C     0.51998   0.32208   0.75691   0.00000  Uiso   1.00
C588   C     0.47999   0.01125   0.74313   0.00000  Uiso   1.00
C589   C     0.46150   0.16255   0.83302   0.00000  Uiso   1.00
C590   C     0.53846   0.17027   0.66692   0.00000  Uiso   1.00
C591   C     0.43824   0.15457   0.88021   0.00000  Uiso   1.00
C592   C     0.56177   0.17425   0.61924   0.00000  Uiso   1.00
C593   C     0.36042   0.11120   0.94137   0.00000  Uiso   1.00
C594   C     0.64398   0.20520   0.55533   0.00000  Uiso   1.00
C595   C     0.37740   0.12587   0.89789   0.00000  Uiso   1.00
C596   C     0.62500   0.19607   0.60004   0.00000  Uiso   1.00
C597   C     0.48093   0.17051   0.90670   0.00000  Uiso   1.00
C598   C     0.51848   0.15894   0.59306   0.00000  Uiso   1.00
C599   C     0.46633   0.15438   0.95004   0.00000  Uiso   1.00
C600   C     0.53644   0.16639   0.54771   0.00000  Uiso   1.00
C601   C     0.40455   0.12480   0.96746   0.00000  Uiso   1.00
C602   C     0.59993   0.19150   0.52920   0.00000  Uiso   1.00
C603   C     0.51149   0.16626   0.97621   0.00000  Uiso   1.00
C604   C     0.49251   0.15150   0.52073   0.00000  Uiso   1.00
Cu605  Cu    0.44071   0.16108   0.74517   0.00000  Uiso   1.00
Cu606  Cu    0.55929   0.17225   0.75484   0.00000  Uiso   1.00
H607   H     0.34111   0.08543   0.52416   0.00000  Uiso   1.00
H608   H     0.33352   0.22210   0.97023   0.00000  Uiso   1.00
H609   H     0.47018   0.14320   0.60935   0.00000  Uiso   1.00
H610   H     0.52577   0.19507   0.89214   0.00000  Uiso   1.00
H611   H     0.65915   0.20803   0.61985   0.00000  Uiso   1.00
H612   H     0.34384   0.11319   0.87771   0.00000  Uiso   1.00
H613   H     0.41386   0.10610   0.56892   0.00000  Uiso   1.00
H614   H     0.59457   0.20098   0.92526   0.00000  Uiso   1.00
N615   N     0.64839   0.18068   0.76212   0.00000  Uiso   1.00
N616   N     0.35161   0.15265   0.73788   0.00000  Uiso   1.00
O617   O     0.46148   0.23809   0.74686   0.00000  Uiso   1.00
O618   O     0.53852   0.09524   0.75314   0.00000  Uiso   1.00
O619   O     0.56163   0.24753   0.75503   0.00000  Uiso   1.00
O620   O     0.43837   0.08580   0.74498   0.00000  Uiso   1.00
O621   O     0.42185   0.15930   0.80855   0.00000  Uiso   1.00
O622   O     0.57815   0.17403   0.69146   0.00000  Uiso   1.00
O623   O     0.52199   0.16874   0.81671   0.00000  Uiso   1.00
O624   O     0.47801   0.16460   0.68329   0.00000  Uiso   1.00
F625   F     0.63467   0.08257   0.95758   0.00000  Uiso   1.00
F626   F     0.37174   0.22863   0.53784   0.00000  Uiso   1.00
N627   N     0.56573   0.01824   0.77967   0.00000  Uiso   1.00
H628   H     0.61067   0.01384   0.76212   0.00000  Uiso   1.00
H629   H     0.55649   0.00242   0.81048   0.00000  Uiso   1.00
N630   N     0.43422   0.31510   0.72039   0.00000  Uiso   1.00
H631   H     0.38929   0.31947   0.73797   0.00000  Uiso   1.00
H632   H     0.44342   0.33092   0.68959   0.00000  Uiso   1.00
N633   N     0.33676   0.20937   0.79626   0.00000  Uiso   1.00
H634   H     0.63922   0.19460   0.82537   0.00000  Uiso   1.00
H635   H     0.66529   0.24763   0.79448   0.00000  Uiso   1.00
N636   N     0.66318   0.12389   0.70379   0.00000  Uiso   1.00
H637   H     0.36079   0.13849   0.67465   0.00000  Uiso   1.00
H638   H     0.33448   0.08560   0.70570   0.00000  Uiso   1.00
C639   C     0.84799   0.26650   0.75173   0.00000  Uiso   1.00
C640   C     0.81867   0.06684   0.74829   0.00000  Uiso   1.00
C641   C     0.76395   0.12159   0.53660   0.00000  Uiso   1.00
C642   C     0.90869   0.19123   0.95909   0.00000  Uiso   1.00
C643   C     0.72116   0.10850   0.51041   0.00000  Uiso   1.00
C644   C     0.95181   0.20323   0.98505   0.00000  Uiso   1.00
C645   C     0.85331   0.32208   0.75691   0.00000  Uiso   1.00
C646   C     0.81333   0.01125   0.74313   0.00000  Uiso   1.00
C647   C     0.79484   0.16255   0.83302   0.00000  Uiso   1.00
C648   C     0.87179   0.17027   0.66692   0.00000  Uiso   1.00
C649   C     0.77157   0.15457   0.88021   0.00000  Uiso   1.00
C650   C     0.89511   0.17425   0.61924   0.00000  Uiso   1.00
C651   C     0.69375   0.11120   0.94137   0.00000  Uiso   1.00
C652   C     0.97731   0.20520   0.55533   0.00000  Uiso   1.00
C653   C     0.71074   0.12587   0.89789   0.00000  Uiso   1.00
C654   C     0.95834   0.19607   0.60004   0.00000  Uiso   1.00
C655   C     0.81427   0.17051   0.90670   0.00000  Uiso   1.00
C656   C     0.85181   0.15894   0.59306   0.00000  Uiso   1.00
C657   C     0.79966   0.15438   0.95004   0.00000  Uiso   1.00
C658   C     0.86977   0.16639   0.54771   0.00000  Uiso   1.00
C659   C     0.73788   0.12480   0.96746   0.00000  Uiso   1.00
C660   C     0.93326   0.19150   0.52920   0.00000  Uiso   1.00
C661   C     0.84482   0.16626   0.97621   0.00000  Uiso   1.00
C662   C     0.82584   0.15150   0.52073   0.00000  Uiso   1.00
Cu663  Cu    0.77404   0.16108   0.74517   0.00000  Uiso   1.00
Cu664  Cu    0.89263   0.17225   0.75484   0.00000  Uiso   1.00
H665   H     0.67444   0.08543   0.52416   0.00000  Uiso   1.00
H666   H     0.66685   0.22210   0.97023   0.00000  Uiso   1.00
H667   H     0.80351   0.14320   0.60935   0.00000  Uiso   1.00
H668   H     0.85910   0.19507   0.89214   0.00000  Uiso   1.00
H669   H     0.99248   0.20803   0.61985   0.00000  Uiso   1.00
H670   H     0.67717   0.11319   0.87771   0.00000  Uiso   1.00
H671   H     0.74720   0.10610   0.56892   0.00000  Uiso   1.00
H672   H     0.92791   0.20098   0.92526   0.00000  Uiso   1.00
N673   N     0.98173   0.18068   0.76212   0.00000  Uiso   1.00
N674   N     0.68494   0.15265   0.73788   0.00000  Uiso   1.00
O675   O     0.79482   0.23809   0.74686   0.00000  Uiso   1.00
O676   O     0.87185   0.09524   0.75314   0.00000  Uiso   1.00
O677   O     0.89496   0.24753   0.75503   0.00000  Uiso   1.00
O678   O     0.77171   0.08580   0.74498   0.00000  Uiso   1.00
O679   O     0.75518   0.15930   0.80855   0.00000  Uiso   1.00
O680   O     0.91149   0.17403   0.69146   0.00000  Uiso   1.00
O681   O     0.85532   0.16874   0.81671   0.00000  Uiso   1.00
O682   O     0.81134   0.16460   0.68329   0.00000  Uiso   1.00
F683   F     0.96800   0.08257   0.95758   0.00000  Uiso   1.00
F684   F     0.70507   0.22863   0.53784   0.00000  Uiso   1.00
N685   N     0.89907   0.01824   0.77967   0.00000  Uiso   1.00
H686   H     0.94400   0.01384   0.76212   0.00000  Uiso   1.00
H687   H     0.88982   0.00242   0.81048   0.00000  Uiso   1.00
N688   N     0.76755   0.31510   0.72039   0.00000  Uiso   1.00
H689   H     0.72262   0.31947   0.73797   0.00000  Uiso   1.00
H690   H     0.77675   0.33092   0.68959   0.00000  Uiso   1.00
N691   N     0.67009   0.20937   0.79626   0.00000  Uiso   1.00
H692   H     0.97255   0.19460   0.82537   0.00000  Uiso   1.00
H693   H     0.99863   0.24763   0.79448   0.00000  Uiso   1.00
N694   N     0.99652   0.12389   0.70379   0.00000  Uiso   1.00
H695   H     0.69412   0.13849   0.67465   0.00000  Uiso   1.00
H696   H     0.66781   0.08560   0.70570   0.00000  Uiso   1.00
C697   C     0.18132   0.59983   0.75173   0.00000  Uiso   1.00
C698   C     0.15200   0.40017   0.74829   0.00000  Uiso   1.00
C699   C     0.09728   0.45492   0.53660   0.00000  Uiso   1.00
C700   C     0.24202   0.52456   0.95909   0.00000  Uiso   1.00
C701   C     0.05450   0.44183   0.51041   0.00000  Uiso   1.00
C702   C     0.28515   0.53657   0.98505   0.00000  Uiso   1.00
C703   C     0.18664   0.65541   0.75691   0.00000  Uiso   1.00
C704   C     0.14666   0.34459   0.74313   0.00000  Uiso   1.00
C705   C     0.12817   0.49589   0.83302   0.00000  Uiso   1.00
C706   C     0.20513   0.50361   0.66692   0.00000  Uiso   1.00
C707   C     0.10490   0.48790   0.88021   0.00000  Uiso   1.00
C708   C     0.22844   0.50758   0.61924   0.00000  Uiso   1.00
C709   C     0.02709   0.44454   0.94137   0.00000  Uiso   1.00
C710   C     0.31064   0.53853   0.55533   0.00000  Uiso   1.00
C711   C     0.04407   0.45921   0.89789   0.00000  Uiso   1.00
C712   C     0.29167   0.52941   0.60004   0.00000  Uiso   1.00
C713   C     0.14760   0.50384   0.90670   0.00000  Uiso   1.00
C714   C     0.18514   0.49227   0.59306   0.00000  Uiso   1.00
C715   C     0.13299   0.48772   0.95004   0.00000  Uiso   1.00
C716   C     0.20311   0.49972   0.54771   0.00000  Uiso   1.00
C717   C     0.07121   0.45813   0.96746   0.00000  Uiso   1.00
C718   C     0.26659   0.52484   0.52920   0.00000  Uiso   1.00
C719   C     0.17816   0.49960   0.97621   0.00000  Uiso   1.00
C720   C     0.15918   0.48483   0.52073   0.00000  Uiso   1.00
Cu721  Cu    0.10737   0.49441   0.74517   0.00000  Uiso   1.00
Cu722  Cu    0.22596   0.50559   0.75484   0.00000  Uiso   1.00
H723   H     0.00778   0.41877   0.52416   0.00000  Uiso   1.00
H724   H     0.00019   0.55543   0.97023   0.00000  Uiso   1.00
H725   H     0.13684   0.47653   0.60935   0.00000  Uiso   1.00
H726   H     0.19244   0.52841   0.89214   0.00000  Uiso   1.00
H727   H     0.32582   0.54137   0.61985   0.00000  Uiso   1.00
H728   H     0.01050   0.44652   0.87771   0.00000  Uiso   1.00
H729   H     0.08053   0.43943   0.56892   0.00000  Uiso   1.00
H730   H     0.26124   0.53432   0.92526   0.00000  Uiso   1.00
N731   N     0.31506   0.51401   0.76212   0.00000  Uiso   1.00
N732   N     0.01827   0.48599   0.73788   0.00000  Uiso   1.00
O733   O     0.12815   0.57142   0.74686   0.00000  Uiso   1.00
O734   O     0.20518   0.42858   0.75314   0.00000  Uiso   1.00
O735   O     0.22829   0.58086   0.75503   0.00000  Uiso   1.00
O736   O     0.10504   0.41914   0.74498   0.00000  Uiso   1.00
O737   O     0.08851   0.49263   0.80855   0.00000  Uiso   1.00
O738   O     0.24482   0.50737   0.69146   0.00000  Uiso   1.00
O739   O     0.18866   0.50207   0.81671   0.00000  Uiso   1.00
O740   O     0.14468   0.49793   0.68329   0.00000  Uiso   1.00
F741   F     0.30133   0.41590   0.95758   0.00000  Uiso   1.00
F742   F     0.03841   0.56196   0.53784   0.00000  Uiso   1.00
N743   N     0.23240   0.35157   0.77967   0.00000  Uiso   1.00
H744   H     0.27733   0.34718   0.76212   0.00000  Uiso   1.00
H745   H     0.22315   0.33576   0.81048   0.00000  Uiso   1.00
N746   N     0.10088   0.64843   0.72039   0.00000  Uiso   1.00
H747   H     0.05595   0.65280   0.73797   0.00000  Uiso   1.00
H748   H     0.11009   0.66425   0.68959   0.00000  Uiso   1.00
N749   N     0.00343   0.54270   0.79626   0.00000  Uiso   1.00
H750   H     0.30588   0.52794   0.82537   0.00000  Uiso   1.00
H751   H     0.33196   0.58096   0.79448   0.00000  Uiso   1.00
N752   N     0.32985   0.45722   0.70379   0.00000  Uiso   1.00
H753   H     0.02745   0.47183   0.67465   0.00000  Uiso   1.00
H754   H     0.00114   0.41893   0.70570   0.00000  Uiso   1.00
C755   C     0.51466   0.59983   0.75173   0.00000  Uiso   1.00
C756   C     0.48533   0.40017   0.74829   0.00000  Uiso   1.00
C757   C     0.43062   0.45492   0.53660   0.00000  Uiso   1.00
C758   C     0.57535   0.52456   0.95909   0.00000  Uiso   1.00
C759   C     0.38783   0.44183   0.51041   0.00000  Uiso   1.00
C760   C     0.61848   0.53657   0.98505   0.00000  Uiso   1.00
C761   C     0.51998   0.65541   0.75691   0.00000  Uiso   1.00
C762   C     0.47999   0.34459   0.74313   0.00000  Uiso   1.00
C763   C     0.46150   0.49589   0.83302   0.00000  Uiso   1.00
C764   C     0.53846   0.50361   0.66692   0.00000  Uiso   1.00
C765   C     0.43824   0.48790   0.88021   0.00000  Uiso   1.00
C766   C     0.56177   0.50758   0.61924   0.00000  Uiso   1.00
C767   C     0.36042   0.44454   0.94137   0.00000  Uiso   1.00
C768   C     0.64398   0.53853   0.55533   0.00000  Uiso   1.00
C769   C     0.37740   0.45921   0.89789   0.00000  Uiso   1.00
C770   C     0.62500   0.52941   0.60004   0.00000  Uiso   1.00
C771   C     0.48093   0.50384   0.90670   0.00000  Uiso   1.00
C772   C     0.51848   0.49227   0.59306   0.00000  Uiso   1.00
C773   C     0.46633   0.48772   0.95004   0.00000  Uiso   1.00
C774   C     0.53644   0.49972   0.54771   0.00000  Uiso   1.00
C775   C     0.40455   0.45813   0.96746   0.00000  Uiso   1.00
C776   C     0.59993   0.52484   0.52920   0.00000  Uiso   1.00
C777   C     0.51149   0.49960   0.97621   0.00000  Uiso   1.00
C778   C     0.49251   0.48483   0.52073   0.00000  Uiso   1.00
Cu779  Cu    0.44071   0.49441   0.74517   0.00000  Uiso   1.00
Cu780  Cu    0.55929   0.50559   0.75484   0.00000  Uiso   1.00
H781   H     0.34111   0.41877   0.52416   0.00000  Uiso   1.00
H782   H     0.33352   0.55543   0.97023   0.00000  Uiso   1.00
H783   H     0.47018   0.47653   0.60935   0.00000  Uiso   1.00
H784   H     0.52577   0.52841   0.89214   0.00000  Uiso   1.00
H785   H     0.65915   0.54137   0.61985   0.00000  Uiso   1.00
H786   H     0.34384   0.44652   0.87771   0.00000  Uiso   1.00
H787   H     0.41386   0.43943   0.56892   0.00000  Uiso   1.00
H788   H     0.59457   0.53432   0.92526   0.00000  Uiso   1.00
N789   N     0.64839   0.51401   0.76212   0.00000  Uiso   1.00
N790   N     0.35161   0.48599   0.73788   0.00000  Uiso   1.00
O791   O     0.46148   0.57142   0.74686   0.00000  Uiso   1.00
O792   O     0.53852   0.42858   0.75314   0.00000  Uiso   1.00
O793   O     0.56163   0.58086   0.75503   0.00000  Uiso   1.00
O794   O     0.43837   0.41914   0.74498   0.00000  Uiso   1.00
O795   O     0.42185   0.49263   0.80855   0.00000  Uiso   1.00
O796   O     0.57815   0.50737   0.69146   0.00000  Uiso   1.00
O797   O     0.52199   0.50207   0.81671   0.00000  Uiso   1.00
O798   O     0.47801   0.49793   0.68329   0.00000  Uiso   1.00
F799   F     0.63467   0.41590   0.95758   0.00000  Uiso   1.00
F800   F     0.37174   0.56196   0.53784   0.00000  Uiso   1.00
N801   N     0.56573   0.35157   0.77967   0.00000  Uiso   1.00
H802   H     0.61067   0.34718   0.76212   0.00000  Uiso   1.00
H803   H     0.55649   0.33576   0.81048   0.00000  Uiso   1.00
N804   N     0.43422   0.64843   0.72039   0.00000  Uiso   1.00
H805   H     0.38929   0.65280   0.73797   0.00000  Uiso   1.00
H806   H     0.44342   0.66425   0.68959   0.00000  Uiso   1.00
N807   N     0.33676   0.54270   0.79626   0.00000  Uiso   1.00
H808   H     0.63922   0.52794   0.82537   0.00000  Uiso   1.00
H809   H     0.66529   0.58096   0.79448   0.00000  Uiso   1.00
N810   N     0.66318   0.45722   0.70379   0.00000  Uiso   1.00
H811   H     0.36079   0.47183   0.67465   0.00000  Uiso   1.00
H812   H     0.33448   0.41893   0.70570   0.00000  Uiso   1.00
C813   C     0.84799   0.59983   0.75173   0.00000  Uiso   1.00
C814   C     0.81867   0.40017   0.74829   0.00000  Uiso   1.00
C815   C     0.76395   0.45492   0.53660   0.00000  Uiso   1.00
C816   C     0.90869   0.52456   0.95909   0.00000  Uiso   1.00
C817   C     0.72116   0.44183   0.51041   0.00000  Uiso   1.00
C818   C     0.95181   0.53657   0.98505   0.00000  Uiso   1.00
C819   C     0.85331   0.65541   0.75691   0.00000  Uiso   1.00
C820   C     0.81333   0.34459   0.74313   0.00000  Uiso   1.00
C821   C     0.79484   0.49589   0.83302   0.00000  Uiso   1.00
C822   C     0.87179   0.50361   0.66692   0.00000  Uiso   1.00
C823   C     0.77157   0.48790   0.88021   0.00000  Uiso   1.00
C824   C     0.89511   0.50758   0.61924   0.00000  Uiso   1.00
C825   C     0.69375   0.44454   0.94137   0.00000  Uiso   1.00
C826   C     0.97731   0.53853   0.55533   0.00000  Uiso   1.00
C827   C     0.71074   0.45921   0.89789   0.00000  Uiso   1.00
C828   C     0.95834   0.52941   0.60004   0.00000  Uiso   1.00
C829   C     0.81427   0.50384   0.90670   0.00000  Uiso   1.00
C830   C     0.85181   0.49227   0.59306   0.00000  Uiso   1.00
C831   C     0.79966   0.48772   0.95004   0.00000  Uiso   1.00
C832   C     0.86977   0.49972   0.54771   0.00000  Uiso   1.00
C833   C     0.73788   0.45813   0.96746   0.00000  Uiso   1.00
C834   C     0.93326   0.52484   0.52920   0.00000  Uiso   1.00
C835   C     0.84482   0.49960   0.97621   0.00000  Uiso   1.00
C836   C     0.82584   0.48483   0.52073   0.00000  Uiso   1.00
Cu837  Cu    0.77404   0.49441   0.74517   0.00000  Uiso   1.00
Cu838  Cu    0.89263   0.50559   0.75484   0.00000  Uiso   1.00
H839   H     0.67444   0.41877   0.52416   0.00000  Uiso   1.00
H840   H     0.66685   0.55543   0.97023   0.00000  Uiso   1.00
H841   H     0.80351   0.47653   0.60935   0.00000  Uiso   1.00
H842   H     0.85910   0.52841   0.89214   0.00000  Uiso   1.00
H843   H     0.99248   0.54137   0.61985   0.00000  Uiso   1.00
H844   H     0.67717   0.44652   0.87771   0.00000  Uiso   1.00
H845   H     0.74720   0.43943   0.56892   0.00000  Uiso   1.00
H846   H     0.92791   0.53432   0.92526   0.00000  Uiso   1.00
N847   N     0.98173   0.51401   0.76212   0.00000  Uiso   1.00
N848   N     0.68494   0.48599   0.73788   0.00000  Uiso   1.00
O849   O     0.79482   0.57142   0.74686   0.00000  Uiso   1.00
O850   O     0.87185   0.42858   0.75314   0.00000  Uiso   1.00
O851   O     0.89496   0.58086   0.75503   0.00000  Uiso   1.00
O852   O     0.77171   0.41914   0.74498   0.00000  Uiso   1.00
O853   O     0.75518   0.49263   0.80855   0.00000  Uiso   1.00
O854   O     0.91149   0.50737   0.69146   0.00000  Uiso   1.00
O855   O     0.85532   0.50207   0.81671   0.00000  Uiso   1.00
O856   O     0.81134   0.49793   0.68329   0.00000  Uiso   1.00
F857   F     0.96800   0.41590   0.95758   0.00000  Uiso   1.00
F858   F     0.70507   0.56196   0.53784   0.00000  Uiso   1.00
N859   N     0.89907   0.35157   0.77967   0.00000  Uiso   1.00
H860   H     0.94400   0.34718   0.76212   0.00000  Uiso   1.00
H861   H     0.88982   0.33576   0.81048   0.00000  Uiso   1.00
N862   N     0.76755   0.64843   0.72039   0.00000  Uiso   1.00
H863   H     0.72262   0.65280   0.73797   0.00000  Uiso   1.00
H864   H     0.77675   0.66425   0.68959   0.00000  Uiso   1.00
N865   N     0.67009   0.54270   0.79626   0.00000  Uiso   1.00
H866   H     0.97255   0.52794   0.82537   0.00000  Uiso   1.00
H867   H     0.99863   0.58096   0.79448   0.00000  Uiso   1.00
N868   N     0.99652   0.45722   0.70379   0.00000  Uiso   1.00
H869   H     0.69412   0.47183   0.67465   0.00000  Uiso   1.00
H870   H     0.66781   0.41893   0.70570   0.00000  Uiso   1.00
C871   C     0.18132   0.93316   0.75173   0.00000  Uiso   1.00
C872   C     0.15200   0.73350   0.74829   0.00000  Uiso   1.00
C873   C     0.09728   0.78826   0.53660   0.00000  Uiso   1.00
C874   C     0.24202   0.85790   0.95909   0.00000  Uiso   1.00
C875   C     0.05450   0.77517   0.51041   0.00000  Uiso   1.00
C876   C     0.28515   0.86990   0.98505   0.00000  Uiso   1.00
C877   C     0.18664   0.98875   0.75691   0.00000  Uiso   1.00
C878   C     0.14666   0.67792   0.74313   0.00000  Uiso   1.00
C879   C     0.12817   0.82922   0.83302   0.00000  Uiso   1.00
C880   C     0.20513   0.83694   0.66692   0.00000  Uiso   1.00
C881   C     0.10490   0.82124   0.88021   0.00000  Uiso   1.00
C882   C     0.22844   0.84091   0.61924   0.00000  Uiso   1.00
C883   C     0.02709   0.77787   0.94137   0.00000  Uiso   1.00
C884   C     0.31064   0.87186   0.55533   0.00000  Uiso   1.00
C885   C     0.04407   0.79254   0.89789   0.00000  Uiso   1.00
C886   C     0.29167   0.86274   0.60004   0.00000  Uiso   1.00
C887   C     0.14760   0.83717   0.90670   0.00000  Uiso   1.00
C888   C     0.18514   0.82560   0.59306   0.00000  Uiso   1.00
C889   C     0.13299   0.82105   0.95004   0.00000  Uiso   1.00
C890   C     0.20311   0.83305   0.54771   0.00000  Uiso   1.00
C891   C     0.07121   0.79146   0.96746   0.00000  Uiso   1.00
C892   C     0.26659   0.85817   0.52920   0.00000  Uiso   1.00
C893   C     0.17816   0.83293   0.97621   0.00000  Uiso   1.00
C894   C     0.15918   0.81817   0.52073   0.00000  Uiso   1.00
Cu895  Cu    0.10737   0.82775   0.74517   0.00000  Uiso   1.00
Cu896  Cu    0.22596   0.83892   0.75484   0.00000  Uiso   1.00
H897   H     0.00778   0.75210   0.52416   0.00000  Uiso   1.00
H898   H     0.00019   0.88877   0.97023   0.00000  Uiso   1.00
H899   H     0.13684   0.80986   0.60935   0.00000  Uiso   1.00
H900   H     0.19244   0.86174   0.89214   0.00000  Uiso   1.00
H901   H     0.32582   0.87470   0.61985   0.00000  Uiso   1.00
H902   H     0.01050   0.77985   0.87771   0.00000  Uiso   1.00
H903   H     0.08053   0.77277   0.56892   0.00000  Uiso   1.00
H904   H     0.26124   0.86765   0.92526   0.00000  Uiso   1.00
N905   N     0.31506   0.84735   0.76212   0.00000  Uiso   1.00
N906   N     0.01827   0.81932   0.73788   0.00000  Uiso   1.00
O907   O     0.12815   0.90476   0.74686   0.00000  Uiso   1.00
O908   O     0.20518   0.76191   0.75314   0.00000  Uiso   1.00
O909   O     0.22829   0.91420   0.75503   0.00000  Uiso   1.00
O910   O     0.10504   0.75247   0.74498   0.00000  Uiso   1.00
O911   O     0.08851   0.82597   0.80855   0.00000  Uiso   1.00
O912   O     0.24482   0.84070   0.69146   0.00000  Uiso   1.00
O913   O     0.18866   0.83540   0.81671   0.00000  Uiso   1.00
O914   O     0.14468   0.83126   0.68329   0.00000  Uiso   1.00
F915   F     0.30133   0.74923   0.95758   0.00000  Uiso   1.00
F916   F     0.03841   0.89529   0.53784   0.00000  Uiso   1.00
N917   N     0.23240   0.68490   0.77967   0.00000  Uiso   1.00
H918   H     0.27733   0.68051   0.76212   0.00000  Uiso   1.00
H919   H     0.22315   0.66909   0.81048   0.00000  Uiso   1.00
N920   N     0.10088   0.98176   0.72039   0.00000  Uiso   1.00
H921   H     0.05595   0.98613   0.73797   0.00000  Uiso   1.00
H922   H     0.11009   0.99759   0.68959   0.00000  Uiso   1.00
N923   N     0.00343   0.87604   0.79626   0.00000  Uiso   1.00
H924   H     0.30588   0.86127   0.82537   0.00000  Uiso   1.00
H925   H     0.33196   0.91430   0.79448   0.00000  Uiso   1.00
N926   N     0.32985   0.79055   0.70379   0.00000  Uiso   1.00
H927   H     0.02745   0.80516   0.67465   0.00000  Uiso   1.00
H928   H     0.00114   0.75227   0.70570   0.00000  Uiso   1.00
C929   C     0.51466   0.93316   0.75173   0.00000  Uiso   1.00
C930   C     0.48533   0.73350   0.74829   0.00000  Uiso   1.00
C931   C     0.43062   0.78826   0.53660   0.00000  Uiso   1.00
C932   C     0.57535   0.85790   0.95909   0.00000  Uiso   1.00
C933   C     0.38783   0.77517   0.51041   0.00000  Uiso   1.00
C934   C     0.61848   0.86990   0.98505   0.00000  Uiso   1.00
C935   C     0.51998   0.98875   0.75691   0.00000  Uiso   1.00
C936   C     0.47999   0.67792   0.74313   0.00000  Uiso   1.00
C937   C     0.46150   0.82922   0.83302   0.00000  Uiso   1.00
C938   C     0.53846   0.83694   0.66692   0.00000  Uiso   1.00
C939   C     0.43824   0.82124   0.88021   0.00000  Uiso   1.00
C940   C     0.56177   0.84091   0.61924   0.00000  Uiso   1.00
C941   C     0.36042   0.77787   0.94137   0.00000  Uiso   1.00
C942   C     0.64398   0.87186   0.55533   0.00000  Uiso   1.00
C943   C     0.37740   0.79254   0.89789   0.00000  Uiso   1.00
C944   C     0.62500   0.86274   0.60004   0.00000  Uiso   1.00
C945   C     0.48093   0.83717   0.90670   0.00000  Uiso   1.00
C946   C     0.51848   0.82560   0.59306   0.00000  Uiso   1.00
C947   C     0.46633   0.82105   0.95004   0.00000  Uiso   1.00
C948   C     0.53644   0.83305   0.54771   0.00000  Uiso   1.00
C949   C     0.40455   0.79146   0.96746   0.00000  Uiso   1.00
C950   C     0.59993   0.85817   0.52920   0.00000  Uiso   1.00
C951   C     0.51149   0.83293   0.97621   0.00000  Uiso   1.00
C952   C     0.49251   0.81817   0.52073   0.00000  Uiso   1.00
Cu953  Cu    0.44071   0.82775   0.74517   0.00000  Uiso   1.00
Cu954  Cu    0.55929   0.83892   0.75484   0.00000  Uiso   1.00
H955   H     0.34111   0.75210   0.52416   0.00000  Uiso   1.00
H956   H     0.33352   0.88877   0.97023   0.00000  Uiso   1.00
H957   H     0.47018   0.80986   0.60935   0.00000  Uiso   1.00
H958   H     0.52577   0.86174   0.89214   0.00000  Uiso   1.00
H959   H     0.65915   0.87470   0.61985   0.00000  Uiso   1.00
H960   H     0.34384   0.77985   0.87771   0.00000  Uiso   1.00
H961   H     0.41386   0.77277   0.56892   0.00000  Uiso   1.00
H962   H     0.59457   0.86765   0.92526   0.00000  Uiso   1.00
N963   N     0.64839   0.84735   0.76212   0.00000  Uiso   1.00
N964   N     0.35161   0.81932   0.73788   0.00000  Uiso   1.00
O965   O     0.46148   0.90476   0.74686   0.00000  Uiso   1.00
O966   O     0.53852   0.76191   0.75314   0.00000  Uiso   1.00
O967   O     0.56163   0.91420   0.75503   0.00000  Uiso   1.00
O968   O     0.43837   0.75247   0.74498   0.00000  Uiso   1.00
O969   O     0.42185   0.82597   0.80855   0.00000  Uiso   1.00
O970   O     0.57815   0.84070   0.69146   0.00000  Uiso   1.00
O971   O     0.52199   0.83540   0.81671   0.00000  Uiso   1.00
O972   O     0.47801   0.83126   0.68329   0.00000  Uiso   1.00
F973   F     0.63467   0.74923   0.95758   0.00000  Uiso   1.00
F974   F     0.37174   0.89529   0.53784   0.00000  Uiso   1.00
N975   N     0.56573   0.68490   0.77967   0.00000  Uiso   1.00
H976   H     0.61067   0.68051   0.76212   0.00000  Uiso   1.00
H977   H     0.55649   0.66909   0.81048   0.00000  Uiso   1.00
N978   N     0.43422   0.98176   0.72039   0.00000  Uiso   1.00
H979   H     0.38929   0.98613   0.73797   0.00000  Uiso   1.00
H980   H     0.44342   0.99759   0.68959   0.00000  Uiso   1.00
N981   N     0.33676   0.87604   0.79626   0.00000  Uiso   1.00
H982   H     0.63922   0.86127   0.82537   0.00000  Uiso   1.00
H983   H     0.66529   0.91430   0.79448   0.00000  Uiso   1.00
N984   N     0.66318   0.79055   0.70379   0.00000  Uiso   1.00
H985   H     0.36079   0.80516   0.67465   0.00000  Uiso   1.00
H986   H     0.33448   0.75227   0.70570   0.00000  Uiso   1.00
C987   C     0.84799   0.93316   0.75173   0.00000  Uiso   1.00
C988   C     0.81867   0.73350   0.74829   0.00000  Uiso   1.00
C989   C     0.76395   0.78826   0.53660   0.00000  Uiso   1.00
C990   C     0.90869   0.85790   0.95909   0.00000  Uiso   1.00
C991   C     0.72116   0.77517   0.51041   0.00000  Uiso   1.00
C992   C     0.95181   0.86990   0.98505   0.00000  Uiso   1.00
C993   C     0.85331   0.98875   0.75691   0.00000  Uiso   1.00
C994   C     0.81333   0.67792   0.74313   0.00000  Uiso   1.00
C995   C     0.79484   0.82922   0.83302   0.00000  Uiso   1.00
C996   C     0.87179   0.83694   0.66692   0.00000  Uiso   1.00
C997   C     0.77157   0.82124   0.88021   0.00000  Uiso   1.00
C998   C     0.89511   0.84091   0.61924   0.00000  Uiso   1.00
C999   C     0.69375   0.77787   0.94137   0.00000  Uiso   1.00
C1000  C     0.97731   0.87186   0.55533   0.00000  Uiso   1.00
C1001  C     0.71074   0.79254   0.89789   0.00000  Uiso   1.00
C1002  C     0.95834   0.86274   0.60004   0.00000  Uiso   1.00
C1003  C     0.81427   0.83717   0.90670   0.00000  Uiso   1.00
C1004  C     0.85181   0.82560   0.59306   0.00000  Uiso   1.00
C1005  C     0.79966   0.82105   0.95004   0.00000  Uiso   1.00
C1006  C     0.86977   0.83305   0.54771   0.00000  Uiso   1.00
C1007  C     0.73788   0.79146   0.96746   0.00000  Uiso   1.00
C1008  C     0.93326   0.85817   0.52920   0.00000  Uiso   1.00
C1009  C     0.84482   0.83293   0.97621   0.00000  Uiso   1.00
C1010  C     0.82584   0.81817   0.52073   0.00000  Uiso   1.00
Cu1011 Cu    0.77404   0.82775   0.74517   0.00000  Uiso   1.00
Cu1012 Cu    0.89263   0.83892   0.75484   0.00000  Uiso   1.00
H1013  H     0.67444   0.75210   0.52416   0.00000  Uiso   1.00
H1014  H     0.66685   0.88877   0.97023   0.00000  Uiso   1.00
H1015  H     0.80351   0.80986   0.60935   0.00000  Uiso   1.00
H1016  H     0.85910   0.86174   0.89214   0.00000  Uiso   1.00
H1017  H     0.99248   0.87470   0.61985   0.00000  Uiso   1.00
H1018  H     0.67717   0.77985   0.87771   0.00000  Uiso   1.00
H1019  H     0.74720   0.77277   0.56892   0.00000  Uiso   1.00
H1020  H     0.92791   0.86765   0.92526   0.00000  Uiso   1.00
N1021  N     0.98173   0.84735   0.76212   0.00000  Uiso   1.00
N1022  N     0.68494   0.81932   0.73788   0.00000  Uiso   1.00
O1023  O     0.79482   0.90476   0.74686   0.00000  Uiso   1.00
O1024  O     0.87185   0.76191   0.75314   0.00000  Uiso   1.00
O1025  O     0.89496   0.91420   0.75503   0.00000  Uiso   1.00
O1026  O     0.77171   0.75247   0.74498   0.00000  Uiso   1.00
O1027  O     0.75518   0.82597   0.80855   0.00000  Uiso   1.00
O1028  O     0.91149   0.84070   0.69146   0.00000  Uiso   1.00
O1029  O     0.85532   0.83540   0.81671   0.00000  Uiso   1.00
O1030  O     0.81134   0.83126   0.68329   0.00000  Uiso   1.00
F1031  F     0.96800   0.74923   0.95758   0.00000  Uiso   1.00
F1032  F     0.70507   0.89529   0.53784   0.00000  Uiso   1.00
N1033  N     0.89907   0.68490   0.77967   0.00000  Uiso   1.00
H1034  H     0.94400   0.68051   0.76212   0.00000  Uiso   1.00
H1035  H     0.88982   0.66909   0.81048   0.00000  Uiso   1.00
N1036  N     0.76755   0.98176   0.72039   0.00000  Uiso   1.00
H1037  H     0.72262   0.98613   0.73797   0.00000  Uiso   1.00
H1038  H     0.77675   0.99759   0.68959   0.00000  Uiso   1.00
N1039  N     0.67009   0.87604   0.79626   0.00000  Uiso   1.00
H1040  H     0.97255   0.86127   0.82537   0.00000  Uiso   1.00
H1041  H     0.99863   0.91430   0.79448   0.00000  Uiso   1.00
N1042  N     0.99652   0.79055   0.70379   0.00000  Uiso   1.00
H1043  H     0.69412   0.80516   0.67465   0.00000  Uiso   1.00
H1044  H     0.66781   0.75227   0.70570   0.00000  Uiso   1.00
loop_
_geom_bond_atom_site_label_1
_geom_bond_atom_site_label_2
_geom_bond_distance
_geom_bond_site_symmetry_2
_ccdc_geom_bond_type
C1     O37     1.289   .     A
C1     C7      1.436   .     S
C1     O39     1.295   .     A
C2     O38     1.289   .     A
C2     O40     1.295   .     A
C2     C8      1.436   .     S
C3     C24     1.416   .     A
C3     H33     1.076   .     S
C3     C5      1.387   .     A
C4     C6      1.387   .     A
C4     H34     1.076   .     S
C4     C23     1.417   .     A
C5     H27     1.084   .     S
C5     C543    1.392   1_554 S
C6     C544    1.392   .     S
C6     H86     1.084   .     S
C7     C182    1.355   .     S
C7     N221    1.441   .     S
C8     C355    1.355   1_545 S
C8     N398    1.441   1_545 S
C9     C11     1.465   .     S
C9     O43     1.299   .     A
C9     O41     1.303   .     A
C10    O42     1.304   .     A
C10    O44     1.300   .     A
C10    C12     1.468   .     S
C11    C15     1.397   .     A
C11    C17     1.397   .     A
C12    C18     1.398   .     A
C12    C16     1.398   .     A
C13    C15     1.393   .     A
C13    C21     1.409   .     A
C13    F161    1.359   1_455 S
C14    C16     1.393   .     A
C14    C22     1.408   .     A
C14    F104    1.359   .     S
C15    H32     1.083   .     S
C16    H31     1.083   .     S
C17    H30     1.075   .     S
C17    C19     1.405   .     A
C18    H29     1.075   .     S
C18    C20     1.405   .     A
C19    C23     1.428   .     A
C19    C21     1.420   .     A
C20    C22     1.419   .     A
C20    C24     1.428   .     A
C21    C527    1.392   .     S
C22    C528    1.392   1_554 S
C23    C546    1.424   .     S
C24    C545    1.424   1_554 S
Cu25   O37     1.969   .     S
Cu25   O44     1.921   .     S
Cu25   O40     1.967   .     S
Cu25   N36     2.028   .     S
Cu25   O41     1.940   .     S
Cu25   Cu26    2.699   .     S
Cu26   O43     1.921   .     S
Cu26   O39     1.967   .     S
Cu26   N35     2.028   .     S
Cu26   O42     1.940   .     S
Cu26   O38     1.969   .     S
H28    C122    1.084   1_455 S
N35    N94     1.288   .     S
N35    N111    1.385   .     S
N36    N151    1.288   1_455 S
N36    N172    1.385   1_455 S
F45    C71     1.359   .     S
F46    C130    1.359   1_455 S
N47    H48     1.046   .     S
N47    H49     1.046   .     S
N47    C355    1.441   1_545 S
N50    H52     1.046   .     S
N50    H51     1.046   .     S
N50    C182    1.441   .     S
N53    N151    1.385   1_455 S
N53    H170    1.044   1_455 S
N53    H171    1.044   1_455 S
H54    N111    1.044   .     S
H55    N111    1.044   .     S
N56    N94     1.385   .     S
N56    H115    1.044   .     S
N56    H116    1.044   .     S
H57    N172    1.044   1_455 S
H58    N172    1.044   1_455 S
C59    O95     1.289   .     A
C59    C65     1.436   .     S
C59    O97     1.295   .     A
C60    O96     1.289   .     A
C60    O98     1.295   .     A
C60    C66     1.436   .     S
C61    C82     1.416   .     A
C61    H91     1.076   .     S
C61    C63     1.387   .     A
C62    C64     1.387   .     A
C62    H92     1.076   .     S
C62    C81     1.417   .     A
C63    H85     1.084   .     S
C63    C601    1.392   1_554 S
C64    C602    1.392   .     S
C64    H144    1.084   .     S
C65    C240    1.355   .     S
C65    N279    1.441   .     S
C66    C413    1.355   1_545 S
C66    N456    1.441   1_545 S
C67    C69     1.465   .     S
C67    O101    1.299   .     A
C67    O99     1.303   .     A
C68    O100    1.304   .     A
C68    O102    1.300   .     A
C68    C70     1.468   .     S
C69    C73     1.397   .     A
C69    C75     1.397   .     A
C70    C76     1.398   .     A
C70    C74     1.398   .     A
C71    C73     1.393   .     A
C71    C79     1.409   .     A
C72    C74     1.393   .     A
C72    C80     1.408   .     A
C72    F162    1.359   .     S
C73    H90     1.083   .     S
C74    H89     1.083   .     S
C75    H88     1.075   .     S
C75    C77     1.405   .     A
C76    H87     1.075   .     S
C76    C78     1.405   .     A
C77    C81     1.428   .     A
C77    C79     1.420   .     A
C78    C80     1.419   .     A
C78    C82     1.428   .     A
C79    C585    1.392   .     S
C80    C586    1.392   1_554 S
C81    C604    1.424   .     S
C82    C603    1.424   1_554 S
Cu83   O95     1.969   .     S
Cu83   O102    1.921   .     S
Cu83   O98     1.967   .     S
Cu83   N94     2.028   .     S
Cu83   O99     1.940   .     S
Cu83   Cu84    2.699   .     S
Cu84   O101    1.921   .     S
Cu84   O97     1.967   .     S
Cu84   N93     2.028   .     S
Cu84   O100    1.940   .     S
Cu84   O96     1.969   .     S
N93    N152    1.288   .     S
N93    N169    1.385   .     S
F103   C129    1.359   .     S
N105   H106    1.046   .     S
N105   H107    1.046   .     S
N105   C413    1.441   1_545 S
N108   H110    1.046   .     S
N108   H109    1.046   .     S
N108   C240    1.441   .     S
H112   N169    1.044   .     S
H113   N169    1.044   .     S
N114   N152    1.385   .     S
N114   H173    1.044   .     S
N114   H174    1.044   .     S
C117   O153    1.289   .     A
C117   C123    1.436   .     S
C117   O155    1.295   .     A
C118   O154    1.289   .     A
C118   O156    1.295   .     A
C118   C124    1.436   .     S
C119   C140    1.416   .     A
C119   H149    1.076   .     S
C119   C121    1.387   .     A
C120   C122    1.387   .     A
C120   H150    1.076   .     S
C120   C139    1.417   .     A
C121   H143    1.084   .     S
C121   C659    1.392   1_554 S
C122   C660    1.392   .     S
C122   H28     1.084   1_655 S
C123   C298    1.355   .     S
C123   N337    1.441   .     S
C124   C471    1.355   1_545 S
C124   N514    1.441   1_545 S
C125   C127    1.465   .     S
C125   O159    1.299   .     A
C125   O157    1.303   .     A
C126   O158    1.304   .     A
C126   O160    1.300   .     A
C126   C128    1.468   .     S
C127   C131    1.397   .     A
C127   C133    1.397   .     A
C128   C134    1.398   .     A
C128   C132    1.398   .     A
C129   C131    1.393   .     A
C129   C137    1.409   .     A
C130   C132    1.393   .     A
C130   C138    1.408   .     A
C130   F46     1.359   1_655 S
C131   H148    1.083   .     S
C132   H147    1.083   .     S
C133   H146    1.075   .     S
C133   C135    1.405   .     A
C134   H145    1.075   .     S
C134   C136    1.405   .     A
C135   C139    1.428   .     A
C135   C137    1.420   .     A
C136   C138    1.419   .     A
C136   C140    1.428   .     A
C137   C643    1.392   .     S
C138   C644    1.392   1_554 S
C139   C662    1.424   .     S
C140   C661    1.424   1_554 S
Cu141  O153    1.969   .     S
Cu141  O160    1.921   .     S
Cu141  O156    1.967   .     S
Cu141  N152    2.028   .     S
Cu141  O157    1.940   .     S
Cu141  Cu142   2.699   .     S
Cu142  O159    1.921   .     S
Cu142  O155    1.967   .     S
Cu142  N151    2.028   .     S
Cu142  O158    1.940   .     S
Cu142  O154    1.969   .     S
N151   N36     1.288   1_655 S
N151   N53     1.385   1_655 S
F161   C13     1.359   1_655 S
N163   H164    1.046   .     S
N163   H165    1.046   .     S
N163   C471    1.441   1_545 S
N166   H168    1.046   .     S
N166   H167    1.046   .     S
N166   C298    1.441   .     S
H170   N53     1.044   1_655 S
H171   N53     1.044   1_655 S
N172   N36     1.385   1_655 S
N172   H57     1.044   1_655 S
N172   H58     1.044   1_655 S
C175   O211    1.289   .     A
C175   C181    1.436   .     S
C175   O213    1.295   .     A
C176   O212    1.289   .     A
C176   O214    1.295   .     A
C176   C182    1.436   .     S
C177   C198    1.416   .     A
C177   H207    1.076   .     S
C177   C179    1.387   .     A
C178   C180    1.387   .     A
C178   H208    1.076   .     S
C178   C197    1.417   .     A
C179   H201    1.084   .     S
C179   C717    1.392   1_554 S
C180   C718    1.392   .     S
C180   H260    1.084   .     S
C181   C356    1.355   .     S
C181   N395    1.441   .     S
C183   C185    1.465   .     S
C183   O217    1.299   .     A
C183   O215    1.303   .     A
C184   O216    1.304   .     A
C184   O218    1.300   .     A
C184   C186    1.468   .     S
C185   C189    1.397   .     A
C185   C191    1.397   .     A
C186   C192    1.398   .     A
C186   C190    1.398   .     A
C187   C189    1.393   .     A
C187   C195    1.409   .     A
C187   F335    1.359   1_455 S
C188   C190    1.393   .     A
C188   C196    1.408   .     A
C188   F278    1.359   .     S
C189   H206    1.083   .     S
C190   H205    1.083   .     S
C191   H204    1.075   .     S
C191   C193    1.405   .     A
C192   H203    1.075   .     S
C192   C194    1.405   .     A
C193   C197    1.428   .     A
C193   C195    1.420   .     A
C194   C196    1.419   .     A
C194   C198    1.428   .     A
C195   C701    1.392   .     S
C196   C702    1.392   1_554 S
C197   C720    1.424   .     S
C198   C719    1.424   1_554 S
Cu199  O211    1.969   .     S
Cu199  O218    1.921   .     S
Cu199  O214    1.967   .     S
Cu199  N210    2.028   .     S
Cu199  O215    1.940   .     S
Cu199  Cu200   2.699   .     S
Cu200  O217    1.921   .     S
Cu200  O213    1.967   .     S
Cu200  N209    2.028   .     S
Cu200  O216    1.940   .     S
Cu200  O212    1.969   .     S
H202   C296    1.084   1_455 S
N209   N268    1.288   .     S
N209   N285    1.385   .     S
N210   N325    1.288   1_455 S
N210   N346    1.385   1_455 S
F219   C245    1.359   .     S
F220   C304    1.359   1_455 S
N221   H222    1.046   .     S
N221   H223    1.046   .     S
N224   H226    1.046   .     S
N224   H225    1.046   .     S
N224   C356    1.441   .     S
N227   N325    1.385   1_455 S
N227   H344    1.044   1_455 S
N227   H345    1.044   1_455 S
H228   N285    1.044   .     S
H229   N285    1.044   .     S
N230   N268    1.385   .     S
N230   H289    1.044   .     S
N230   H290    1.044   .     S
H231   N346    1.044   1_455 S
H232   N346    1.044   1_455 S
C233   O269    1.289   .     A
C233   C239    1.436   .     S
C233   O271    1.295   .     A
C234   O270    1.289   .     A
C234   O272    1.295   .     A
C234   C240    1.436   .     S
C235   C256    1.416   .     A
C235   H265    1.076   .     S
C235   C237    1.387   .     A
C236   C238    1.387   .     A
C236   H266    1.076   .     S
C236   C255    1.417   .     A
C237   H259    1.084   .     S
C237   C775    1.392   1_554 S
C238   C776    1.392   .     S
C238   H318    1.084   .     S
C239   C414    1.355   .     S
C239   N453    1.441   .     S
C241   C243    1.465   .     S
C241   O275    1.299   .     A
C241   O273    1.303   .     A
C242   O274    1.304   .     A
C242   O276    1.300   .     A
C242   C244    1.468   .     S
C243   C247    1.397   .     A
C243   C249    1.397   .     A
C244   C250    1.398   .     A
C244   C248    1.398   .     A
C245   C247    1.393   .     A
C245   C253    1.409   .     A
C246   C248    1.393   .     A
C246   C254    1.408   .     A
C246   F336    1.359   .     S
C247   H264    1.083   .     S
C248   H263    1.083   .     S
C249   H262    1.075   .     S
C249   C251    1.405   .     A
C250   H261    1.075   .     S
C250   C252    1.405   .     A
C251   C255    1.428   .     A
C251   C253    1.420   .     A
C252   C254    1.419   .     A
C252   C256    1.428   .     A
C253   C759    1.392   .     S
C254   C760    1.392   1_554 S
C255   C778    1.424   .     S
C256   C777    1.424   1_554 S
Cu257  O269    1.969   .     S
Cu257  O276    1.921   .     S
Cu257  O272    1.967   .     S
Cu257  N268    2.028   .     S
Cu257  O273    1.940   .     S
Cu257  Cu258   2.699   .     S
Cu258  O275    1.921   .     S
Cu258  O271    1.967   .     S
Cu258  N267    2.028   .     S
Cu258  O274    1.940   .     S
Cu258  O270    1.969   .     S
N267   N326    1.288   .     S
N267   N343    1.385   .     S
F277   C303    1.359   .     S
N279   H280    1.046   .     S
N279   H281    1.046   .     S
N282   H284    1.046   .     S
N282   H283    1.046   .     S
N282   C414    1.441   .     S
H286   N343    1.044   .     S
H287   N343    1.044   .     S
N288   N326    1.385   .     S
N288   H347    1.044   .     S
N288   H348    1.044   .     S
C291   O327    1.289   .     A
C291   C297    1.436   .     S
C291   O329    1.295   .     A
C292   O328    1.289   .     A
C292   O330    1.295   .     A
C292   C298    1.436   .     S
C293   C314    1.416   .     A
C293   H323    1.076   .     S
C293   C295    1.387   .     A
C294   C296    1.387   .     A
C294   H324    1.076   .     S
C294   C313    1.417   .     A
C295   H317    1.084   .     S
C295   C833    1.392   1_554 S
C296   C834    1.392   .     S
C296   H202    1.084   1_655 S
C297   C472    1.355   .     S
C297   N511    1.441   .     S
C299   C301    1.465   .     S
C299   O333    1.299   .     A
C299   O331    1.303   .     A
C300   O332    1.304   .     A
C300   O334    1.300   .     A
C300   C302    1.468   .     S
C301   C305    1.397   .     A
C301   C307    1.397   .     A
C302   C308    1.398   .     A
C302   C306    1.398   .     A
C303   C305    1.393   .     A
C303   C311    1.409   .     A
C304   C306    1.393   .     A
C304   C312    1.408   .     A
C304   F220    1.359   1_655 S
C305   H322    1.083   .     S
C306   H321    1.083   .     S
C307   H320    1.075   .     S
C307   C309    1.405   .     A
C308   H319    1.075   .     S
C308   C310    1.405   .     A
C309   C313    1.428   .     A
C309   C311    1.420   .     A
C310   C312    1.419   .     A
C310   C314    1.428   .     A
C311   C817    1.392   .     S
C312   C818    1.392   1_554 S
C313   C836    1.424   .     S
C314   C835    1.424   1_554 S
Cu315  O327    1.969   .     S
Cu315  O334    1.921   .     S
Cu315  O330    1.967   .     S
Cu315  N326    2.028   .     S
Cu315  O331    1.940   .     S
Cu315  Cu316   2.699   .     S
Cu316  O333    1.921   .     S
Cu316  O329    1.967   .     S
Cu316  N325    2.028   .     S
Cu316  O332    1.940   .     S
Cu316  O328    1.969   .     S
N325   N210    1.288   1_655 S
N325   N227    1.385   1_655 S
F335   C187    1.359   1_655 S
N337   H338    1.046   .     S
N337   H339    1.046   .     S
N340   H342    1.046   .     S
N340   H341    1.046   .     S
N340   C472    1.441   .     S
H344   N227    1.044   1_655 S
H345   N227    1.044   1_655 S
N346   N210    1.385   1_655 S
N346   H231    1.044   1_655 S
N346   H232    1.044   1_655 S
C349   O385    1.289   .     A
C349   C355    1.436   .     S
C349   O387    1.295   .     A
C350   O386    1.289   .     A
C350   O388    1.295   .     A
C350   C356    1.436   .     S
C351   C372    1.416   .     A
C351   H381    1.076   .     S
C351   C353    1.387   .     A
C352   C354    1.387   .     A
C352   H382    1.076   .     S
C352   C371    1.417   .     A
C353   H375    1.084   .     S
C353   C891    1.392   1_554 S
C354   C892    1.392   .     S
C354   H434    1.084   .     S
C355   C8      1.355   1_565 S
C355   N47     1.441   1_565 S
C357   C359    1.465   .     S
C357   O391    1.299   .     A
C357   O389    1.303   .     A
C358   O390    1.304   .     A
C358   O392    1.300   .     A
C358   C360    1.468   .     S
C359   C363    1.397   .     A
C359   C365    1.397   .     A
C360   C366    1.398   .     A
C360   C364    1.398   .     A
C361   C363    1.393   .     A
C361   C369    1.409   .     A
C361   F509    1.359   1_455 S
C362   C364    1.393   .     A
C362   C370    1.408   .     A
C362   F452    1.359   .     S
C363   H380    1.083   .     S
C364   H379    1.083   .     S
C365   H378    1.075   .     S
C365   C367    1.405   .     A
C366   H377    1.075   .     S
C366   C368    1.405   .     A
C367   C371    1.428   .     A
C367   C369    1.420   .     A
C368   C370    1.419   .     A
C368   C372    1.428   .     A
C369   C875    1.392   .     S
C370   C876    1.392   1_554 S
C371   C894    1.424   .     S
C372   C893    1.424   1_554 S
Cu373  O385    1.969   .     S
Cu373  O392    1.921   .     S
Cu373  O388    1.967   .     S
Cu373  N384    2.028   .     S
Cu373  O389    1.940   .     S
Cu373  Cu374   2.699   .     S
Cu374  O391    1.921   .     S
Cu374  O387    1.967   .     S
Cu374  N383    2.028   .     S
Cu374  O390    1.940   .     S
Cu374  O386    1.969   .     S
H376   C470    1.084   1_455 S
N383   N442    1.288   .     S
N383   N459    1.385   .     S
N384   N499    1.288   1_455 S
N384   N520    1.385   1_455 S
F393   C419    1.359   .     S
F394   C478    1.359   1_455 S
N395   H396    1.046   .     S
N395   H397    1.046   .     S
N398   H400    1.046   .     S
N398   H399    1.046   .     S
N398   C8      1.441   1_565 S
N401   N499    1.385   1_455 S
N401   H518    1.044   1_455 S
N401   H519    1.044   1_455 S
H402   N459    1.044   .     S
H403   N459    1.044   .     S
N404   N442    1.385   .     S
N404   H463    1.044   .     S
N404   H464    1.044   .     S
H405   N520    1.044   1_455 S
H406   N520    1.044   1_455 S
C407   O443    1.289   .     A
C407   C413    1.436   .     S
C407   O445    1.295   .     A
C408   O444    1.289   .     A
C408   O446    1.295   .     A
C408   C414    1.436   .     S
C409   C430    1.416   .     A
C409   H439    1.076   .     S
C409   C411    1.387   .     A
C410   C412    1.387   .     A
C410   H440    1.076   .     S
C410   C429    1.417   .     A
C411   H433    1.084   .     S
C411   C949    1.392   1_554 S
C412   C950    1.392   .     S
C412   H492    1.084   .     S
C413   C66     1.355   1_565 S
C413   N105    1.441   1_565 S
C415   C417    1.465   .     S
C415   O449    1.299   .     A
C415   O447    1.303   .     A
C416   O448    1.304   .     A
C416   O450    1.300   .     A
C416   C418    1.468   .     S
C417   C421    1.397   .     A
C417   C423    1.397   .     A
C418   C424    1.398   .     A
C418   C422    1.398   .     A
C419   C421    1.393   .     A
C419   C427    1.409   .     A
C420   C422    1.393   .     A
C420   C428    1.408   .     A
C420   F510    1.359   .     S
C421   H438    1.083   .     S
C422   H437    1.083   .     S
C423   H436    1.075   .     S
C423   C425    1.405   .     A
C424   H435    1.075   .     S
C424   C426    1.405   .     A
C425   C429    1.428   .     A
C425   C427    1.420   .     A
C426   C428    1.419   .     A
C426   C430    1.428   .     A
C427   C933    1.392   .     S
C428   C934    1.392   1_554 S
C429   C952    1.424   .     S
C430   C951    1.424   1_554 S
Cu431  O443    1.969   .     S
Cu431  O450    1.921   .     S
Cu431  O446    1.967   .     S
Cu431  N442    2.028   .     S
Cu431  O447    1.940   .     S
Cu431  Cu432   2.699   .     S
Cu432  O449    1.921   .     S
Cu432  O445    1.967   .     S
Cu432  N441    2.028   .     S
Cu432  O448    1.940   .     S
Cu432  O444    1.969   .     S
N441   N500    1.288   .     S
N441   N517    1.385   .     S
F451   C477    1.359   .     S
N453   H454    1.046   .     S
N453   H455    1.046   .     S
N456   H458    1.046   .     S
N456   H457    1.046   .     S
N456   C66     1.441   1_565 S
H460   N517    1.044   .     S
H461   N517    1.044   .     S
N462   N500    1.385   .     S
N462   H521    1.044   .     S
N462   H522    1.044   .     S
C465   O501    1.289   .     A
C465   C471    1.436   .     S
C465   O503    1.295   .     A
C466   O502    1.289   .     A
C466   O504    1.295   .     A
C466   C472    1.436   .     S
C467   C488    1.416   .     A
C467   H497    1.076   .     S
C467   C469    1.387   .     A
C468   C470    1.387   .     A
C468   H498    1.076   .     S
C468   C487    1.417   .     A
C469   H491    1.084   .     S
C469   C1007   1.392   1_554 S
C470   C1008   1.392   .     S
C470   H376    1.084   1_655 S
C471   C124    1.355   1_565 S
C471   N163    1.441   1_565 S
C473   C475    1.465   .     S
C473   O507    1.299   .     A
C473   O505    1.303   .     A
C474   O506    1.304   .     A
C474   O508    1.300   .     A
C474   C476    1.468   .     S
C475   C479    1.397   .     A
C475   C481    1.397   .     A
C476   C482    1.398   .     A
C476   C480    1.398   .     A
C477   C479    1.393   .     A
C477   C485    1.409   .     A
C478   C480    1.393   .     A
C478   C486    1.408   .     A
C478   F394    1.359   1_655 S
C479   H496    1.083   .     S
C480   H495    1.083   .     S
C481   H494    1.075   .     S
C481   C483    1.405   .     A
C482   H493    1.075   .     S
C482   C484    1.405   .     A
C483   C487    1.428   .     A
C483   C485    1.420   .     A
C484   C486    1.419   .     A
C484   C488    1.428   .     A
C485   C991    1.392   .     S
C486   C992    1.392   1_554 S
C487   C1010   1.424   .     S
C488   C1009   1.424   1_554 S
Cu489  O501    1.969   .     S
Cu489  O508    1.921   .     S
Cu489  O504    1.967   .     S
Cu489  N500    2.028   .     S
Cu489  O505    1.940   .     S
Cu489  Cu490   2.699   .     S
Cu490  O507    1.921   .     S
Cu490  O503    1.967   .     S
Cu490  N499    2.028   .     S
Cu490  O506    1.940   .     S
Cu490  O502    1.969   .     S
N499   N384    1.288   1_655 S
N499   N401    1.385   1_655 S
F509   C361    1.359   1_655 S
N511   H512    1.046   .     S
N511   H513    1.046   .     S
N514   H516    1.046   .     S
N514   H515    1.046   .     S
N514   C124    1.441   1_565 S
H518   N401    1.044   1_655 S
H519   N401    1.044   1_655 S
N520   N384    1.385   1_655 S
N520   H405    1.044   1_655 S
N520   H406    1.044   1_655 S
C523   O559    1.289   .     A
C523   C529    1.436   .     S
C523   O561    1.295   .     A
C524   O560    1.289   .     A
C524   O562    1.295   .     A
C524   C530    1.436   .     S
C525   C546    1.416   .     A
C525   H555    1.076   .     S
C525   C527    1.387   .     A
C526   C528    1.387   .     A
C526   H556    1.076   .     S
C526   C545    1.417   .     A
C527   H549    1.084   .     S
C528   C22     1.392   1_556 S
C528   H608    1.084   .     S
C529   C704    1.355   .     S
C529   N743    1.441   .     S
C530   C877    1.355   1_545 S
C530   N920    1.441   1_545 S
C531   C533    1.465   .     S
C531   O565    1.299   .     A
C531   O563    1.303   .     A
C532   O564    1.304   .     A
C532   O566    1.300   .     A
C532   C534    1.468   .     S
C533   C537    1.397   .     A
C533   C539    1.397   .     A
C534   C540    1.398   .     A
C534   C538    1.398   .     A
C535   C537    1.393   .     A
C535   C543    1.409   .     A
C535   F683    1.359   1_455 S
C536   C538    1.393   .     A
C536   C544    1.408   .     A
C536   F626    1.359   .     S
C537   H554    1.083   .     S
C538   H553    1.083   .     S
C539   H552    1.075   .     S
C539   C541    1.405   .     A
C540   H551    1.075   .     S
C540   C542    1.405   .     A
C541   C545    1.428   .     A
C541   C543    1.420   .     A
C542   C544    1.419   .     A
C542   C546    1.428   .     A
C543   C5      1.392   1_556 S
C545   C24     1.424   1_556 S
Cu547  O559    1.969   .     S
Cu547  O566    1.921   .     S
Cu547  O562    1.967   .     S
Cu547  N558    2.028   .     S
Cu547  O563    1.940   .     S
Cu547  Cu548   2.699   .     S
Cu548  O565    1.921   .     S
Cu548  O561    1.967   .     S
Cu548  N557    2.028   .     S
Cu548  O564    1.940   .     S
Cu548  O560    1.969   .     S
H550   C644    1.084   1_455 S
N557   N616    1.288   .     S
N557   N633    1.385   .     S
N558   N673    1.288   1_455 S
N558   N694    1.385   1_455 S
F567   C593    1.359   .     S
F568   C652    1.359   1_455 S
N569   H570    1.046   .     S
N569   H571    1.046   .     S
N569   C877    1.441   1_545 S
N572   H574    1.046   .     S
N572   H573    1.046   .     S
N572   C704    1.441   .     S
N575   N673    1.385   1_455 S
N575   H692    1.044   1_455 S
N575   H693    1.044   1_455 S
H576   N633    1.044   .     S
H577   N633    1.044   .     S
N578   N616    1.385   .     S
N578   H637    1.044   .     S
N578   H638    1.044   .     S
H579   N694    1.044   1_455 S
H580   N694    1.044   1_455 S
C581   O617    1.289   .     A
C581   C587    1.436   .     S
C581   O619    1.295   .     A
C582   O618    1.289   .     A
C582   O620    1.295   .     A
C582   C588    1.436   .     S
C583   C604    1.416   .     A
C583   H613    1.076   .     S
C583   C585    1.387   .     A
C584   C586    1.387   .     A
C584   H614    1.076   .     S
C584   C603    1.417   .     A
C585   H607    1.084   .     S
C586   C80     1.392   1_556 S
C586   H666    1.084   .     S
C587   C762    1.355   .     S
C587   N801    1.441   .     S
C588   C935    1.355   1_545 S
C588   N978    1.441   1_545 S
C589   C591    1.465   .     S
C589   O623    1.299   .     A
C589   O621    1.303   .     A
C590   O622    1.304   .     A
C590   O624    1.300   .     A
C590   C592    1.468   .     S
C591   C595    1.397   .     A
C591   C597    1.397   .     A
C592   C598    1.398   .     A
C592   C596    1.398   .     A
C593   C595    1.393   .     A
C593   C601    1.409   .     A
C594   C596    1.393   .     A
C594   C602    1.408   .     A
C594   F684    1.359   .     S
C595   H612    1.083   .     S
C596   H611    1.083   .     S
C597   H610    1.075   .     S
C597   C599    1.405   .     A
C598   H609    1.075   .     S
C598   C600    1.405   .     A
C599   C603    1.428   .     A
C599   C601    1.420   .     A
C600   C602    1.419   .     A
C600   C604    1.428   .     A
C601   C63     1.392   1_556 S
C603   C82     1.424   1_556 S
Cu605  O617    1.969   .     S
Cu605  O624    1.921   .     S
Cu605  O620    1.967   .     S
Cu605  N616    2.028   .     S
Cu605  O621    1.940   .     S
Cu605  Cu606   2.699   .     S
Cu606  O623    1.921   .     S
Cu606  O619    1.967   .     S
Cu606  N615    2.028   .     S
Cu606  O622    1.940   .     S
Cu606  O618    1.969   .     S
N615   N674    1.288   .     S
N615   N691    1.385   .     S
F625   C651    1.359   .     S
N627   H628    1.046   .     S
N627   H629    1.046   .     S
N627   C935    1.441   1_545 S
N630   H632    1.046   .     S
N630   H631    1.046   .     S
N630   C762    1.441   .     S
H634   N691    1.044   .     S
H635   N691    1.044   .     S
N636   N674    1.385   .     S
N636   H695    1.044   .     S
N636   H696    1.044   .     S
C639   O675    1.289   .     A
C639   C645    1.436   .     S
C639   O677    1.295   .     A
C640   O676    1.289   .     A
C640   O678    1.295   .     A
C640   C646    1.436   .     S
C641   C662    1.416   .     A
C641   H671    1.076   .     S
C641   C643    1.387   .     A
C642   C644    1.387   .     A
C642   H672    1.076   .     S
C642   C661    1.417   .     A
C643   H665    1.084   .     S
C644   C138    1.392   1_556 S
C644   H550    1.084   1_655 S
C645   C820    1.355   .     S
C645   N859    1.441   .     S
C646   C993    1.355   1_545 S
C646   N1036   1.441   1_545 S
C647   C649    1.465   .     S
C647   O681    1.299   .     A
C647   O679    1.303   .     A
C648   O680    1.304   .     A
C648   O682    1.300   .     A
C648   C650    1.468   .     S
C649   C653    1.397   .     A
C649   C655    1.397   .     A
C650   C656    1.398   .     A
C650   C654    1.398   .     A
C651   C653    1.393   .     A
C651   C659    1.409   .     A
C652   C654    1.393   .     A
C652   C660    1.408   .     A
C652   F568    1.359   1_655 S
C653   H670    1.083   .     S
C654   H669    1.083   .     S
C655   H668    1.075   .     S
C655   C657    1.405   .     A
C656   H667    1.075   .     S
C656   C658    1.405   .     A
C657   C661    1.428   .     A
C657   C659    1.420   .     A
C658   C660    1.419   .     A
C658   C662    1.428   .     A
C659   C121    1.392   1_556 S
C661   C140    1.424   1_556 S
Cu663  O675    1.969   .     S
Cu663  O682    1.921   .     S
Cu663  O678    1.967   .     S
Cu663  N674    2.028   .     S
Cu663  O679    1.940   .     S
Cu663  Cu664   2.699   .     S
Cu664  O681    1.921   .     S
Cu664  O677    1.967   .     S
Cu664  N673    2.028   .     S
Cu664  O680    1.940   .     S
Cu664  O676    1.969   .     S
N673   N558    1.288   1_655 S
N673   N575    1.385   1_655 S
F683   C535    1.359   1_655 S
N685   H686    1.046   .     S
N685   H687    1.046   .     S
N685   C993    1.441   1_545 S
N688   H690    1.046   .     S
N688   H689    1.046   .     S
N688   C820    1.441   .     S
H692   N575    1.044   1_655 S
H693   N575    1.044   1_655 S
N694   N558    1.385   1_655 S
N694   H579    1.044   1_655 S
N694   H580    1.044   1_655 S
C697   O733    1.289   .     A
C697   C703    1.436   .     S
C697   O735    1.295   .     A
C698   O734    1.289   .     A
C698   O736    1.295   .     A
C698   C704    1.436   .     S
C699   C720    1.416   .     A
C699   H729    1.076   .     S
C699   C701    1.387   .     A
C700   C702    1.387   .     A
C700   H730    1.076   .     S
C700   C719    1.417   .     A
C701   H723    1.084   .     S
C702   C196    1.392   1_556 S
C702   H782    1.084   .     S
C703   C878    1.355   .     S
C703   N917    1.441   .     S
C705   C707    1.465   .     S
C705   O739    1.299   .     A
C705   O737    1.303   .     A
C706   O738    1.304   .     A
C706   O740    1.300   .     A
C706   C708    1.468   .     S
C707   C711    1.397   .     A
C707   C713    1.397   .     A
C708   C714    1.398   .     A
C708   C712    1.398   .     A
C709   C711    1.393   .     A
C709   C717    1.409   .     A
C709   F857    1.359   1_455 S
C710   C712    1.393   .     A
C710   C718    1.408   .     A
C710   F800    1.359   .     S
C711   H728    1.083   .     S
C712   H727    1.083   .     S
C713   H726    1.075   .     S
C713   C715    1.405   .     A
C714   H725    1.075   .     S
C714   C716    1.405   .     A
C715   C719    1.428   .     A
C715   C717    1.420   .     A
C716   C718    1.419   .     A
C716   C720    1.428   .     A
C717   C179    1.392   1_556 S
C719   C198    1.424   1_556 S
Cu721  O733    1.969   .     S
Cu721  O740    1.921   .     S
Cu721  O736    1.967   .     S
Cu721  N732    2.028   .     S
Cu721  O737    1.940   .     S
Cu721  Cu722   2.699   .     S
Cu722  O739    1.921   .     S
Cu722  O735    1.967   .     S
Cu722  N731    2.028   .     S
Cu722  O738    1.940   .     S
Cu722  O734    1.969   .     S
H724   C818    1.084   1_455 S
N731   N790    1.288   .     S
N731   N807    1.385   .     S
N732   N847    1.288   1_455 S
N732   N868    1.385   1_455 S
F741   C767    1.359   .     S
F742   C826    1.359   1_455 S
N743   H744    1.046   .     S
N743   H745    1.046   .     S
N746   H748    1.046   .     S
N746   H747    1.046   .     S
N746   C878    1.441   .     S
N749   N847    1.385   1_455 S
N749   H866    1.044   1_455 S
N749   H867    1.044   1_455 S
H750   N807    1.044   .     S
H751   N807    1.044   .     S
N752   N790    1.385   .     S
N752   H811    1.044   .     S
N752   H812    1.044   .     S
H753   N868    1.044   1_455 S
H754   N868    1.044   1_455 S
C755   O791    1.289   .     A
C755   C761    1.436   .     S
C755   O793    1.295   .     A
C756   O792    1.289   .     A
C756   O794    1.295   .     A
C756   C762    1.436   .     S
C757   C778    1.416   .     A
C757   H787    1.076   .     S
C757   C759    1.387   .     A
C758   C760    1.387   .     A
C758   H788    1.076   .     S
C758   C777    1.417   .     A
C759   H781    1.084   .     S
C760   C254    1.392   1_556 S
C760   H840    1.084   .     S
C761   C936    1.355   .     S
C761   N975    1.441   .     S
C763   C765    1.465   .     S
C763   O797    1.299   .     A
C763   O795    1.303   .     A
C764   O796    1.304   .     A
C764   O798    1.300   .     A
C764   C766    1.468   .     S
C765   C769    1.397   .     A
C765   C771    1.397   .     A
C766   C772    1.398   .     A
C766   C770    1.398   .     A
C767   C769    1.393   .     A
C767   C775    1.409   .     A
C768   C770    1.393   .     A
C768   C776    1.408   .     A
C768   F858    1.359   .     S
C769   H786    1.083   .     S
C770   H785    1.083   .     S
C771   H784    1.075   .     S
C771   C773    1.405   .     A
C772   H783    1.075   .     S
C772   C774    1.405   .     A
C773   C777    1.428   .     A
C773   C775    1.420   .     A
C774   C776    1.419   .     A
C774   C778    1.428   .     A
C775   C237    1.392   1_556 S
C777   C256    1.424   1_556 S
Cu779  O791    1.969   .     S
Cu779  O798    1.921   .     S
Cu779  O794    1.967   .     S
Cu779  N790    2.028   .     S
Cu779  O795    1.940   .     S
Cu779  Cu780   2.699   .     S
Cu780  O797    1.921   .     S
Cu780  O793    1.967   .     S
Cu780  N789    2.028   .     S
Cu780  O796    1.940   .     S
Cu780  O792    1.969   .     S
N789   N848    1.288   .     S
N789   N865    1.385   .     S
F799   C825    1.359   .     S
N801   H802    1.046   .     S
N801   H803    1.046   .     S
N804   H806    1.046   .     S
N804   H805    1.046   .     S
N804   C936    1.441   .     S
H808   N865    1.044   .     S
H809   N865    1.044   .     S
N810   N848    1.385   .     S
N810   H869    1.044   .     S
N810   H870    1.044   .     S
C813   O849    1.289   .     A
C813   C819    1.436   .     S
C813   O851    1.295   .     A
C814   O850    1.289   .     A
C814   O852    1.295   .     A
C814   C820    1.436   .     S
C815   C836    1.416   .     A
C815   H845    1.076   .     S
C815   C817    1.387   .     A
C816   C818    1.387   .     A
C816   H846    1.076   .     S
C816   C835    1.417   .     A
C817   H839    1.084   .     S
C818   C312    1.392   1_556 S
C818   H724    1.084   1_655 S
C819   C994    1.355   .     S
C819   N1033   1.441   .     S
C821   C823    1.465   .     S
C821   O855    1.299   .     A
C821   O853    1.303   .     A
C822   O854    1.304   .     A
C822   O856    1.300   .     A
C822   C824    1.468   .     S
C823   C827    1.397   .     A
C823   C829    1.397   .     A
C824   C830    1.398   .     A
C824   C828    1.398   .     A
C825   C827    1.393   .     A
C825   C833    1.409   .     A
C826   C828    1.393   .     A
C826   C834    1.408   .     A
C826   F742    1.359   1_655 S
C827   H844    1.083   .     S
C828   H843    1.083   .     S
C829   H842    1.075   .     S
C829   C831    1.405   .     A
C830   H841    1.075   .     S
C830   C832    1.405   .     A
C831   C835    1.428   .     A
C831   C833    1.420   .     A
C832   C834    1.419   .     A
C832   C836    1.428   .     A
C833   C295    1.392   1_556 S
C835   C314    1.424   1_556 S
Cu837  O849    1.969   .     S
Cu837  O856    1.921   .     S
Cu837  O852    1.967   .     S
Cu837  N848    2.028   .     S
Cu837  O853    1.940   .     S
Cu837  Cu838   2.699   .     S
Cu838  O855    1.921   .     S
Cu838  O851    1.967   .     S
Cu838  N847    2.028   .     S
Cu838  O854    1.940   .     S
Cu838  O850    1.969   .     S
N847   N732    1.288   1_655 S
N847   N749    1.385   1_655 S
F857   C709    1.359   1_655 S
N859   H860    1.046   .     S
N859   H861    1.046   .     S
N862   H864    1.046   .     S
N862   H863    1.046   .     S
N862   C994    1.441   .     S
H866   N749    1.044   1_655 S
H867   N749    1.044   1_655 S
N868   N732    1.385   1_655 S
N868   H753    1.044   1_655 S
N868   H754    1.044   1_655 S
C871   O907    1.289   .     A
C871   C877    1.436   .     S
C871   O909    1.295   .     A
C872   O908    1.289   .     A
C872   O910    1.295   .     A
C872   C878    1.436   .     S
C873   C894    1.416   .     A
C873   H903    1.076   .     S
C873   C875    1.387   .     A
C874   C876    1.387   .     A
C874   H904    1.076   .     S
C874   C893    1.417   .     A
C875   H897    1.084   .     S
C876   C370    1.392   1_556 S
C876   H956    1.084   .     S
C877   C530    1.355   1_565 S
C877   N569    1.441   1_565 S
C879   C881    1.465   .     S
C879   O913    1.299   .     A
C879   O911    1.303   .     A
C880   O912    1.304   .     A
C880   O914    1.300   .     A
C880   C882    1.468   .     S
C881   C885    1.397   .     A
C881   C887    1.397   .     A
C882   C888    1.398   .     A
C882   C886    1.398   .     A
C883   C885    1.393   .     A
C883   C891    1.409   .     A
C883   F1031   1.359   1_455 S
C884   C886    1.393   .     A
C884   C892    1.408   .     A
C884   F974    1.359   .     S
C885   H902    1.083   .     S
C886   H901    1.083   .     S
C887   H900    1.075   .     S
C887   C889    1.405   .     A
C888   H899    1.075   .     S
C888   C890    1.405   .     A
C889   C893    1.428   .     A
C889   C891    1.420   .     A
C890   C892    1.419   .     A
C890   C894    1.428   .     A
C891   C353    1.392   1_556 S
C893   C372    1.424   1_556 S
Cu895  O907    1.969   .     S
Cu895  O914    1.921   .     S
Cu895  O910    1.967   .     S
Cu895  N906    2.028   .     S
Cu895  O911    1.940   .     S
Cu895  Cu896   2.699   .     S
Cu896  O913    1.921   .     S
Cu896  O909    1.967   .     S
Cu896  N905    2.028   .     S
Cu896  O912    1.940   .     S
Cu896  O908    1.969   .     S
H898   C992    1.084   1_455 S
N905   N964    1.288   .     S
N905   N981    1.385   .     S
N906   N1021   1.288   1_455 S
N906   N1042   1.385   1_455 S
F915   C941    1.359   .     S
F916   C1000   1.359   1_455 S
N917   H918    1.046   .     S
N917   H919    1.046   .     S
N920   H922    1.046   .     S
N920   H921    1.046   .     S
N920   C530    1.441   1_565 S
N923   N1021   1.385   1_455 S
N923   H1040   1.044   1_455 S
N923   H1041   1.044   1_455 S
H924   N981    1.044   .     S
H925   N981    1.044   .     S
N926   N964    1.385   .     S
N926   H985    1.044   .     S
N926   H986    1.044   .     S
H927   N1042   1.044   1_455 S
H928   N1042   1.044   1_455 S
C929   O965    1.289   .     A
C929   C935    1.436   .     S
C929   O967    1.295   .     A
C930   O966    1.289   .     A
C930   O968    1.295   .     A
C930   C936    1.436   .     S
C931   C952    1.416   .     A
C931   H961    1.076   .     S
C931   C933    1.387   .     A
C932   C934    1.387   .     A
C932   H962    1.076   .     S
C932   C951    1.417   .     A
C933   H955    1.084   .     S
C934   C428    1.392   1_556 S
C934   H1014   1.084   .     S
C935   C588    1.355   1_565 S
C935   N627    1.441   1_565 S
C937   C939    1.465   .     S
C937   O971    1.299   .     A
C937   O969    1.303   .     A
C938   O970    1.304   .     A
C938   O972    1.300   .     A
C938   C940    1.468   .     S
C939   C943    1.397   .     A
C939   C945    1.397   .     A
C940   C946    1.398   .     A
C940   C944    1.398   .     A
C941   C943    1.393   .     A
C941   C949    1.409   .     A
C942   C944    1.393   .     A
C942   C950    1.408   .     A
C942   F1032   1.359   .     S
C943   H960    1.083   .     S
C944   H959    1.083   .     S
C945   H958    1.075   .     S
C945   C947    1.405   .     A
C946   H957    1.075   .     S
C946   C948    1.405   .     A
C947   C951    1.428   .     A
C947   C949    1.420   .     A
C948   C950    1.419   .     A
C948   C952    1.428   .     A
C949   C411    1.392   1_556 S
C951   C430    1.424   1_556 S
Cu953  O965    1.969   .     S
Cu953  O972    1.921   .     S
Cu953  O968    1.967   .     S
Cu953  N964    2.028   .     S
Cu953  O969    1.940   .     S
Cu953  Cu954   2.699   .     S
Cu954  O971    1.921   .     S
Cu954  O967    1.967   .     S
Cu954  N963    2.028   .     S
Cu954  O970    1.940   .     S
Cu954  O966    1.969   .     S
N963   N1022   1.288   .     S
N963   N1039   1.385   .     S
F973   C999    1.359   .     S
N975   H976    1.046   .     S
N975   H977    1.046   .     S
N978   H980    1.046   .     S
N978   H979    1.046   .     S
N978   C588    1.441   1_565 S
H982   N1039   1.044   .     S
H983   N1039   1.044   .     S
N984   N1022   1.385   .     S
N984   H1043   1.044   .     S
N984   H1044   1.044   .     S
C987   O1023   1.289   .     A
C987   C993    1.436   .     S
C987   O1025   1.295   .     A
C988   O1024   1.289   .     A
C988   O1026   1.295   .     A
C988   C994    1.436   .     S
C989   C1010   1.416   .     A
C989   H1019   1.076   .     S
C989   C991    1.387   .     A
C990   C992    1.387   .     A
C990   H1020   1.076   .     S
C990   C1009   1.417   .     A
C991   H1013   1.084   .     S
C992   C486    1.392   1_556 S
C992   H898    1.084   1_655 S
C993   C646    1.355   1_565 S
C993   N685    1.441   1_565 S
C995   C997    1.465   .     S
C995   O1029   1.299   .     A
C995   O1027   1.303   .     A
C996   O1028   1.304   .     A
C996   O1030   1.300   .     A
C996   C998    1.468   .     S
C997   C1001   1.397   .     A
C997   C1003   1.397   .     A
C998   C1004   1.398   .     A
C998   C1002   1.398   .     A
C999   C1001   1.393   .     A
C999   C1007   1.409   .     A
C1000  C1002   1.393   .     A
C1000  C1008   1.408   .     A
C1000  F916    1.359   1_655 S
C1001  H1018   1.083   .     S
C1002  H1017   1.083   .     S
C1003  H1016   1.075   .     S
C1003  C1005   1.405   .     A
C1004  H1015   1.075   .     S
C1004  C1006   1.405   .     A
C1005  C1009   1.428   .     A
C1005  C1007   1.420   .     A
C1006  C1008   1.419   .     A
C1006  C1010   1.428   .     A
C1007  C469    1.392   1_556 S
C1009  C488    1.424   1_556 S
Cu1011 O1023   1.969   .     S
Cu1011 O1030   1.921   .     S
Cu1011 O1026   1.967   .     S
Cu1011 N1022   2.028   .     S
Cu1011 O1027   1.940   .     S
Cu1011 Cu1012  2.699   .     S
Cu1012 O1029   1.921   .     S
Cu1012 O1025   1.967   .     S
Cu1012 N1021   2.028   .     S
Cu1012 O1028   1.940   .     S
Cu1012 O1024   1.969   .     S
N1021  N906    1.288   1_655 S
N1021  N923    1.385   1_655 S
F1031  C883    1.359   1_655 S
N1033  H1034   1.046   .     S
N1033  H1035   1.046   .     S
N1036  H1038   1.046   .     S
N1036  H1037   1.046   .     S
N1036  C646    1.441   1_565 S
H1040  N923    1.044   1_655 S
H1041  N923    1.044   1_655 S
N1042  N906    1.385   1_655 S
N1042  H927    1.044   1_655 S
N1042  H928    1.044   1_655 S
