data_str_m2_o1_o17_pcu_sym.153
_audit_creation_date              2020-01-03
_audit_creation_method            'Materials Studio'
_symmetry_space_group_name_H-M    'P1'
_symmetry_Int_Tables_number       1
_symmetry_cell_setting            triclinic
loop_
_symmetry_equiv_pos_as_xyz
  x,y,z
_cell_length_a                    32.7371
_cell_length_b                    29.1397
_cell_length_c                    30.3744
_cell_angle_alpha                 89.9134
_cell_angle_beta                  102.2644
_cell_angle_gamma                 90.1198
loop_
_atom_site_label
_atom_site_type_symbol
_atom_site_fract_x
_atom_site_fract_y
_atom_site_fract_z
_atom_site_U_iso_or_equiv
_atom_site_adp_type
_atom_site_occupancy
C1     C     0.08785   0.16659   0.25231   0.00000  Uiso   1.00
C2     C     0.24510   0.16691   0.24684   0.00000  Uiso   1.00
C3     C     0.09423   0.20911   0.00479   0.00000  Uiso   1.00
C4     C     0.22777   0.12562   0.49110   0.00000  Uiso   1.00
C5     C     0.01966   0.12504   0.24676   0.00000  Uiso   1.00
C6     C     0.31172   0.20948   0.24722   0.00000  Uiso   1.00
C7     C     0.30959   0.12655   0.23735   0.00000  Uiso   1.00
C8     C     0.02179   0.20870   0.25492   0.00000  Uiso   1.00
C9     C     0.28909   0.16779   0.24305   0.00000  Uiso   1.00
C10    C     0.04298   0.16655   0.25306   0.00000  Uiso   1.00
C11    C     0.13886   0.02443   0.21642   0.00000  Uiso   1.00
C12    C     0.19574   0.30805   0.28194   0.00000  Uiso   1.00
C13    C     0.19614   0.02498   0.28168   0.00000  Uiso   1.00
C14    C     0.13809   0.30782   0.21815   0.00000  Uiso   1.00
C15    C     0.16394   0.16689   0.16376   0.00000  Uiso   1.00
C16    C     0.16542   0.16668   0.33538   0.00000  Uiso   1.00
C17    C     0.18588   0.13554   0.41397   0.00000  Uiso   1.00
C18    C     0.12520   0.17795   0.08198   0.00000  Uiso   1.00
C19    C     0.16300   0.16720   0.38356   0.00000  Uiso   1.00
C20    C     0.16233   0.16792   0.11444   0.00000  Uiso   1.00
C21    C     0.13738   0.19888   0.40015   0.00000  Uiso   1.00
C22    C     0.19919   0.15953   0.09947   0.00000  Uiso   1.00
C23    C     0.13181   0.19372   0.44481   0.00000  Uiso   1.00
C24    C     0.19739   0.15266   0.05331   0.00000  Uiso   1.00
C25    C     0.16325   0.17080   0.47599   0.00000  Uiso   1.00
C26    C     0.16298   0.17126   0.02213   0.00000  Uiso   1.00
C27    C     0.19364   0.14505   0.46026   0.00000  Uiso   1.00
C28    C     0.12751   0.18808   0.03690   0.00000  Uiso   1.00
C29    C     0.09597   0.20957   0.45877   0.00000  Uiso   1.00
C30    C     0.22864   0.12791   0.03755   0.00000  Uiso   1.00
Cu31   Cu    0.16667   0.21355   0.25000   0.00000  Uiso   1.00
Cu32   Cu    0.16667   0.11978   0.25000   0.00000  Uiso   1.00
N33    N     0.16667   0.28402   0.25000   0.00000  Uiso   1.00
N34    N     0.16667   0.04931   0.25000   0.00000  Uiso   1.00
O35    O     0.10655   0.20625   0.25000   0.00000  Uiso   1.00
O36    O     0.22679   0.12709   0.25001   0.00000  Uiso   1.00
O37    O     0.22679   0.20625   0.25001   0.00000  Uiso   1.00
O38    O     0.10655   0.12709   0.25000   0.00000  Uiso   1.00
O39    O     0.16666   0.20627   0.18513   0.00000  Uiso   1.00
O40    O     0.16668   0.12707   0.31487   0.00000  Uiso   1.00
O41    O     0.16668   0.20627   0.31487   0.00000  Uiso   1.00
O42    O     0.16666   0.12707   0.18513   0.00000  Uiso   1.00
Cl43   Cl    0.18462   0.07737   0.39867   0.00000  Uiso   1.00
Cl44   Cl    0.07649   0.16019   0.09171   0.00000  Uiso   1.00
Cl45   Cl    0.11601   0.24690   0.36757   0.00000  Uiso   1.00
Cl46   Cl    0.24773   0.16678   0.13723   0.00000  Uiso   1.00
Cl47   Cl    0.04903   0.21915   0.41798   0.00000  Uiso   1.00
Cl48   Cl    0.26313   0.09075   0.07419   0.00000  Uiso   1.00
S49    S     0.05152   0.23959   0.01933   0.00000  Uiso   1.00
O50    O     0.01314   0.20980   0.00895   0.00000  Uiso   1.00
O51    O     0.05969   0.25330   0.06784   0.00000  Uiso   1.00
O52    O     0.04245   0.28777   0.48818   0.00000  Uiso   1.00
H53    H     0.01580   0.29996   0.49382   0.00000  Uiso   1.00
S54    S     0.27215   0.10378   0.47259   0.00000  Uiso   1.00
O55    O     0.31151   0.11453   0.00662   0.00000  Uiso   1.00
O56    O     0.26805   0.05262   0.46715   0.00000  Uiso   1.00
O57    O     0.27591   0.12783   0.42331   0.00000  Uiso   1.00
H58    H     0.30335   0.11767   0.41810   0.00000  Uiso   1.00
Cl59   Cl    0.04257   0.06958   0.25408   0.00000  Uiso   1.00
Cl60   Cl    0.28704   0.26391   0.23671   0.00000  Uiso   1.00
Cl61   Cl    0.28189   0.07830   0.21023   0.00000  Uiso   1.00
Cl62   Cl    0.04787   0.26165   0.27044   0.00000  Uiso   1.00
S63    S     0.10854   0.05340   0.16516   0.00000  Uiso   1.00
O64    O     0.13834   0.06560   0.13555   0.00000  Uiso   1.00
O65    O     0.07460   0.02791   0.13400   0.00000  Uiso   1.00
O66    O     0.08105   0.09840   0.17633   0.00000  Uiso   1.00
H67    H     0.09488   0.12611   0.16876   0.00000  Uiso   1.00
S68    S     0.23207   0.27813   0.32764   0.00000  Uiso   1.00
O69    O     0.27557   0.29647   0.33149   0.00000  Uiso   1.00
O70    O     0.21741   0.28864   0.37022   0.00000  Uiso   1.00
O71    O     0.24009   0.22138   0.32890   0.00000  Uiso   1.00
H72    H     0.25795   0.21486   0.35891   0.00000  Uiso   1.00
S73    S     0.24065   0.05398   0.31865   0.00000  Uiso   1.00
O74    O     0.24963   0.03409   0.36520   0.00000  Uiso   1.00
O75    O     0.27817   0.04505   0.29885   0.00000  Uiso   1.00
O76    O     0.24029   0.11038   0.32884   0.00000  Uiso   1.00
H77    H     0.27000   0.12006   0.33532   0.00000  Uiso   1.00
S78    S     0.10057   0.27792   0.17545   0.00000  Uiso   1.00
O79    O     0.05828   0.29735   0.17686   0.00000  Uiso   1.00
O80    O     0.11338   0.28932   0.13208   0.00000  Uiso   1.00
O81    O     0.09236   0.22129   0.17238   0.00000  Uiso   1.00
H82    H     0.06173   0.21698   0.16266   0.00000  Uiso   1.00
C83    C     0.42118   0.16659   0.25231   0.00000  Uiso   1.00
C84    C     0.57844   0.16691   0.24684   0.00000  Uiso   1.00
C85    C     0.42756   0.20911   0.00479   0.00000  Uiso   1.00
C86    C     0.56111   0.12562   0.49110   0.00000  Uiso   1.00
C87    C     0.35299   0.12504   0.24676   0.00000  Uiso   1.00
C88    C     0.64505   0.20948   0.24722   0.00000  Uiso   1.00
C89    C     0.64292   0.12655   0.23735   0.00000  Uiso   1.00
C90    C     0.35512   0.20870   0.25492   0.00000  Uiso   1.00
C91    C     0.62242   0.16779   0.24305   0.00000  Uiso   1.00
C92    C     0.37631   0.16655   0.25306   0.00000  Uiso   1.00
C93    C     0.47219   0.02443   0.21642   0.00000  Uiso   1.00
C94    C     0.52907   0.30805   0.28194   0.00000  Uiso   1.00
C95    C     0.52947   0.02498   0.28168   0.00000  Uiso   1.00
C96    C     0.47143   0.30782   0.21815   0.00000  Uiso   1.00
C97    C     0.49728   0.16689   0.16376   0.00000  Uiso   1.00
C98    C     0.49875   0.16668   0.33538   0.00000  Uiso   1.00
C99    C     0.51922   0.13554   0.41397   0.00000  Uiso   1.00
C100   C     0.45853   0.17795   0.08198   0.00000  Uiso   1.00
C101   C     0.49633   0.16720   0.38356   0.00000  Uiso   1.00
C102   C     0.49567   0.16792   0.11444   0.00000  Uiso   1.00
C103   C     0.47072   0.19888   0.40015   0.00000  Uiso   1.00
C104   C     0.53252   0.15953   0.09947   0.00000  Uiso   1.00
C105   C     0.46515   0.19372   0.44481   0.00000  Uiso   1.00
C106   C     0.53072   0.15266   0.05331   0.00000  Uiso   1.00
C107   C     0.49658   0.17080   0.47599   0.00000  Uiso   1.00
C108   C     0.49632   0.17126   0.02213   0.00000  Uiso   1.00
C109   C     0.52698   0.14505   0.46026   0.00000  Uiso   1.00
C110   C     0.46084   0.18808   0.03690   0.00000  Uiso   1.00
C111   C     0.42930   0.20957   0.45877   0.00000  Uiso   1.00
C112   C     0.56197   0.12791   0.03755   0.00000  Uiso   1.00
Cu113  Cu    0.50000   0.21355   0.25000   0.00000  Uiso   1.00
Cu114  Cu    0.50000   0.11978   0.25000   0.00000  Uiso   1.00
N115   N     0.50000   0.28402   0.25000   0.00000  Uiso   1.00
N116   N     0.50000   0.04931   0.25000   0.00000  Uiso   1.00
O117   O     0.43988   0.20625   0.25000   0.00000  Uiso   1.00
O118   O     0.56012   0.12709   0.25001   0.00000  Uiso   1.00
O119   O     0.56012   0.20625   0.25001   0.00000  Uiso   1.00
O120   O     0.43988   0.12709   0.25000   0.00000  Uiso   1.00
O121   O     0.49999   0.20627   0.18513   0.00000  Uiso   1.00
O122   O     0.50001   0.12707   0.31487   0.00000  Uiso   1.00
O123   O     0.50001   0.20627   0.31487   0.00000  Uiso   1.00
O124   O     0.49999   0.12707   0.18513   0.00000  Uiso   1.00
Cl125  Cl    0.51795   0.07737   0.39867   0.00000  Uiso   1.00
Cl126  Cl    0.40982   0.16019   0.09171   0.00000  Uiso   1.00
Cl127  Cl    0.44934   0.24690   0.36757   0.00000  Uiso   1.00
Cl128  Cl    0.58106   0.16678   0.13723   0.00000  Uiso   1.00
Cl129  Cl    0.38236   0.21915   0.41798   0.00000  Uiso   1.00
Cl130  Cl    0.59646   0.09075   0.07419   0.00000  Uiso   1.00
S131   S     0.38485   0.23959   0.01933   0.00000  Uiso   1.00
O132   O     0.34647   0.20980   0.00895   0.00000  Uiso   1.00
O133   O     0.39302   0.25330   0.06784   0.00000  Uiso   1.00
O134   O     0.37578   0.28777   0.48818   0.00000  Uiso   1.00
H135   H     0.34913   0.29996   0.49382   0.00000  Uiso   1.00
S136   S     0.60548   0.10378   0.47259   0.00000  Uiso   1.00
O137   O     0.64485   0.11453   0.00662   0.00000  Uiso   1.00
O138   O     0.60139   0.05262   0.46715   0.00000  Uiso   1.00
O139   O     0.60925   0.12783   0.42331   0.00000  Uiso   1.00
H140   H     0.63669   0.11767   0.41810   0.00000  Uiso   1.00
Cl141  Cl    0.37590   0.06958   0.25408   0.00000  Uiso   1.00
Cl142  Cl    0.62038   0.26391   0.23671   0.00000  Uiso   1.00
Cl143  Cl    0.61523   0.07830   0.21023   0.00000  Uiso   1.00
Cl144  Cl    0.38120   0.26165   0.27044   0.00000  Uiso   1.00
S145   S     0.44188   0.05340   0.16516   0.00000  Uiso   1.00
O146   O     0.47167   0.06560   0.13555   0.00000  Uiso   1.00
O147   O     0.40793   0.02791   0.13400   0.00000  Uiso   1.00
O148   O     0.41438   0.09840   0.17633   0.00000  Uiso   1.00
H149   H     0.42821   0.12611   0.16876   0.00000  Uiso   1.00
S150   S     0.56540   0.27813   0.32764   0.00000  Uiso   1.00
O151   O     0.60890   0.29647   0.33149   0.00000  Uiso   1.00
O152   O     0.55074   0.28864   0.37022   0.00000  Uiso   1.00
O153   O     0.57342   0.22138   0.32890   0.00000  Uiso   1.00
H154   H     0.59128   0.21486   0.35891   0.00000  Uiso   1.00
S155   S     0.57398   0.05398   0.31865   0.00000  Uiso   1.00
O156   O     0.58297   0.03409   0.36520   0.00000  Uiso   1.00
O157   O     0.61150   0.04505   0.29885   0.00000  Uiso   1.00
O158   O     0.57362   0.11038   0.32884   0.00000  Uiso   1.00
H159   H     0.60333   0.12006   0.33532   0.00000  Uiso   1.00
S160   S     0.43390   0.27792   0.17545   0.00000  Uiso   1.00
O161   O     0.39161   0.29735   0.17686   0.00000  Uiso   1.00
O162   O     0.44671   0.28932   0.13208   0.00000  Uiso   1.00
O163   O     0.42569   0.22129   0.17238   0.00000  Uiso   1.00
H164   H     0.39506   0.21698   0.16266   0.00000  Uiso   1.00
C165   C     0.75451   0.16659   0.25231   0.00000  Uiso   1.00
C166   C     0.91177   0.16691   0.24684   0.00000  Uiso   1.00
C167   C     0.76089   0.20911   0.00479   0.00000  Uiso   1.00
C168   C     0.89444   0.12562   0.49110   0.00000  Uiso   1.00
C169   C     0.68633   0.12504   0.24676   0.00000  Uiso   1.00
C170   C     0.97839   0.20948   0.24722   0.00000  Uiso   1.00
C171   C     0.97625   0.12655   0.23735   0.00000  Uiso   1.00
C172   C     0.68845   0.20870   0.25492   0.00000  Uiso   1.00
C173   C     0.95576   0.16779   0.24305   0.00000  Uiso   1.00
C174   C     0.70964   0.16655   0.25306   0.00000  Uiso   1.00
C175   C     0.80552   0.02443   0.21642   0.00000  Uiso   1.00
C176   C     0.86241   0.30805   0.28194   0.00000  Uiso   1.00
C177   C     0.86281   0.02498   0.28168   0.00000  Uiso   1.00
C178   C     0.80476   0.30782   0.21815   0.00000  Uiso   1.00
C179   C     0.83061   0.16689   0.16376   0.00000  Uiso   1.00
C180   C     0.83208   0.16668   0.33538   0.00000  Uiso   1.00
C181   C     0.85255   0.13554   0.41397   0.00000  Uiso   1.00
C182   C     0.79187   0.17795   0.08198   0.00000  Uiso   1.00
C183   C     0.82967   0.16720   0.38356   0.00000  Uiso   1.00
C184   C     0.82900   0.16792   0.11444   0.00000  Uiso   1.00
C185   C     0.80405   0.19888   0.40015   0.00000  Uiso   1.00
C186   C     0.86586   0.15953   0.09947   0.00000  Uiso   1.00
C187   C     0.79848   0.19372   0.44481   0.00000  Uiso   1.00
C188   C     0.86406   0.15266   0.05331   0.00000  Uiso   1.00
C189   C     0.82991   0.17080   0.47599   0.00000  Uiso   1.00
C190   C     0.82965   0.17126   0.02213   0.00000  Uiso   1.00
C191   C     0.86031   0.14505   0.46026   0.00000  Uiso   1.00
C192   C     0.79417   0.18808   0.03690   0.00000  Uiso   1.00
C193   C     0.76264   0.20957   0.45877   0.00000  Uiso   1.00
C194   C     0.89530   0.12791   0.03755   0.00000  Uiso   1.00
Cu195  Cu    0.83333   0.21355   0.25000   0.00000  Uiso   1.00
Cu196  Cu    0.83333   0.11978   0.25000   0.00000  Uiso   1.00
N197   N     0.83333   0.28402   0.25000   0.00000  Uiso   1.00
N198   N     0.83333   0.04931   0.25000   0.00000  Uiso   1.00
O199   O     0.77321   0.20625   0.25000   0.00000  Uiso   1.00
O200   O     0.89345   0.12709   0.25001   0.00000  Uiso   1.00
O201   O     0.89345   0.20625   0.25001   0.00000  Uiso   1.00
O202   O     0.77321   0.12709   0.25000   0.00000  Uiso   1.00
O203   O     0.83332   0.20627   0.18513   0.00000  Uiso   1.00
O204   O     0.83334   0.12707   0.31487   0.00000  Uiso   1.00
O205   O     0.83334   0.20627   0.31487   0.00000  Uiso   1.00
O206   O     0.83332   0.12707   0.18513   0.00000  Uiso   1.00
Cl207  Cl    0.85129   0.07737   0.39867   0.00000  Uiso   1.00
Cl208  Cl    0.74315   0.16019   0.09171   0.00000  Uiso   1.00
Cl209  Cl    0.78268   0.24690   0.36757   0.00000  Uiso   1.00
Cl210  Cl    0.91439   0.16678   0.13723   0.00000  Uiso   1.00
Cl211  Cl    0.71569   0.21915   0.41798   0.00000  Uiso   1.00
Cl212  Cl    0.92979   0.09075   0.07419   0.00000  Uiso   1.00
S213   S     0.71818   0.23959   0.01933   0.00000  Uiso   1.00
O214   O     0.67981   0.20980   0.00895   0.00000  Uiso   1.00
O215   O     0.72635   0.25330   0.06784   0.00000  Uiso   1.00
O216   O     0.70911   0.28777   0.48818   0.00000  Uiso   1.00
H217   H     0.68247   0.29996   0.49382   0.00000  Uiso   1.00
S218   S     0.93882   0.10378   0.47259   0.00000  Uiso   1.00
O219   O     0.97818   0.11453   0.00662   0.00000  Uiso   1.00
O220   O     0.93472   0.05262   0.46715   0.00000  Uiso   1.00
O221   O     0.94258   0.12783   0.42331   0.00000  Uiso   1.00
H222   H     0.97002   0.11767   0.41810   0.00000  Uiso   1.00
Cl223  Cl    0.70924   0.06958   0.25408   0.00000  Uiso   1.00
Cl224  Cl    0.95371   0.26391   0.23671   0.00000  Uiso   1.00
Cl225  Cl    0.94856   0.07830   0.21023   0.00000  Uiso   1.00
Cl226  Cl    0.71453   0.26165   0.27044   0.00000  Uiso   1.00
S227   S     0.77521   0.05340   0.16516   0.00000  Uiso   1.00
O228   O     0.80500   0.06560   0.13555   0.00000  Uiso   1.00
O229   O     0.74127   0.02791   0.13400   0.00000  Uiso   1.00
O230   O     0.74772   0.09840   0.17633   0.00000  Uiso   1.00
H231   H     0.76155   0.12611   0.16876   0.00000  Uiso   1.00
S232   S     0.89874   0.27813   0.32764   0.00000  Uiso   1.00
O233   O     0.94223   0.29647   0.33149   0.00000  Uiso   1.00
O234   O     0.88407   0.28864   0.37022   0.00000  Uiso   1.00
O235   O     0.90676   0.22138   0.32890   0.00000  Uiso   1.00
H236   H     0.92461   0.21486   0.35891   0.00000  Uiso   1.00
S237   S     0.90732   0.05398   0.31865   0.00000  Uiso   1.00
O238   O     0.91630   0.03409   0.36520   0.00000  Uiso   1.00
O239   O     0.94483   0.04505   0.29885   0.00000  Uiso   1.00
O240   O     0.90695   0.11038   0.32884   0.00000  Uiso   1.00
H241   H     0.93666   0.12006   0.33532   0.00000  Uiso   1.00
S242   S     0.76723   0.27792   0.17545   0.00000  Uiso   1.00
O243   O     0.72494   0.29735   0.17686   0.00000  Uiso   1.00
O244   O     0.78005   0.28932   0.13208   0.00000  Uiso   1.00
O245   O     0.75903   0.22129   0.17238   0.00000  Uiso   1.00
H246   H     0.72839   0.21698   0.16266   0.00000  Uiso   1.00
C247   C     0.08785   0.49992   0.25231   0.00000  Uiso   1.00
C248   C     0.24510   0.50024   0.24684   0.00000  Uiso   1.00
C249   C     0.09423   0.54244   0.00479   0.00000  Uiso   1.00
C250   C     0.22777   0.45895   0.49110   0.00000  Uiso   1.00
C251   C     0.01966   0.45837   0.24676   0.00000  Uiso   1.00
C252   C     0.31172   0.54282   0.24722   0.00000  Uiso   1.00
C253   C     0.30959   0.45988   0.23735   0.00000  Uiso   1.00
C254   C     0.02179   0.54203   0.25492   0.00000  Uiso   1.00
C255   C     0.28909   0.50113   0.24305   0.00000  Uiso   1.00
C256   C     0.04298   0.49988   0.25306   0.00000  Uiso   1.00
C257   C     0.13886   0.35777   0.21642   0.00000  Uiso   1.00
C258   C     0.19574   0.64139   0.28194   0.00000  Uiso   1.00
C259   C     0.19614   0.35831   0.28168   0.00000  Uiso   1.00
C260   C     0.13809   0.64116   0.21815   0.00000  Uiso   1.00
C261   C     0.16394   0.50022   0.16376   0.00000  Uiso   1.00
C262   C     0.16542   0.50002   0.33538   0.00000  Uiso   1.00
C263   C     0.18588   0.46888   0.41397   0.00000  Uiso   1.00
C264   C     0.12520   0.51128   0.08198   0.00000  Uiso   1.00
C265   C     0.16300   0.50054   0.38356   0.00000  Uiso   1.00
C266   C     0.16233   0.50125   0.11444   0.00000  Uiso   1.00
C267   C     0.13738   0.53221   0.40015   0.00000  Uiso   1.00
C268   C     0.19919   0.49286   0.09947   0.00000  Uiso   1.00
C269   C     0.13181   0.52705   0.44481   0.00000  Uiso   1.00
C270   C     0.19739   0.48599   0.05331   0.00000  Uiso   1.00
C271   C     0.16325   0.50413   0.47599   0.00000  Uiso   1.00
C272   C     0.16298   0.50459   0.02213   0.00000  Uiso   1.00
C273   C     0.19364   0.47838   0.46026   0.00000  Uiso   1.00
C274   C     0.12751   0.52141   0.03690   0.00000  Uiso   1.00
C275   C     0.09597   0.54291   0.45877   0.00000  Uiso   1.00
C276   C     0.22864   0.46125   0.03755   0.00000  Uiso   1.00
Cu277  Cu    0.16667   0.54689   0.25000   0.00000  Uiso   1.00
Cu278  Cu    0.16667   0.45311   0.25000   0.00000  Uiso   1.00
N279   N     0.16667   0.61736   0.25000   0.00000  Uiso   1.00
N280   N     0.16667   0.38264   0.25000   0.00000  Uiso   1.00
O281   O     0.10655   0.53958   0.25000   0.00000  Uiso   1.00
O282   O     0.22679   0.46042   0.25001   0.00000  Uiso   1.00
O283   O     0.22679   0.53958   0.25001   0.00000  Uiso   1.00
O284   O     0.10655   0.46042   0.25000   0.00000  Uiso   1.00
O285   O     0.16666   0.53960   0.18513   0.00000  Uiso   1.00
O286   O     0.16668   0.46040   0.31487   0.00000  Uiso   1.00
O287   O     0.16668   0.53960   0.31487   0.00000  Uiso   1.00
O288   O     0.16666   0.46040   0.18513   0.00000  Uiso   1.00
Cl289  Cl    0.18462   0.41070   0.39867   0.00000  Uiso   1.00
Cl290  Cl    0.07649   0.49353   0.09171   0.00000  Uiso   1.00
Cl291  Cl    0.11601   0.58023   0.36757   0.00000  Uiso   1.00
Cl292  Cl    0.24773   0.50011   0.13723   0.00000  Uiso   1.00
Cl293  Cl    0.04903   0.55248   0.41798   0.00000  Uiso   1.00
Cl294  Cl    0.26313   0.42409   0.07419   0.00000  Uiso   1.00
S295   S     0.05152   0.57292   0.01933   0.00000  Uiso   1.00
O296   O     0.01314   0.54313   0.00895   0.00000  Uiso   1.00
O297   O     0.05969   0.58663   0.06784   0.00000  Uiso   1.00
O298   O     0.04245   0.62110   0.48818   0.00000  Uiso   1.00
H299   H     0.01580   0.63329   0.49382   0.00000  Uiso   1.00
S300   S     0.27215   0.43711   0.47259   0.00000  Uiso   1.00
O301   O     0.31151   0.44786   0.00662   0.00000  Uiso   1.00
O302   O     0.26805   0.38595   0.46715   0.00000  Uiso   1.00
O303   O     0.27591   0.46116   0.42331   0.00000  Uiso   1.00
H304   H     0.30335   0.45100   0.41810   0.00000  Uiso   1.00
Cl305  Cl    0.04257   0.40292   0.25408   0.00000  Uiso   1.00
Cl306  Cl    0.28704   0.59725   0.23671   0.00000  Uiso   1.00
Cl307  Cl    0.28189   0.41164   0.21023   0.00000  Uiso   1.00
Cl308  Cl    0.04787   0.59498   0.27044   0.00000  Uiso   1.00
S309   S     0.10854   0.38673   0.16516   0.00000  Uiso   1.00
O310   O     0.13834   0.39893   0.13555   0.00000  Uiso   1.00
O311   O     0.07460   0.36125   0.13400   0.00000  Uiso   1.00
O312   O     0.08105   0.43173   0.17633   0.00000  Uiso   1.00
H313   H     0.09488   0.45944   0.16876   0.00000  Uiso   1.00
S314   S     0.23207   0.61146   0.32764   0.00000  Uiso   1.00
O315   O     0.27557   0.62980   0.33149   0.00000  Uiso   1.00
O316   O     0.21741   0.62198   0.37022   0.00000  Uiso   1.00
O317   O     0.24009   0.55472   0.32890   0.00000  Uiso   1.00
H318   H     0.25795   0.54819   0.35891   0.00000  Uiso   1.00
S319   S     0.24065   0.38731   0.31865   0.00000  Uiso   1.00
O320   O     0.24963   0.36743   0.36520   0.00000  Uiso   1.00
O321   O     0.27817   0.37838   0.29885   0.00000  Uiso   1.00
O322   O     0.24029   0.44371   0.32884   0.00000  Uiso   1.00
H323   H     0.27000   0.45340   0.33532   0.00000  Uiso   1.00
S324   S     0.10057   0.61126   0.17545   0.00000  Uiso   1.00
O325   O     0.05828   0.63068   0.17686   0.00000  Uiso   1.00
O326   O     0.11338   0.62265   0.13208   0.00000  Uiso   1.00
O327   O     0.09236   0.55462   0.17238   0.00000  Uiso   1.00
H328   H     0.06173   0.55031   0.16266   0.00000  Uiso   1.00
C329   C     0.42118   0.49992   0.25231   0.00000  Uiso   1.00
C330   C     0.57844   0.50024   0.24684   0.00000  Uiso   1.00
C331   C     0.42756   0.54244   0.00479   0.00000  Uiso   1.00
C332   C     0.56111   0.45895   0.49110   0.00000  Uiso   1.00
C333   C     0.35299   0.45837   0.24676   0.00000  Uiso   1.00
C334   C     0.64505   0.54282   0.24722   0.00000  Uiso   1.00
C335   C     0.64292   0.45988   0.23735   0.00000  Uiso   1.00
C336   C     0.35512   0.54203   0.25492   0.00000  Uiso   1.00
C337   C     0.62242   0.50113   0.24305   0.00000  Uiso   1.00
C338   C     0.37631   0.49988   0.25306   0.00000  Uiso   1.00
C339   C     0.47219   0.35777   0.21642   0.00000  Uiso   1.00
C340   C     0.52907   0.64139   0.28194   0.00000  Uiso   1.00
C341   C     0.52947   0.35831   0.28168   0.00000  Uiso   1.00
C342   C     0.47143   0.64116   0.21815   0.00000  Uiso   1.00
C343   C     0.49728   0.50022   0.16376   0.00000  Uiso   1.00
C344   C     0.49875   0.50002   0.33538   0.00000  Uiso   1.00
C345   C     0.51922   0.46888   0.41397   0.00000  Uiso   1.00
C346   C     0.45853   0.51128   0.08198   0.00000  Uiso   1.00
C347   C     0.49633   0.50054   0.38356   0.00000  Uiso   1.00
C348   C     0.49567   0.50125   0.11444   0.00000  Uiso   1.00
C349   C     0.47072   0.53221   0.40015   0.00000  Uiso   1.00
C350   C     0.53252   0.49286   0.09947   0.00000  Uiso   1.00
C351   C     0.46515   0.52705   0.44481   0.00000  Uiso   1.00
C352   C     0.53072   0.48599   0.05331   0.00000  Uiso   1.00
C353   C     0.49658   0.50413   0.47599   0.00000  Uiso   1.00
C354   C     0.49632   0.50459   0.02213   0.00000  Uiso   1.00
C355   C     0.52698   0.47838   0.46026   0.00000  Uiso   1.00
C356   C     0.46084   0.52141   0.03690   0.00000  Uiso   1.00
C357   C     0.42930   0.54291   0.45877   0.00000  Uiso   1.00
C358   C     0.56197   0.46125   0.03755   0.00000  Uiso   1.00
Cu359  Cu    0.50000   0.54689   0.25000   0.00000  Uiso   1.00
Cu360  Cu    0.50000   0.45311   0.25000   0.00000  Uiso   1.00
N361   N     0.50000   0.61736   0.25000   0.00000  Uiso   1.00
N362   N     0.50000   0.38264   0.25000   0.00000  Uiso   1.00
O363   O     0.43988   0.53958   0.25000   0.00000  Uiso   1.00
O364   O     0.56012   0.46042   0.25001   0.00000  Uiso   1.00
O365   O     0.56012   0.53958   0.25001   0.00000  Uiso   1.00
O366   O     0.43988   0.46042   0.25000   0.00000  Uiso   1.00
O367   O     0.49999   0.53960   0.18513   0.00000  Uiso   1.00
O368   O     0.50001   0.46040   0.31487   0.00000  Uiso   1.00
O369   O     0.50001   0.53960   0.31487   0.00000  Uiso   1.00
O370   O     0.49999   0.46040   0.18513   0.00000  Uiso   1.00
Cl371  Cl    0.51795   0.41070   0.39867   0.00000  Uiso   1.00
Cl372  Cl    0.40982   0.49353   0.09171   0.00000  Uiso   1.00
Cl373  Cl    0.44934   0.58023   0.36757   0.00000  Uiso   1.00
Cl374  Cl    0.58106   0.50011   0.13723   0.00000  Uiso   1.00
Cl375  Cl    0.38236   0.55248   0.41798   0.00000  Uiso   1.00
Cl376  Cl    0.59646   0.42409   0.07419   0.00000  Uiso   1.00
S377   S     0.38485   0.57292   0.01933   0.00000  Uiso   1.00
O378   O     0.34647   0.54313   0.00895   0.00000  Uiso   1.00
O379   O     0.39302   0.58663   0.06784   0.00000  Uiso   1.00
O380   O     0.37578   0.62110   0.48818   0.00000  Uiso   1.00
H381   H     0.34913   0.63329   0.49382   0.00000  Uiso   1.00
S382   S     0.60548   0.43711   0.47259   0.00000  Uiso   1.00
O383   O     0.64485   0.44786   0.00662   0.00000  Uiso   1.00
O384   O     0.60139   0.38595   0.46715   0.00000  Uiso   1.00
O385   O     0.60925   0.46116   0.42331   0.00000  Uiso   1.00
H386   H     0.63669   0.45100   0.41810   0.00000  Uiso   1.00
Cl387  Cl    0.37590   0.40292   0.25408   0.00000  Uiso   1.00
Cl388  Cl    0.62038   0.59725   0.23671   0.00000  Uiso   1.00
Cl389  Cl    0.61523   0.41164   0.21023   0.00000  Uiso   1.00
Cl390  Cl    0.38120   0.59498   0.27044   0.00000  Uiso   1.00
S391   S     0.44188   0.38673   0.16516   0.00000  Uiso   1.00
O392   O     0.47167   0.39893   0.13555   0.00000  Uiso   1.00
O393   O     0.40793   0.36125   0.13400   0.00000  Uiso   1.00
O394   O     0.41438   0.43173   0.17633   0.00000  Uiso   1.00
H395   H     0.42821   0.45944   0.16876   0.00000  Uiso   1.00
S396   S     0.56540   0.61146   0.32764   0.00000  Uiso   1.00
O397   O     0.60890   0.62980   0.33149   0.00000  Uiso   1.00
O398   O     0.55074   0.62198   0.37022   0.00000  Uiso   1.00
O399   O     0.57342   0.55472   0.32890   0.00000  Uiso   1.00
H400   H     0.59128   0.54819   0.35891   0.00000  Uiso   1.00
S401   S     0.57398   0.38731   0.31865   0.00000  Uiso   1.00
O402   O     0.58297   0.36743   0.36520   0.00000  Uiso   1.00
O403   O     0.61150   0.37838   0.29885   0.00000  Uiso   1.00
O404   O     0.57362   0.44371   0.32884   0.00000  Uiso   1.00
H405   H     0.60333   0.45340   0.33532   0.00000  Uiso   1.00
S406   S     0.43390   0.61126   0.17545   0.00000  Uiso   1.00
O407   O     0.39161   0.63068   0.17686   0.00000  Uiso   1.00
O408   O     0.44671   0.62265   0.13208   0.00000  Uiso   1.00
O409   O     0.42569   0.55462   0.17238   0.00000  Uiso   1.00
H410   H     0.39506   0.55031   0.16266   0.00000  Uiso   1.00
C411   C     0.75451   0.49992   0.25231   0.00000  Uiso   1.00
C412   C     0.91177   0.50024   0.24684   0.00000  Uiso   1.00
C413   C     0.76089   0.54244   0.00479   0.00000  Uiso   1.00
C414   C     0.89444   0.45895   0.49110   0.00000  Uiso   1.00
C415   C     0.68633   0.45837   0.24676   0.00000  Uiso   1.00
C416   C     0.97839   0.54282   0.24722   0.00000  Uiso   1.00
C417   C     0.97625   0.45988   0.23735   0.00000  Uiso   1.00
C418   C     0.68845   0.54203   0.25492   0.00000  Uiso   1.00
C419   C     0.95576   0.50113   0.24305   0.00000  Uiso   1.00
C420   C     0.70964   0.49988   0.25306   0.00000  Uiso   1.00
C421   C     0.80552   0.35777   0.21642   0.00000  Uiso   1.00
C422   C     0.86241   0.64139   0.28194   0.00000  Uiso   1.00
C423   C     0.86281   0.35831   0.28168   0.00000  Uiso   1.00
C424   C     0.80476   0.64116   0.21815   0.00000  Uiso   1.00
C425   C     0.83061   0.50022   0.16376   0.00000  Uiso   1.00
C426   C     0.83208   0.50002   0.33538   0.00000  Uiso   1.00
C427   C     0.85255   0.46888   0.41397   0.00000  Uiso   1.00
C428   C     0.79187   0.51128   0.08198   0.00000  Uiso   1.00
C429   C     0.82967   0.50054   0.38356   0.00000  Uiso   1.00
C430   C     0.82900   0.50125   0.11444   0.00000  Uiso   1.00
C431   C     0.80405   0.53221   0.40015   0.00000  Uiso   1.00
C432   C     0.86586   0.49286   0.09947   0.00000  Uiso   1.00
C433   C     0.79848   0.52705   0.44481   0.00000  Uiso   1.00
C434   C     0.86406   0.48599   0.05331   0.00000  Uiso   1.00
C435   C     0.82991   0.50413   0.47599   0.00000  Uiso   1.00
C436   C     0.82965   0.50459   0.02213   0.00000  Uiso   1.00
C437   C     0.86031   0.47838   0.46026   0.00000  Uiso   1.00
C438   C     0.79417   0.52141   0.03690   0.00000  Uiso   1.00
C439   C     0.76264   0.54291   0.45877   0.00000  Uiso   1.00
C440   C     0.89530   0.46125   0.03755   0.00000  Uiso   1.00
Cu441  Cu    0.83333   0.54689   0.25000   0.00000  Uiso   1.00
Cu442  Cu    0.83333   0.45311   0.25000   0.00000  Uiso   1.00
N443   N     0.83333   0.61736   0.25000   0.00000  Uiso   1.00
N444   N     0.83333   0.38264   0.25000   0.00000  Uiso   1.00
O445   O     0.77321   0.53958   0.25000   0.00000  Uiso   1.00
O446   O     0.89345   0.46042   0.25001   0.00000  Uiso   1.00
O447   O     0.89345   0.53958   0.25001   0.00000  Uiso   1.00
O448   O     0.77321   0.46042   0.25000   0.00000  Uiso   1.00
O449   O     0.83332   0.53960   0.18513   0.00000  Uiso   1.00
O450   O     0.83334   0.46040   0.31487   0.00000  Uiso   1.00
O451   O     0.83334   0.53960   0.31487   0.00000  Uiso   1.00
O452   O     0.83332   0.46040   0.18513   0.00000  Uiso   1.00
Cl453  Cl    0.85129   0.41070   0.39867   0.00000  Uiso   1.00
Cl454  Cl    0.74315   0.49353   0.09171   0.00000  Uiso   1.00
Cl455  Cl    0.78268   0.58023   0.36757   0.00000  Uiso   1.00
Cl456  Cl    0.91439   0.50011   0.13723   0.00000  Uiso   1.00
Cl457  Cl    0.71569   0.55248   0.41798   0.00000  Uiso   1.00
Cl458  Cl    0.92979   0.42409   0.07419   0.00000  Uiso   1.00
S459   S     0.71818   0.57292   0.01933   0.00000  Uiso   1.00
O460   O     0.67981   0.54313   0.00895   0.00000  Uiso   1.00
O461   O     0.72635   0.58663   0.06784   0.00000  Uiso   1.00
O462   O     0.70911   0.62110   0.48818   0.00000  Uiso   1.00
H463   H     0.68247   0.63329   0.49382   0.00000  Uiso   1.00
S464   S     0.93882   0.43711   0.47259   0.00000  Uiso   1.00
O465   O     0.97818   0.44786   0.00662   0.00000  Uiso   1.00
O466   O     0.93472   0.38595   0.46715   0.00000  Uiso   1.00
O467   O     0.94258   0.46116   0.42331   0.00000  Uiso   1.00
H468   H     0.97002   0.45100   0.41810   0.00000  Uiso   1.00
Cl469  Cl    0.70924   0.40292   0.25408   0.00000  Uiso   1.00
Cl470  Cl    0.95371   0.59725   0.23671   0.00000  Uiso   1.00
Cl471  Cl    0.94856   0.41164   0.21023   0.00000  Uiso   1.00
Cl472  Cl    0.71453   0.59498   0.27044   0.00000  Uiso   1.00
S473   S     0.77521   0.38673   0.16516   0.00000  Uiso   1.00
O474   O     0.80500   0.39893   0.13555   0.00000  Uiso   1.00
O475   O     0.74127   0.36125   0.13400   0.00000  Uiso   1.00
O476   O     0.74772   0.43173   0.17633   0.00000  Uiso   1.00
H477   H     0.76155   0.45944   0.16876   0.00000  Uiso   1.00
S478   S     0.89874   0.61146   0.32764   0.00000  Uiso   1.00
O479   O     0.94223   0.62980   0.33149   0.00000  Uiso   1.00
O480   O     0.88407   0.62198   0.37022   0.00000  Uiso   1.00
O481   O     0.90676   0.55472   0.32890   0.00000  Uiso   1.00
H482   H     0.92461   0.54819   0.35891   0.00000  Uiso   1.00
S483   S     0.90732   0.38731   0.31865   0.00000  Uiso   1.00
O484   O     0.91630   0.36743   0.36520   0.00000  Uiso   1.00
O485   O     0.94483   0.37838   0.29885   0.00000  Uiso   1.00
O486   O     0.90695   0.44371   0.32884   0.00000  Uiso   1.00
H487   H     0.93666   0.45340   0.33532   0.00000  Uiso   1.00
S488   S     0.76723   0.61126   0.17545   0.00000  Uiso   1.00
O489   O     0.72494   0.63068   0.17686   0.00000  Uiso   1.00
O490   O     0.78005   0.62265   0.13208   0.00000  Uiso   1.00
O491   O     0.75903   0.55462   0.17238   0.00000  Uiso   1.00
H492   H     0.72839   0.55031   0.16266   0.00000  Uiso   1.00
C493   C     0.08785   0.83325   0.25231   0.00000  Uiso   1.00
C494   C     0.24510   0.83358   0.24684   0.00000  Uiso   1.00
C495   C     0.09423   0.87578   0.00479   0.00000  Uiso   1.00
C496   C     0.22777   0.79228   0.49110   0.00000  Uiso   1.00
C497   C     0.01966   0.79171   0.24676   0.00000  Uiso   1.00
C498   C     0.31172   0.87615   0.24722   0.00000  Uiso   1.00
C499   C     0.30959   0.79321   0.23735   0.00000  Uiso   1.00
C500   C     0.02179   0.87537   0.25492   0.00000  Uiso   1.00
C501   C     0.28909   0.83446   0.24305   0.00000  Uiso   1.00
C502   C     0.04298   0.83321   0.25306   0.00000  Uiso   1.00
C503   C     0.13886   0.69110   0.21642   0.00000  Uiso   1.00
C504   C     0.19574   0.97472   0.28194   0.00000  Uiso   1.00
C505   C     0.19614   0.69164   0.28168   0.00000  Uiso   1.00
C506   C     0.13809   0.97449   0.21815   0.00000  Uiso   1.00
C507   C     0.16394   0.83355   0.16376   0.00000  Uiso   1.00
C508   C     0.16542   0.83335   0.33538   0.00000  Uiso   1.00
C509   C     0.18588   0.80221   0.41397   0.00000  Uiso   1.00
C510   C     0.12520   0.84462   0.08198   0.00000  Uiso   1.00
C511   C     0.16300   0.83387   0.38356   0.00000  Uiso   1.00
C512   C     0.16233   0.83459   0.11444   0.00000  Uiso   1.00
C513   C     0.13738   0.86554   0.40015   0.00000  Uiso   1.00
C514   C     0.19919   0.82620   0.09947   0.00000  Uiso   1.00
C515   C     0.13181   0.86039   0.44481   0.00000  Uiso   1.00
C516   C     0.19739   0.81932   0.05331   0.00000  Uiso   1.00
C517   C     0.16325   0.83746   0.47599   0.00000  Uiso   1.00
C518   C     0.16298   0.83792   0.02213   0.00000  Uiso   1.00
C519   C     0.19364   0.81172   0.46026   0.00000  Uiso   1.00
C520   C     0.12751   0.85474   0.03690   0.00000  Uiso   1.00
C521   C     0.09597   0.87624   0.45877   0.00000  Uiso   1.00
C522   C     0.22864   0.79458   0.03755   0.00000  Uiso   1.00
Cu523  Cu    0.16667   0.88022   0.25000   0.00000  Uiso   1.00
Cu524  Cu    0.16667   0.78645   0.25000   0.00000  Uiso   1.00
N525   N     0.16667   0.95069   0.25000   0.00000  Uiso   1.00
N526   N     0.16667   0.71598   0.25000   0.00000  Uiso   1.00
O527   O     0.10655   0.87291   0.25000   0.00000  Uiso   1.00
O528   O     0.22679   0.79375   0.25001   0.00000  Uiso   1.00
O529   O     0.22679   0.87291   0.25001   0.00000  Uiso   1.00
O530   O     0.10655   0.79375   0.25000   0.00000  Uiso   1.00
O531   O     0.16666   0.87293   0.18513   0.00000  Uiso   1.00
O532   O     0.16668   0.79373   0.31487   0.00000  Uiso   1.00
O533   O     0.16668   0.87293   0.31487   0.00000  Uiso   1.00
O534   O     0.16666   0.79373   0.18513   0.00000  Uiso   1.00
Cl535  Cl    0.18462   0.74403   0.39867   0.00000  Uiso   1.00
Cl536  Cl    0.07649   0.82686   0.09171   0.00000  Uiso   1.00
Cl537  Cl    0.11601   0.91356   0.36757   0.00000  Uiso   1.00
Cl538  Cl    0.24773   0.83344   0.13723   0.00000  Uiso   1.00
Cl539  Cl    0.04903   0.88582   0.41798   0.00000  Uiso   1.00
Cl540  Cl    0.26313   0.75742   0.07419   0.00000  Uiso   1.00
S541   S     0.05152   0.90625   0.01933   0.00000  Uiso   1.00
O542   O     0.01314   0.87647   0.00895   0.00000  Uiso   1.00
O543   O     0.05969   0.91997   0.06784   0.00000  Uiso   1.00
O544   O     0.04245   0.95444   0.48818   0.00000  Uiso   1.00
H545   H     0.01580   0.96662   0.49382   0.00000  Uiso   1.00
S546   S     0.27215   0.77044   0.47259   0.00000  Uiso   1.00
O547   O     0.31151   0.78119   0.00662   0.00000  Uiso   1.00
O548   O     0.26805   0.71928   0.46715   0.00000  Uiso   1.00
O549   O     0.27591   0.79450   0.42331   0.00000  Uiso   1.00
H550   H     0.30335   0.78434   0.41810   0.00000  Uiso   1.00
Cl551  Cl    0.04257   0.73625   0.25408   0.00000  Uiso   1.00
Cl552  Cl    0.28704   0.93058   0.23671   0.00000  Uiso   1.00
Cl553  Cl    0.28189   0.74497   0.21023   0.00000  Uiso   1.00
Cl554  Cl    0.04787   0.92832   0.27044   0.00000  Uiso   1.00
S555   S     0.10854   0.72007   0.16516   0.00000  Uiso   1.00
O556   O     0.13834   0.73226   0.13555   0.00000  Uiso   1.00
O557   O     0.07460   0.69458   0.13400   0.00000  Uiso   1.00
O558   O     0.08105   0.76507   0.17633   0.00000  Uiso   1.00
H559   H     0.09488   0.79277   0.16876   0.00000  Uiso   1.00
S560   S     0.23207   0.94480   0.32764   0.00000  Uiso   1.00
O561   O     0.27557   0.96314   0.33149   0.00000  Uiso   1.00
O562   O     0.21741   0.95531   0.37022   0.00000  Uiso   1.00
O563   O     0.24009   0.88805   0.32890   0.00000  Uiso   1.00
H564   H     0.25795   0.88153   0.35891   0.00000  Uiso   1.00
S565   S     0.24065   0.72065   0.31865   0.00000  Uiso   1.00
O566   O     0.24963   0.70076   0.36520   0.00000  Uiso   1.00
O567   O     0.27817   0.71172   0.29885   0.00000  Uiso   1.00
O568   O     0.24029   0.77705   0.32884   0.00000  Uiso   1.00
H569   H     0.27000   0.78673   0.33532   0.00000  Uiso   1.00
S570   S     0.10057   0.94459   0.17545   0.00000  Uiso   1.00
O571   O     0.05828   0.96401   0.17686   0.00000  Uiso   1.00
O572   O     0.11338   0.95598   0.13208   0.00000  Uiso   1.00
O573   O     0.09236   0.88796   0.17238   0.00000  Uiso   1.00
H574   H     0.06173   0.88365   0.16266   0.00000  Uiso   1.00
C575   C     0.42118   0.83325   0.25231   0.00000  Uiso   1.00
C576   C     0.57844   0.83358   0.24684   0.00000  Uiso   1.00
C577   C     0.42756   0.87578   0.00479   0.00000  Uiso   1.00
C578   C     0.56111   0.79228   0.49110   0.00000  Uiso   1.00
C579   C     0.35299   0.79171   0.24676   0.00000  Uiso   1.00
C580   C     0.64505   0.87615   0.24722   0.00000  Uiso   1.00
C581   C     0.64292   0.79321   0.23735   0.00000  Uiso   1.00
C582   C     0.35512   0.87537   0.25492   0.00000  Uiso   1.00
C583   C     0.62242   0.83446   0.24305   0.00000  Uiso   1.00
C584   C     0.37631   0.83321   0.25306   0.00000  Uiso   1.00
C585   C     0.47219   0.69110   0.21642   0.00000  Uiso   1.00
C586   C     0.52907   0.97472   0.28194   0.00000  Uiso   1.00
C587   C     0.52947   0.69164   0.28168   0.00000  Uiso   1.00
C588   C     0.47143   0.97449   0.21815   0.00000  Uiso   1.00
C589   C     0.49728   0.83355   0.16376   0.00000  Uiso   1.00
C590   C     0.49875   0.83335   0.33538   0.00000  Uiso   1.00
C591   C     0.51922   0.80221   0.41397   0.00000  Uiso   1.00
C592   C     0.45853   0.84462   0.08198   0.00000  Uiso   1.00
C593   C     0.49633   0.83387   0.38356   0.00000  Uiso   1.00
C594   C     0.49567   0.83459   0.11444   0.00000  Uiso   1.00
C595   C     0.47072   0.86554   0.40015   0.00000  Uiso   1.00
C596   C     0.53252   0.82620   0.09947   0.00000  Uiso   1.00
C597   C     0.46515   0.86039   0.44481   0.00000  Uiso   1.00
C598   C     0.53072   0.81932   0.05331   0.00000  Uiso   1.00
C599   C     0.49658   0.83746   0.47599   0.00000  Uiso   1.00
C600   C     0.49632   0.83792   0.02213   0.00000  Uiso   1.00
C601   C     0.52698   0.81172   0.46026   0.00000  Uiso   1.00
C602   C     0.46084   0.85474   0.03690   0.00000  Uiso   1.00
C603   C     0.42930   0.87624   0.45877   0.00000  Uiso   1.00
C604   C     0.56197   0.79458   0.03755   0.00000  Uiso   1.00
Cu605  Cu    0.50000   0.88022   0.25000   0.00000  Uiso   1.00
Cu606  Cu    0.50000   0.78645   0.25000   0.00000  Uiso   1.00
N607   N     0.50000   0.95069   0.25000   0.00000  Uiso   1.00
N608   N     0.50000   0.71598   0.25000   0.00000  Uiso   1.00
O609   O     0.43988   0.87291   0.25000   0.00000  Uiso   1.00
O610   O     0.56012   0.79375   0.25001   0.00000  Uiso   1.00
O611   O     0.56012   0.87291   0.25001   0.00000  Uiso   1.00
O612   O     0.43988   0.79375   0.25000   0.00000  Uiso   1.00
O613   O     0.49999   0.87293   0.18513   0.00000  Uiso   1.00
O614   O     0.50001   0.79373   0.31487   0.00000  Uiso   1.00
O615   O     0.50001   0.87293   0.31487   0.00000  Uiso   1.00
O616   O     0.49999   0.79373   0.18513   0.00000  Uiso   1.00
Cl617  Cl    0.51795   0.74403   0.39867   0.00000  Uiso   1.00
Cl618  Cl    0.40982   0.82686   0.09171   0.00000  Uiso   1.00
Cl619  Cl    0.44934   0.91356   0.36757   0.00000  Uiso   1.00
Cl620  Cl    0.58106   0.83344   0.13723   0.00000  Uiso   1.00
Cl621  Cl    0.38236   0.88582   0.41798   0.00000  Uiso   1.00
Cl622  Cl    0.59646   0.75742   0.07419   0.00000  Uiso   1.00
S623   S     0.38485   0.90625   0.01933   0.00000  Uiso   1.00
O624   O     0.34647   0.87647   0.00895   0.00000  Uiso   1.00
O625   O     0.39302   0.91997   0.06784   0.00000  Uiso   1.00
O626   O     0.37578   0.95444   0.48818   0.00000  Uiso   1.00
H627   H     0.34913   0.96662   0.49382   0.00000  Uiso   1.00
S628   S     0.60548   0.77044   0.47259   0.00000  Uiso   1.00
O629   O     0.64485   0.78119   0.00662   0.00000  Uiso   1.00
O630   O     0.60139   0.71928   0.46715   0.00000  Uiso   1.00
O631   O     0.60925   0.79450   0.42331   0.00000  Uiso   1.00
H632   H     0.63669   0.78434   0.41810   0.00000  Uiso   1.00
Cl633  Cl    0.37590   0.73625   0.25408   0.00000  Uiso   1.00
Cl634  Cl    0.62038   0.93058   0.23671   0.00000  Uiso   1.00
Cl635  Cl    0.61523   0.74497   0.21023   0.00000  Uiso   1.00
Cl636  Cl    0.38120   0.92832   0.27044   0.00000  Uiso   1.00
S637   S     0.44188   0.72007   0.16516   0.00000  Uiso   1.00
O638   O     0.47167   0.73226   0.13555   0.00000  Uiso   1.00
O639   O     0.40793   0.69458   0.13400   0.00000  Uiso   1.00
O640   O     0.41438   0.76507   0.17633   0.00000  Uiso   1.00
H641   H     0.42821   0.79277   0.16876   0.00000  Uiso   1.00
S642   S     0.56540   0.94480   0.32764   0.00000  Uiso   1.00
O643   O     0.60890   0.96314   0.33149   0.00000  Uiso   1.00
O644   O     0.55074   0.95531   0.37022   0.00000  Uiso   1.00
O645   O     0.57342   0.88805   0.32890   0.00000  Uiso   1.00
H646   H     0.59128   0.88153   0.35891   0.00000  Uiso   1.00
S647   S     0.57398   0.72065   0.31865   0.00000  Uiso   1.00
O648   O     0.58297   0.70076   0.36520   0.00000  Uiso   1.00
O649   O     0.61150   0.71172   0.29885   0.00000  Uiso   1.00
O650   O     0.57362   0.77705   0.32884   0.00000  Uiso   1.00
H651   H     0.60333   0.78673   0.33532   0.00000  Uiso   1.00
S652   S     0.43390   0.94459   0.17545   0.00000  Uiso   1.00
O653   O     0.39161   0.96401   0.17686   0.00000  Uiso   1.00
O654   O     0.44671   0.95598   0.13208   0.00000  Uiso   1.00
O655   O     0.42569   0.88796   0.17238   0.00000  Uiso   1.00
H656   H     0.39506   0.88365   0.16266   0.00000  Uiso   1.00
C657   C     0.75451   0.83325   0.25231   0.00000  Uiso   1.00
C658   C     0.91177   0.83358   0.24684   0.00000  Uiso   1.00
C659   C     0.76089   0.87578   0.00479   0.00000  Uiso   1.00
C660   C     0.89444   0.79228   0.49110   0.00000  Uiso   1.00
C661   C     0.68633   0.79171   0.24676   0.00000  Uiso   1.00
C662   C     0.97839   0.87615   0.24722   0.00000  Uiso   1.00
C663   C     0.97625   0.79321   0.23735   0.00000  Uiso   1.00
C664   C     0.68845   0.87537   0.25492   0.00000  Uiso   1.00
C665   C     0.95576   0.83446   0.24305   0.00000  Uiso   1.00
C666   C     0.70964   0.83321   0.25306   0.00000  Uiso   1.00
C667   C     0.80552   0.69110   0.21642   0.00000  Uiso   1.00
C668   C     0.86241   0.97472   0.28194   0.00000  Uiso   1.00
C669   C     0.86281   0.69164   0.28168   0.00000  Uiso   1.00
C670   C     0.80476   0.97449   0.21815   0.00000  Uiso   1.00
C671   C     0.83061   0.83355   0.16376   0.00000  Uiso   1.00
C672   C     0.83208   0.83335   0.33538   0.00000  Uiso   1.00
C673   C     0.85255   0.80221   0.41397   0.00000  Uiso   1.00
C674   C     0.79187   0.84462   0.08198   0.00000  Uiso   1.00
C675   C     0.82967   0.83387   0.38356   0.00000  Uiso   1.00
C676   C     0.82900   0.83459   0.11444   0.00000  Uiso   1.00
C677   C     0.80405   0.86554   0.40015   0.00000  Uiso   1.00
C678   C     0.86586   0.82620   0.09947   0.00000  Uiso   1.00
C679   C     0.79848   0.86039   0.44481   0.00000  Uiso   1.00
C680   C     0.86406   0.81932   0.05331   0.00000  Uiso   1.00
C681   C     0.82991   0.83746   0.47599   0.00000  Uiso   1.00
C682   C     0.82965   0.83792   0.02213   0.00000  Uiso   1.00
C683   C     0.86031   0.81172   0.46026   0.00000  Uiso   1.00
C684   C     0.79417   0.85474   0.03690   0.00000  Uiso   1.00
C685   C     0.76264   0.87624   0.45877   0.00000  Uiso   1.00
C686   C     0.89530   0.79458   0.03755   0.00000  Uiso   1.00
Cu687  Cu    0.83333   0.88022   0.25000   0.00000  Uiso   1.00
Cu688  Cu    0.83333   0.78645   0.25000   0.00000  Uiso   1.00
N689   N     0.83333   0.95069   0.25000   0.00000  Uiso   1.00
N690   N     0.83333   0.71598   0.25000   0.00000  Uiso   1.00
O691   O     0.77321   0.87291   0.25000   0.00000  Uiso   1.00
O692   O     0.89345   0.79375   0.25001   0.00000  Uiso   1.00
O693   O     0.89345   0.87291   0.25001   0.00000  Uiso   1.00
O694   O     0.77321   0.79375   0.25000   0.00000  Uiso   1.00
O695   O     0.83332   0.87293   0.18513   0.00000  Uiso   1.00
O696   O     0.83334   0.79373   0.31487   0.00000  Uiso   1.00
O697   O     0.83334   0.87293   0.31487   0.00000  Uiso   1.00
O698   O     0.83332   0.79373   0.18513   0.00000  Uiso   1.00
Cl699  Cl    0.85129   0.74403   0.39867   0.00000  Uiso   1.00
Cl700  Cl    0.74315   0.82686   0.09171   0.00000  Uiso   1.00
Cl701  Cl    0.78268   0.91356   0.36757   0.00000  Uiso   1.00
Cl702  Cl    0.91439   0.83344   0.13723   0.00000  Uiso   1.00
Cl703  Cl    0.71569   0.88582   0.41798   0.00000  Uiso   1.00
Cl704  Cl    0.92979   0.75742   0.07419   0.00000  Uiso   1.00
S705   S     0.71818   0.90625   0.01933   0.00000  Uiso   1.00
O706   O     0.67981   0.87647   0.00895   0.00000  Uiso   1.00
O707   O     0.72635   0.91997   0.06784   0.00000  Uiso   1.00
O708   O     0.70911   0.95444   0.48818   0.00000  Uiso   1.00
H709   H     0.68247   0.96662   0.49382   0.00000  Uiso   1.00
S710   S     0.93882   0.77044   0.47259   0.00000  Uiso   1.00
O711   O     0.97818   0.78119   0.00662   0.00000  Uiso   1.00
O712   O     0.93472   0.71928   0.46715   0.00000  Uiso   1.00
O713   O     0.94258   0.79450   0.42331   0.00000  Uiso   1.00
H714   H     0.97002   0.78434   0.41810   0.00000  Uiso   1.00
Cl715  Cl    0.70924   0.73625   0.25408   0.00000  Uiso   1.00
Cl716  Cl    0.95371   0.93058   0.23671   0.00000  Uiso   1.00
Cl717  Cl    0.94856   0.74497   0.21023   0.00000  Uiso   1.00
Cl718  Cl    0.71453   0.92832   0.27044   0.00000  Uiso   1.00
S719   S     0.77521   0.72007   0.16516   0.00000  Uiso   1.00
O720   O     0.80500   0.73226   0.13555   0.00000  Uiso   1.00
O721   O     0.74127   0.69458   0.13400   0.00000  Uiso   1.00
O722   O     0.74772   0.76507   0.17633   0.00000  Uiso   1.00
H723   H     0.76155   0.79277   0.16876   0.00000  Uiso   1.00
S724   S     0.89874   0.94480   0.32764   0.00000  Uiso   1.00
O725   O     0.94223   0.96314   0.33149   0.00000  Uiso   1.00
O726   O     0.88407   0.95531   0.37022   0.00000  Uiso   1.00
O727   O     0.90676   0.88805   0.32890   0.00000  Uiso   1.00
H728   H     0.92461   0.88153   0.35891   0.00000  Uiso   1.00
S729   S     0.90732   0.72065   0.31865   0.00000  Uiso   1.00
O730   O     0.91630   0.70076   0.36520   0.00000  Uiso   1.00
O731   O     0.94483   0.71172   0.29885   0.00000  Uiso   1.00
O732   O     0.90695   0.77705   0.32884   0.00000  Uiso   1.00
H733   H     0.93666   0.78673   0.33532   0.00000  Uiso   1.00
S734   S     0.76723   0.94459   0.17545   0.00000  Uiso   1.00
O735   O     0.72494   0.96401   0.17686   0.00000  Uiso   1.00
O736   O     0.78005   0.95598   0.13208   0.00000  Uiso   1.00
O737   O     0.75903   0.88796   0.17238   0.00000  Uiso   1.00
H738   H     0.72839   0.88365   0.16266   0.00000  Uiso   1.00
C739   C     0.08785   0.16659   0.75231   0.00000  Uiso   1.00
C740   C     0.24510   0.16691   0.74684   0.00000  Uiso   1.00
C741   C     0.09423   0.20911   0.50479   0.00000  Uiso   1.00
C742   C     0.22777   0.12562   0.99110   0.00000  Uiso   1.00
C743   C     0.01966   0.12504   0.74676   0.00000  Uiso   1.00
C744   C     0.31172   0.20948   0.74722   0.00000  Uiso   1.00
C745   C     0.30959   0.12655   0.73735   0.00000  Uiso   1.00
C746   C     0.02179   0.20870   0.75492   0.00000  Uiso   1.00
C747   C     0.28909   0.16779   0.74305   0.00000  Uiso   1.00
C748   C     0.04298   0.16655   0.75306   0.00000  Uiso   1.00
C749   C     0.13886   0.02443   0.71642   0.00000  Uiso   1.00
C750   C     0.19574   0.30805   0.78194   0.00000  Uiso   1.00
C751   C     0.19614   0.02498   0.78168   0.00000  Uiso   1.00
C752   C     0.13809   0.30782   0.71815   0.00000  Uiso   1.00
C753   C     0.16394   0.16689   0.66376   0.00000  Uiso   1.00
C754   C     0.16542   0.16668   0.83538   0.00000  Uiso   1.00
C755   C     0.18588   0.13554   0.91397   0.00000  Uiso   1.00
C756   C     0.12520   0.17795   0.58198   0.00000  Uiso   1.00
C757   C     0.16300   0.16720   0.88356   0.00000  Uiso   1.00
C758   C     0.16233   0.16792   0.61444   0.00000  Uiso   1.00
C759   C     0.13738   0.19888   0.90015   0.00000  Uiso   1.00
C760   C     0.19919   0.15953   0.59947   0.00000  Uiso   1.00
C761   C     0.13181   0.19372   0.94481   0.00000  Uiso   1.00
C762   C     0.19739   0.15266   0.55331   0.00000  Uiso   1.00
C763   C     0.16325   0.17080   0.97599   0.00000  Uiso   1.00
C764   C     0.16298   0.17126   0.52213   0.00000  Uiso   1.00
C765   C     0.19364   0.14505   0.96026   0.00000  Uiso   1.00
C766   C     0.12751   0.18808   0.53690   0.00000  Uiso   1.00
C767   C     0.09597   0.20957   0.95877   0.00000  Uiso   1.00
C768   C     0.22864   0.12791   0.53755   0.00000  Uiso   1.00
Cu769  Cu    0.16667   0.21355   0.75000   0.00000  Uiso   1.00
Cu770  Cu    0.16667   0.11978   0.75000   0.00000  Uiso   1.00
N771   N     0.16667   0.28402   0.75000   0.00000  Uiso   1.00
N772   N     0.16667   0.04931   0.75000   0.00000  Uiso   1.00
O773   O     0.10655   0.20625   0.75000   0.00000  Uiso   1.00
O774   O     0.22679   0.12709   0.75001   0.00000  Uiso   1.00
O775   O     0.22679   0.20625   0.75001   0.00000  Uiso   1.00
O776   O     0.10655   0.12709   0.75000   0.00000  Uiso   1.00
O777   O     0.16666   0.20627   0.68513   0.00000  Uiso   1.00
O778   O     0.16668   0.12707   0.81487   0.00000  Uiso   1.00
O779   O     0.16668   0.20627   0.81487   0.00000  Uiso   1.00
O780   O     0.16666   0.12707   0.68513   0.00000  Uiso   1.00
Cl781  Cl    0.18462   0.07737   0.89867   0.00000  Uiso   1.00
Cl782  Cl    0.07649   0.16019   0.59171   0.00000  Uiso   1.00
Cl783  Cl    0.11601   0.24690   0.86757   0.00000  Uiso   1.00
Cl784  Cl    0.24773   0.16678   0.63723   0.00000  Uiso   1.00
Cl785  Cl    0.04903   0.21915   0.91798   0.00000  Uiso   1.00
Cl786  Cl    0.26313   0.09075   0.57419   0.00000  Uiso   1.00
S787   S     0.05152   0.23959   0.51933   0.00000  Uiso   1.00
O788   O     0.01314   0.20980   0.50895   0.00000  Uiso   1.00
O789   O     0.05969   0.25330   0.56784   0.00000  Uiso   1.00
O790   O     0.04245   0.28777   0.98818   0.00000  Uiso   1.00
H791   H     0.01580   0.29996   0.99382   0.00000  Uiso   1.00
S792   S     0.27215   0.10378   0.97259   0.00000  Uiso   1.00
O793   O     0.31151   0.11453   0.50662   0.00000  Uiso   1.00
O794   O     0.26805   0.05262   0.96715   0.00000  Uiso   1.00
O795   O     0.27591   0.12783   0.92331   0.00000  Uiso   1.00
H796   H     0.30335   0.11767   0.91810   0.00000  Uiso   1.00
Cl797  Cl    0.04257   0.06958   0.75408   0.00000  Uiso   1.00
Cl798  Cl    0.28704   0.26391   0.73671   0.00000  Uiso   1.00
Cl799  Cl    0.28189   0.07830   0.71023   0.00000  Uiso   1.00
Cl800  Cl    0.04787   0.26165   0.77044   0.00000  Uiso   1.00
S801   S     0.10854   0.05340   0.66516   0.00000  Uiso   1.00
O802   O     0.13834   0.06560   0.63555   0.00000  Uiso   1.00
O803   O     0.07460   0.02791   0.63400   0.00000  Uiso   1.00
O804   O     0.08105   0.09840   0.67633   0.00000  Uiso   1.00
H805   H     0.09488   0.12611   0.66876   0.00000  Uiso   1.00
S806   S     0.23207   0.27813   0.82764   0.00000  Uiso   1.00
O807   O     0.27557   0.29647   0.83149   0.00000  Uiso   1.00
O808   O     0.21741   0.28864   0.87022   0.00000  Uiso   1.00
O809   O     0.24009   0.22138   0.82890   0.00000  Uiso   1.00
H810   H     0.25795   0.21486   0.85891   0.00000  Uiso   1.00
S811   S     0.24065   0.05398   0.81865   0.00000  Uiso   1.00
O812   O     0.24963   0.03409   0.86520   0.00000  Uiso   1.00
O813   O     0.27817   0.04505   0.79885   0.00000  Uiso   1.00
O814   O     0.24029   0.11038   0.82884   0.00000  Uiso   1.00
H815   H     0.27000   0.12006   0.83532   0.00000  Uiso   1.00
S816   S     0.10057   0.27792   0.67545   0.00000  Uiso   1.00
O817   O     0.05828   0.29735   0.67686   0.00000  Uiso   1.00
O818   O     0.11338   0.28932   0.63208   0.00000  Uiso   1.00
O819   O     0.09236   0.22129   0.67238   0.00000  Uiso   1.00
H820   H     0.06173   0.21698   0.66266   0.00000  Uiso   1.00
C821   C     0.42118   0.16659   0.75231   0.00000  Uiso   1.00
C822   C     0.57844   0.16691   0.74684   0.00000  Uiso   1.00
C823   C     0.42756   0.20911   0.50479   0.00000  Uiso   1.00
C824   C     0.56111   0.12562   0.99110   0.00000  Uiso   1.00
C825   C     0.35299   0.12504   0.74676   0.00000  Uiso   1.00
C826   C     0.64505   0.20948   0.74722   0.00000  Uiso   1.00
C827   C     0.64292   0.12655   0.73735   0.00000  Uiso   1.00
C828   C     0.35512   0.20870   0.75492   0.00000  Uiso   1.00
C829   C     0.62242   0.16779   0.74305   0.00000  Uiso   1.00
C830   C     0.37631   0.16655   0.75306   0.00000  Uiso   1.00
C831   C     0.47219   0.02443   0.71642   0.00000  Uiso   1.00
C832   C     0.52907   0.30805   0.78194   0.00000  Uiso   1.00
C833   C     0.52947   0.02498   0.78168   0.00000  Uiso   1.00
C834   C     0.47143   0.30782   0.71815   0.00000  Uiso   1.00
C835   C     0.49728   0.16689   0.66376   0.00000  Uiso   1.00
C836   C     0.49875   0.16668   0.83538   0.00000  Uiso   1.00
C837   C     0.51922   0.13554   0.91397   0.00000  Uiso   1.00
C838   C     0.45853   0.17795   0.58198   0.00000  Uiso   1.00
C839   C     0.49633   0.16720   0.88356   0.00000  Uiso   1.00
C840   C     0.49567   0.16792   0.61444   0.00000  Uiso   1.00
C841   C     0.47072   0.19888   0.90015   0.00000  Uiso   1.00
C842   C     0.53252   0.15953   0.59947   0.00000  Uiso   1.00
C843   C     0.46515   0.19372   0.94481   0.00000  Uiso   1.00
C844   C     0.53072   0.15266   0.55331   0.00000  Uiso   1.00
C845   C     0.49658   0.17080   0.97599   0.00000  Uiso   1.00
C846   C     0.49632   0.17126   0.52213   0.00000  Uiso   1.00
C847   C     0.52698   0.14505   0.96026   0.00000  Uiso   1.00
C848   C     0.46084   0.18808   0.53690   0.00000  Uiso   1.00
C849   C     0.42930   0.20957   0.95877   0.00000  Uiso   1.00
C850   C     0.56197   0.12791   0.53755   0.00000  Uiso   1.00
Cu851  Cu    0.50000   0.21355   0.75000   0.00000  Uiso   1.00
Cu852  Cu    0.50000   0.11978   0.75000   0.00000  Uiso   1.00
N853   N     0.50000   0.28402   0.75000   0.00000  Uiso   1.00
N854   N     0.50000   0.04931   0.75000   0.00000  Uiso   1.00
O855   O     0.43988   0.20625   0.75000   0.00000  Uiso   1.00
O856   O     0.56012   0.12709   0.75001   0.00000  Uiso   1.00
O857   O     0.56012   0.20625   0.75001   0.00000  Uiso   1.00
O858   O     0.43988   0.12709   0.75000   0.00000  Uiso   1.00
O859   O     0.49999   0.20627   0.68513   0.00000  Uiso   1.00
O860   O     0.50001   0.12707   0.81487   0.00000  Uiso   1.00
O861   O     0.50001   0.20627   0.81487   0.00000  Uiso   1.00
O862   O     0.49999   0.12707   0.68513   0.00000  Uiso   1.00
Cl863  Cl    0.51795   0.07737   0.89867   0.00000  Uiso   1.00
Cl864  Cl    0.40982   0.16019   0.59171   0.00000  Uiso   1.00
Cl865  Cl    0.44934   0.24690   0.86757   0.00000  Uiso   1.00
Cl866  Cl    0.58106   0.16678   0.63723   0.00000  Uiso   1.00
Cl867  Cl    0.38236   0.21915   0.91798   0.00000  Uiso   1.00
Cl868  Cl    0.59646   0.09075   0.57419   0.00000  Uiso   1.00
S869   S     0.38485   0.23959   0.51933   0.00000  Uiso   1.00
O870   O     0.34647   0.20980   0.50895   0.00000  Uiso   1.00
O871   O     0.39302   0.25330   0.56784   0.00000  Uiso   1.00
O872   O     0.37578   0.28777   0.98818   0.00000  Uiso   1.00
H873   H     0.34913   0.29996   0.99382   0.00000  Uiso   1.00
S874   S     0.60548   0.10378   0.97259   0.00000  Uiso   1.00
O875   O     0.64485   0.11453   0.50662   0.00000  Uiso   1.00
O876   O     0.60139   0.05262   0.96715   0.00000  Uiso   1.00
O877   O     0.60925   0.12783   0.92331   0.00000  Uiso   1.00
H878   H     0.63669   0.11767   0.91810   0.00000  Uiso   1.00
Cl879  Cl    0.37590   0.06958   0.75408   0.00000  Uiso   1.00
Cl880  Cl    0.62038   0.26391   0.73671   0.00000  Uiso   1.00
Cl881  Cl    0.61523   0.07830   0.71023   0.00000  Uiso   1.00
Cl882  Cl    0.38120   0.26165   0.77044   0.00000  Uiso   1.00
S883   S     0.44188   0.05340   0.66516   0.00000  Uiso   1.00
O884   O     0.47167   0.06560   0.63555   0.00000  Uiso   1.00
O885   O     0.40793   0.02791   0.63400   0.00000  Uiso   1.00
O886   O     0.41438   0.09840   0.67633   0.00000  Uiso   1.00
H887   H     0.42821   0.12611   0.66876   0.00000  Uiso   1.00
S888   S     0.56540   0.27813   0.82764   0.00000  Uiso   1.00
O889   O     0.60890   0.29647   0.83149   0.00000  Uiso   1.00
O890   O     0.55074   0.28864   0.87022   0.00000  Uiso   1.00
O891   O     0.57342   0.22138   0.82890   0.00000  Uiso   1.00
H892   H     0.59128   0.21486   0.85891   0.00000  Uiso   1.00
S893   S     0.57398   0.05398   0.81865   0.00000  Uiso   1.00
O894   O     0.58297   0.03409   0.86520   0.00000  Uiso   1.00
O895   O     0.61150   0.04505   0.79885   0.00000  Uiso   1.00
O896   O     0.57362   0.11038   0.82884   0.00000  Uiso   1.00
H897   H     0.60333   0.12006   0.83532   0.00000  Uiso   1.00
S898   S     0.43390   0.27792   0.67545   0.00000  Uiso   1.00
O899   O     0.39161   0.29735   0.67686   0.00000  Uiso   1.00
O900   O     0.44671   0.28932   0.63208   0.00000  Uiso   1.00
O901   O     0.42569   0.22129   0.67238   0.00000  Uiso   1.00
H902   H     0.39506   0.21698   0.66266   0.00000  Uiso   1.00
C903   C     0.75451   0.16659   0.75231   0.00000  Uiso   1.00
C904   C     0.91177   0.16691   0.74684   0.00000  Uiso   1.00
C905   C     0.76089   0.20911   0.50479   0.00000  Uiso   1.00
C906   C     0.89444   0.12562   0.99110   0.00000  Uiso   1.00
C907   C     0.68633   0.12504   0.74676   0.00000  Uiso   1.00
C908   C     0.97839   0.20948   0.74722   0.00000  Uiso   1.00
C909   C     0.97625   0.12655   0.73735   0.00000  Uiso   1.00
C910   C     0.68845   0.20870   0.75492   0.00000  Uiso   1.00
C911   C     0.95576   0.16779   0.74305   0.00000  Uiso   1.00
C912   C     0.70964   0.16655   0.75306   0.00000  Uiso   1.00
C913   C     0.80552   0.02443   0.71642   0.00000  Uiso   1.00
C914   C     0.86241   0.30805   0.78194   0.00000  Uiso   1.00
C915   C     0.86281   0.02498   0.78168   0.00000  Uiso   1.00
C916   C     0.80476   0.30782   0.71815   0.00000  Uiso   1.00
C917   C     0.83061   0.16689   0.66376   0.00000  Uiso   1.00
C918   C     0.83208   0.16668   0.83538   0.00000  Uiso   1.00
C919   C     0.85255   0.13554   0.91397   0.00000  Uiso   1.00
C920   C     0.79187   0.17795   0.58198   0.00000  Uiso   1.00
C921   C     0.82967   0.16720   0.88356   0.00000  Uiso   1.00
C922   C     0.82900   0.16792   0.61444   0.00000  Uiso   1.00
C923   C     0.80405   0.19888   0.90015   0.00000  Uiso   1.00
C924   C     0.86586   0.15953   0.59947   0.00000  Uiso   1.00
C925   C     0.79848   0.19372   0.94481   0.00000  Uiso   1.00
C926   C     0.86406   0.15266   0.55331   0.00000  Uiso   1.00
C927   C     0.82991   0.17080   0.97599   0.00000  Uiso   1.00
C928   C     0.82965   0.17126   0.52213   0.00000  Uiso   1.00
C929   C     0.86031   0.14505   0.96026   0.00000  Uiso   1.00
C930   C     0.79417   0.18808   0.53690   0.00000  Uiso   1.00
C931   C     0.76264   0.20957   0.95877   0.00000  Uiso   1.00
C932   C     0.89530   0.12791   0.53755   0.00000  Uiso   1.00
Cu933  Cu    0.83333   0.21355   0.75000   0.00000  Uiso   1.00
Cu934  Cu    0.83333   0.11978   0.75000   0.00000  Uiso   1.00
N935   N     0.83333   0.28402   0.75000   0.00000  Uiso   1.00
N936   N     0.83333   0.04931   0.75000   0.00000  Uiso   1.00
O937   O     0.77321   0.20625   0.75000   0.00000  Uiso   1.00
O938   O     0.89345   0.12709   0.75001   0.00000  Uiso   1.00
O939   O     0.89345   0.20625   0.75001   0.00000  Uiso   1.00
O940   O     0.77321   0.12709   0.75000   0.00000  Uiso   1.00
O941   O     0.83332   0.20627   0.68513   0.00000  Uiso   1.00
O942   O     0.83334   0.12707   0.81487   0.00000  Uiso   1.00
O943   O     0.83334   0.20627   0.81487   0.00000  Uiso   1.00
O944   O     0.83332   0.12707   0.68513   0.00000  Uiso   1.00
Cl945  Cl    0.85129   0.07737   0.89867   0.00000  Uiso   1.00
Cl946  Cl    0.74315   0.16019   0.59171   0.00000  Uiso   1.00
Cl947  Cl    0.78268   0.24690   0.86757   0.00000  Uiso   1.00
Cl948  Cl    0.91439   0.16678   0.63723   0.00000  Uiso   1.00
Cl949  Cl    0.71569   0.21915   0.91798   0.00000  Uiso   1.00
Cl950  Cl    0.92979   0.09075   0.57419   0.00000  Uiso   1.00
S951   S     0.71818   0.23959   0.51933   0.00000  Uiso   1.00
O952   O     0.67981   0.20980   0.50895   0.00000  Uiso   1.00
O953   O     0.72635   0.25330   0.56784   0.00000  Uiso   1.00
O954   O     0.70911   0.28777   0.98818   0.00000  Uiso   1.00
H955   H     0.68247   0.29996   0.99382   0.00000  Uiso   1.00
S956   S     0.93882   0.10378   0.97259   0.00000  Uiso   1.00
O957   O     0.97818   0.11453   0.50662   0.00000  Uiso   1.00
O958   O     0.93472   0.05262   0.96715   0.00000  Uiso   1.00
O959   O     0.94258   0.12783   0.92331   0.00000  Uiso   1.00
H960   H     0.97002   0.11767   0.91810   0.00000  Uiso   1.00
Cl961  Cl    0.70924   0.06958   0.75408   0.00000  Uiso   1.00
Cl962  Cl    0.95371   0.26391   0.73671   0.00000  Uiso   1.00
Cl963  Cl    0.94856   0.07830   0.71023   0.00000  Uiso   1.00
Cl964  Cl    0.71453   0.26165   0.77044   0.00000  Uiso   1.00
S965   S     0.77521   0.05340   0.66516   0.00000  Uiso   1.00
O966   O     0.80500   0.06560   0.63555   0.00000  Uiso   1.00
O967   O     0.74127   0.02791   0.63400   0.00000  Uiso   1.00
O968   O     0.74772   0.09840   0.67633   0.00000  Uiso   1.00
H969   H     0.76155   0.12611   0.66876   0.00000  Uiso   1.00
S970   S     0.89874   0.27813   0.82764   0.00000  Uiso   1.00
O971   O     0.94223   0.29647   0.83149   0.00000  Uiso   1.00
O972   O     0.88407   0.28864   0.87022   0.00000  Uiso   1.00
O973   O     0.90676   0.22138   0.82890   0.00000  Uiso   1.00
H974   H     0.92461   0.21486   0.85891   0.00000  Uiso   1.00
S975   S     0.90732   0.05398   0.81865   0.00000  Uiso   1.00
O976   O     0.91630   0.03409   0.86520   0.00000  Uiso   1.00
O977   O     0.94483   0.04505   0.79885   0.00000  Uiso   1.00
O978   O     0.90695   0.11038   0.82884   0.00000  Uiso   1.00
H979   H     0.93666   0.12006   0.83532   0.00000  Uiso   1.00
S980   S     0.76723   0.27792   0.67545   0.00000  Uiso   1.00
O981   O     0.72494   0.29735   0.67686   0.00000  Uiso   1.00
O982   O     0.78005   0.28932   0.63208   0.00000  Uiso   1.00
O983   O     0.75903   0.22129   0.67238   0.00000  Uiso   1.00
H984   H     0.72839   0.21698   0.66266   0.00000  Uiso   1.00
C985   C     0.08785   0.49992   0.75231   0.00000  Uiso   1.00
C986   C     0.24510   0.50024   0.74684   0.00000  Uiso   1.00
C987   C     0.09423   0.54244   0.50479   0.00000  Uiso   1.00
C988   C     0.22777   0.45895   0.99110   0.00000  Uiso   1.00
C989   C     0.01966   0.45837   0.74676   0.00000  Uiso   1.00
C990   C     0.31172   0.54282   0.74722   0.00000  Uiso   1.00
C991   C     0.30959   0.45988   0.73735   0.00000  Uiso   1.00
C992   C     0.02179   0.54203   0.75492   0.00000  Uiso   1.00
C993   C     0.28909   0.50113   0.74305   0.00000  Uiso   1.00
C994   C     0.04298   0.49988   0.75306   0.00000  Uiso   1.00
C995   C     0.13886   0.35777   0.71642   0.00000  Uiso   1.00
C996   C     0.19574   0.64139   0.78194   0.00000  Uiso   1.00
C997   C     0.19614   0.35831   0.78168   0.00000  Uiso   1.00
C998   C     0.13809   0.64116   0.71815   0.00000  Uiso   1.00
C999   C     0.16394   0.50022   0.66376   0.00000  Uiso   1.00
C1000  C     0.16542   0.50002   0.83538   0.00000  Uiso   1.00
C1001  C     0.18588   0.46888   0.91397   0.00000  Uiso   1.00
C1002  C     0.12520   0.51128   0.58198   0.00000  Uiso   1.00
C1003  C     0.16300   0.50054   0.88356   0.00000  Uiso   1.00
C1004  C     0.16233   0.50125   0.61444   0.00000  Uiso   1.00
C1005  C     0.13738   0.53221   0.90015   0.00000  Uiso   1.00
C1006  C     0.19919   0.49286   0.59947   0.00000  Uiso   1.00
C1007  C     0.13181   0.52705   0.94481   0.00000  Uiso   1.00
C1008  C     0.19739   0.48599   0.55331   0.00000  Uiso   1.00
C1009  C     0.16325   0.50413   0.97599   0.00000  Uiso   1.00
C1010  C     0.16298   0.50459   0.52213   0.00000  Uiso   1.00
C1011  C     0.19364   0.47838   0.96026   0.00000  Uiso   1.00
C1012  C     0.12751   0.52141   0.53690   0.00000  Uiso   1.00
C1013  C     0.09597   0.54291   0.95877   0.00000  Uiso   1.00
C1014  C     0.22864   0.46125   0.53755   0.00000  Uiso   1.00
Cu1015 Cu    0.16667   0.54689   0.75000   0.00000  Uiso   1.00
Cu1016 Cu    0.16667   0.45311   0.75000   0.00000  Uiso   1.00
N1017  N     0.16667   0.61736   0.75000   0.00000  Uiso   1.00
N1018  N     0.16667   0.38264   0.75000   0.00000  Uiso   1.00
O1019  O     0.10655   0.53958   0.75000   0.00000  Uiso   1.00
O1020  O     0.22679   0.46042   0.75001   0.00000  Uiso   1.00
O1021  O     0.22679   0.53958   0.75001   0.00000  Uiso   1.00
O1022  O     0.10655   0.46042   0.75000   0.00000  Uiso   1.00
O1023  O     0.16666   0.53960   0.68513   0.00000  Uiso   1.00
O1024  O     0.16668   0.46040   0.81487   0.00000  Uiso   1.00
O1025  O     0.16668   0.53960   0.81487   0.00000  Uiso   1.00
O1026  O     0.16666   0.46040   0.68513   0.00000  Uiso   1.00
Cl1027 Cl    0.18462   0.41070   0.89867   0.00000  Uiso   1.00
Cl1028 Cl    0.07649   0.49353   0.59171   0.00000  Uiso   1.00
Cl1029 Cl    0.11601   0.58023   0.86757   0.00000  Uiso   1.00
Cl1030 Cl    0.24773   0.50011   0.63723   0.00000  Uiso   1.00
Cl1031 Cl    0.04903   0.55248   0.91798   0.00000  Uiso   1.00
Cl1032 Cl    0.26313   0.42409   0.57419   0.00000  Uiso   1.00
S1033  S     0.05152   0.57292   0.51933   0.00000  Uiso   1.00
O1034  O     0.01314   0.54313   0.50895   0.00000  Uiso   1.00
O1035  O     0.05969   0.58663   0.56784   0.00000  Uiso   1.00
O1036  O     0.04245   0.62110   0.98818   0.00000  Uiso   1.00
H1037  H     0.01580   0.63329   0.99382   0.00000  Uiso   1.00
S1038  S     0.27215   0.43711   0.97259   0.00000  Uiso   1.00
O1039  O     0.31151   0.44786   0.50662   0.00000  Uiso   1.00
O1040  O     0.26805   0.38595   0.96715   0.00000  Uiso   1.00
O1041  O     0.27591   0.46116   0.92331   0.00000  Uiso   1.00
H1042  H     0.30335   0.45100   0.91810   0.00000  Uiso   1.00
Cl1043 Cl    0.04257   0.40292   0.75408   0.00000  Uiso   1.00
Cl1044 Cl    0.28704   0.59725   0.73671   0.00000  Uiso   1.00
Cl1045 Cl    0.28189   0.41164   0.71023   0.00000  Uiso   1.00
Cl1046 Cl    0.04787   0.59498   0.77044   0.00000  Uiso   1.00
S1047  S     0.10854   0.38673   0.66516   0.00000  Uiso   1.00
O1048  O     0.13834   0.39893   0.63555   0.00000  Uiso   1.00
O1049  O     0.07460   0.36125   0.63400   0.00000  Uiso   1.00
O1050  O     0.08105   0.43173   0.67633   0.00000  Uiso   1.00
H1051  H     0.09488   0.45944   0.66876   0.00000  Uiso   1.00
S1052  S     0.23207   0.61146   0.82764   0.00000  Uiso   1.00
O1053  O     0.27557   0.62980   0.83149   0.00000  Uiso   1.00
O1054  O     0.21741   0.62198   0.87022   0.00000  Uiso   1.00
O1055  O     0.24009   0.55472   0.82890   0.00000  Uiso   1.00
H1056  H     0.25795   0.54819   0.85891   0.00000  Uiso   1.00
S1057  S     0.24065   0.38731   0.81865   0.00000  Uiso   1.00
O1058  O     0.24963   0.36743   0.86520   0.00000  Uiso   1.00
O1059  O     0.27817   0.37838   0.79885   0.00000  Uiso   1.00
O1060  O     0.24029   0.44371   0.82884   0.00000  Uiso   1.00
H1061  H     0.27000   0.45340   0.83532   0.00000  Uiso   1.00
S1062  S     0.10057   0.61126   0.67545   0.00000  Uiso   1.00
O1063  O     0.05828   0.63068   0.67686   0.00000  Uiso   1.00
O1064  O     0.11338   0.62265   0.63208   0.00000  Uiso   1.00
O1065  O     0.09236   0.55462   0.67238   0.00000  Uiso   1.00
H1066  H     0.06173   0.55031   0.66266   0.00000  Uiso   1.00
C1067  C     0.42118   0.49992   0.75231   0.00000  Uiso   1.00
C1068  C     0.57844   0.50024   0.74684   0.00000  Uiso   1.00
C1069  C     0.42756   0.54244   0.50479   0.00000  Uiso   1.00
C1070  C     0.56111   0.45895   0.99110   0.00000  Uiso   1.00
C1071  C     0.35299   0.45837   0.74676   0.00000  Uiso   1.00
C1072  C     0.64505   0.54282   0.74722   0.00000  Uiso   1.00
C1073  C     0.64292   0.45988   0.73735   0.00000  Uiso   1.00
C1074  C     0.35512   0.54203   0.75492   0.00000  Uiso   1.00
C1075  C     0.62242   0.50113   0.74305   0.00000  Uiso   1.00
C1076  C     0.37631   0.49988   0.75306   0.00000  Uiso   1.00
C1077  C     0.47219   0.35777   0.71642   0.00000  Uiso   1.00
C1078  C     0.52907   0.64139   0.78194   0.00000  Uiso   1.00
C1079  C     0.52947   0.35831   0.78168   0.00000  Uiso   1.00
C1080  C     0.47143   0.64116   0.71815   0.00000  Uiso   1.00
C1081  C     0.49728   0.50022   0.66376   0.00000  Uiso   1.00
C1082  C     0.49875   0.50002   0.83538   0.00000  Uiso   1.00
C1083  C     0.51922   0.46888   0.91397   0.00000  Uiso   1.00
C1084  C     0.45853   0.51128   0.58198   0.00000  Uiso   1.00
C1085  C     0.49633   0.50054   0.88356   0.00000  Uiso   1.00
C1086  C     0.49567   0.50125   0.61444   0.00000  Uiso   1.00
C1087  C     0.47072   0.53221   0.90015   0.00000  Uiso   1.00
C1088  C     0.53252   0.49286   0.59947   0.00000  Uiso   1.00
C1089  C     0.46515   0.52705   0.94481   0.00000  Uiso   1.00
C1090  C     0.53072   0.48599   0.55331   0.00000  Uiso   1.00
C1091  C     0.49658   0.50413   0.97599   0.00000  Uiso   1.00
C1092  C     0.49632   0.50459   0.52213   0.00000  Uiso   1.00
C1093  C     0.52698   0.47838   0.96026   0.00000  Uiso   1.00
C1094  C     0.46084   0.52141   0.53690   0.00000  Uiso   1.00
C1095  C     0.42930   0.54291   0.95877   0.00000  Uiso   1.00
C1096  C     0.56197   0.46125   0.53755   0.00000  Uiso   1.00
Cu1097 Cu    0.50000   0.54689   0.75000   0.00000  Uiso   1.00
Cu1098 Cu    0.50000   0.45311   0.75000   0.00000  Uiso   1.00
N1099  N     0.50000   0.61736   0.75000   0.00000  Uiso   1.00
N1100  N     0.50000   0.38264   0.75000   0.00000  Uiso   1.00
O1101  O     0.43988   0.53958   0.75000   0.00000  Uiso   1.00
O1102  O     0.56012   0.46042   0.75001   0.00000  Uiso   1.00
O1103  O     0.56012   0.53958   0.75001   0.00000  Uiso   1.00
O1104  O     0.43988   0.46042   0.75000   0.00000  Uiso   1.00
O1105  O     0.49999   0.53960   0.68513   0.00000  Uiso   1.00
O1106  O     0.50001   0.46040   0.81487   0.00000  Uiso   1.00
O1107  O     0.50001   0.53960   0.81487   0.00000  Uiso   1.00
O1108  O     0.49999   0.46040   0.68513   0.00000  Uiso   1.00
Cl1109 Cl    0.51795   0.41070   0.89867   0.00000  Uiso   1.00
Cl1110 Cl    0.40982   0.49353   0.59171   0.00000  Uiso   1.00
Cl1111 Cl    0.44934   0.58023   0.86757   0.00000  Uiso   1.00
Cl1112 Cl    0.58106   0.50011   0.63723   0.00000  Uiso   1.00
Cl1113 Cl    0.38236   0.55248   0.91798   0.00000  Uiso   1.00
Cl1114 Cl    0.59646   0.42409   0.57419   0.00000  Uiso   1.00
S1115  S     0.38485   0.57292   0.51933   0.00000  Uiso   1.00
O1116  O     0.34647   0.54313   0.50895   0.00000  Uiso   1.00
O1117  O     0.39302   0.58663   0.56784   0.00000  Uiso   1.00
O1118  O     0.37578   0.62110   0.98818   0.00000  Uiso   1.00
H1119  H     0.34913   0.63329   0.99382   0.00000  Uiso   1.00
S1120  S     0.60548   0.43711   0.97259   0.00000  Uiso   1.00
O1121  O     0.64485   0.44786   0.50662   0.00000  Uiso   1.00
O1122  O     0.60139   0.38595   0.96715   0.00000  Uiso   1.00
O1123  O     0.60925   0.46116   0.92331   0.00000  Uiso   1.00
H1124  H     0.63669   0.45100   0.91810   0.00000  Uiso   1.00
Cl1125 Cl    0.37590   0.40292   0.75408   0.00000  Uiso   1.00
Cl1126 Cl    0.62038   0.59725   0.73671   0.00000  Uiso   1.00
Cl1127 Cl    0.61523   0.41164   0.71023   0.00000  Uiso   1.00
Cl1128 Cl    0.38120   0.59498   0.77044   0.00000  Uiso   1.00
S1129  S     0.44188   0.38673   0.66516   0.00000  Uiso   1.00
O1130  O     0.47167   0.39893   0.63555   0.00000  Uiso   1.00
O1131  O     0.40793   0.36125   0.63400   0.00000  Uiso   1.00
O1132  O     0.41438   0.43173   0.67633   0.00000  Uiso   1.00
H1133  H     0.42821   0.45944   0.66876   0.00000  Uiso   1.00
S1134  S     0.56540   0.61146   0.82764   0.00000  Uiso   1.00
O1135  O     0.60890   0.62980   0.83149   0.00000  Uiso   1.00
O1136  O     0.55074   0.62198   0.87022   0.00000  Uiso   1.00
O1137  O     0.57342   0.55472   0.82890   0.00000  Uiso   1.00
H1138  H     0.59128   0.54819   0.85891   0.00000  Uiso   1.00
S1139  S     0.57398   0.38731   0.81865   0.00000  Uiso   1.00
O1140  O     0.58297   0.36743   0.86520   0.00000  Uiso   1.00
O1141  O     0.61150   0.37838   0.79885   0.00000  Uiso   1.00
O1142  O     0.57362   0.44371   0.82884   0.00000  Uiso   1.00
H1143  H     0.60333   0.45340   0.83532   0.00000  Uiso   1.00
S1144  S     0.43390   0.61126   0.67545   0.00000  Uiso   1.00
O1145  O     0.39161   0.63068   0.67686   0.00000  Uiso   1.00
O1146  O     0.44671   0.62265   0.63208   0.00000  Uiso   1.00
O1147  O     0.42569   0.55462   0.67238   0.00000  Uiso   1.00
H1148  H     0.39506   0.55031   0.66266   0.00000  Uiso   1.00
C1149  C     0.75451   0.49992   0.75231   0.00000  Uiso   1.00
C1150  C     0.91177   0.50024   0.74684   0.00000  Uiso   1.00
C1151  C     0.76089   0.54244   0.50479   0.00000  Uiso   1.00
C1152  C     0.89444   0.45895   0.99110   0.00000  Uiso   1.00
C1153  C     0.68633   0.45837   0.74676   0.00000  Uiso   1.00
C1154  C     0.97839   0.54282   0.74722   0.00000  Uiso   1.00
C1155  C     0.97625   0.45988   0.73735   0.00000  Uiso   1.00
C1156  C     0.68845   0.54203   0.75492   0.00000  Uiso   1.00
C1157  C     0.95576   0.50113   0.74305   0.00000  Uiso   1.00
C1158  C     0.70964   0.49988   0.75306   0.00000  Uiso   1.00
C1159  C     0.80552   0.35777   0.71642   0.00000  Uiso   1.00
C1160  C     0.86241   0.64139   0.78194   0.00000  Uiso   1.00
C1161  C     0.86281   0.35831   0.78168   0.00000  Uiso   1.00
C1162  C     0.80476   0.64116   0.71815   0.00000  Uiso   1.00
C1163  C     0.83061   0.50022   0.66376   0.00000  Uiso   1.00
C1164  C     0.83208   0.50002   0.83538   0.00000  Uiso   1.00
C1165  C     0.85255   0.46888   0.91397   0.00000  Uiso   1.00
C1166  C     0.79187   0.51128   0.58198   0.00000  Uiso   1.00
C1167  C     0.82967   0.50054   0.88356   0.00000  Uiso   1.00
C1168  C     0.82900   0.50125   0.61444   0.00000  Uiso   1.00
C1169  C     0.80405   0.53221   0.90015   0.00000  Uiso   1.00
C1170  C     0.86586   0.49286   0.59947   0.00000  Uiso   1.00
C1171  C     0.79848   0.52705   0.94481   0.00000  Uiso   1.00
C1172  C     0.86406   0.48599   0.55331   0.00000  Uiso   1.00
C1173  C     0.82991   0.50413   0.97599   0.00000  Uiso   1.00
C1174  C     0.82965   0.50459   0.52213   0.00000  Uiso   1.00
C1175  C     0.86031   0.47838   0.96026   0.00000  Uiso   1.00
C1176  C     0.79417   0.52141   0.53690   0.00000  Uiso   1.00
C1177  C     0.76264   0.54291   0.95877   0.00000  Uiso   1.00
C1178  C     0.89530   0.46125   0.53755   0.00000  Uiso   1.00
Cu1179 Cu    0.83333   0.54689   0.75000   0.00000  Uiso   1.00
Cu1180 Cu    0.83333   0.45311   0.75000   0.00000  Uiso   1.00
N1181  N     0.83333   0.61736   0.75000   0.00000  Uiso   1.00
N1182  N     0.83333   0.38264   0.75000   0.00000  Uiso   1.00
O1183  O     0.77321   0.53958   0.75000   0.00000  Uiso   1.00
O1184  O     0.89345   0.46042   0.75001   0.00000  Uiso   1.00
O1185  O     0.89345   0.53958   0.75001   0.00000  Uiso   1.00
O1186  O     0.77321   0.46042   0.75000   0.00000  Uiso   1.00
O1187  O     0.83332   0.53960   0.68513   0.00000  Uiso   1.00
O1188  O     0.83334   0.46040   0.81487   0.00000  Uiso   1.00
O1189  O     0.83334   0.53960   0.81487   0.00000  Uiso   1.00
O1190  O     0.83332   0.46040   0.68513   0.00000  Uiso   1.00
Cl1191 Cl    0.85129   0.41070   0.89867   0.00000  Uiso   1.00
Cl1192 Cl    0.74315   0.49353   0.59171   0.00000  Uiso   1.00
Cl1193 Cl    0.78268   0.58023   0.86757   0.00000  Uiso   1.00
Cl1194 Cl    0.91439   0.50011   0.63723   0.00000  Uiso   1.00
Cl1195 Cl    0.71569   0.55248   0.91798   0.00000  Uiso   1.00
Cl1196 Cl    0.92979   0.42409   0.57419   0.00000  Uiso   1.00
S1197  S     0.71818   0.57292   0.51933   0.00000  Uiso   1.00
O1198  O     0.67981   0.54313   0.50895   0.00000  Uiso   1.00
O1199  O     0.72635   0.58663   0.56784   0.00000  Uiso   1.00
O1200  O     0.70911   0.62110   0.98818   0.00000  Uiso   1.00
H1201  H     0.68247   0.63329   0.99382   0.00000  Uiso   1.00
S1202  S     0.93882   0.43711   0.97259   0.00000  Uiso   1.00
O1203  O     0.97818   0.44786   0.50662   0.00000  Uiso   1.00
O1204  O     0.93472   0.38595   0.96715   0.00000  Uiso   1.00
O1205  O     0.94258   0.46116   0.92331   0.00000  Uiso   1.00
H1206  H     0.97002   0.45100   0.91810   0.00000  Uiso   1.00
Cl1207 Cl    0.70924   0.40292   0.75408   0.00000  Uiso   1.00
Cl1208 Cl    0.95371   0.59725   0.73671   0.00000  Uiso   1.00
Cl1209 Cl    0.94856   0.41164   0.71023   0.00000  Uiso   1.00
Cl1210 Cl    0.71453   0.59498   0.77044   0.00000  Uiso   1.00
S1211  S     0.77521   0.38673   0.66516   0.00000  Uiso   1.00
O1212  O     0.80500   0.39893   0.63555   0.00000  Uiso   1.00
O1213  O     0.74127   0.36125   0.63400   0.00000  Uiso   1.00
O1214  O     0.74772   0.43173   0.67633   0.00000  Uiso   1.00
H1215  H     0.76155   0.45944   0.66876   0.00000  Uiso   1.00
S1216  S     0.89874   0.61146   0.82764   0.00000  Uiso   1.00
O1217  O     0.94223   0.62980   0.83149   0.00000  Uiso   1.00
O1218  O     0.88407   0.62198   0.87022   0.00000  Uiso   1.00
O1219  O     0.90676   0.55472   0.82890   0.00000  Uiso   1.00
H1220  H     0.92461   0.54819   0.85891   0.00000  Uiso   1.00
S1221  S     0.90732   0.38731   0.81865   0.00000  Uiso   1.00
O1222  O     0.91630   0.36743   0.86520   0.00000  Uiso   1.00
O1223  O     0.94483   0.37838   0.79885   0.00000  Uiso   1.00
O1224  O     0.90695   0.44371   0.82884   0.00000  Uiso   1.00
H1225  H     0.93666   0.45340   0.83532   0.00000  Uiso   1.00
S1226  S     0.76723   0.61126   0.67545   0.00000  Uiso   1.00
O1227  O     0.72494   0.63068   0.67686   0.00000  Uiso   1.00
O1228  O     0.78005   0.62265   0.63208   0.00000  Uiso   1.00
O1229  O     0.75903   0.55462   0.67238   0.00000  Uiso   1.00
H1230  H     0.72839   0.55031   0.66266   0.00000  Uiso   1.00
C1231  C     0.08785   0.83325   0.75231   0.00000  Uiso   1.00
C1232  C     0.24510   0.83358   0.74684   0.00000  Uiso   1.00
C1233  C     0.09423   0.87578   0.50479   0.00000  Uiso   1.00
C1234  C     0.22777   0.79228   0.99110   0.00000  Uiso   1.00
C1235  C     0.01966   0.79171   0.74676   0.00000  Uiso   1.00
C1236  C     0.31172   0.87615   0.74722   0.00000  Uiso   1.00
C1237  C     0.30959   0.79321   0.73735   0.00000  Uiso   1.00
C1238  C     0.02179   0.87537   0.75492   0.00000  Uiso   1.00
C1239  C     0.28909   0.83446   0.74305   0.00000  Uiso   1.00
C1240  C     0.04298   0.83321   0.75306   0.00000  Uiso   1.00
C1241  C     0.13886   0.69110   0.71642   0.00000  Uiso   1.00
C1242  C     0.19574   0.97472   0.78194   0.00000  Uiso   1.00
C1243  C     0.19614   0.69164   0.78168   0.00000  Uiso   1.00
C1244  C     0.13809   0.97449   0.71815   0.00000  Uiso   1.00
C1245  C     0.16394   0.83355   0.66376   0.00000  Uiso   1.00
C1246  C     0.16542   0.83335   0.83538   0.00000  Uiso   1.00
C1247  C     0.18588   0.80221   0.91397   0.00000  Uiso   1.00
C1248  C     0.12520   0.84462   0.58198   0.00000  Uiso   1.00
C1249  C     0.16300   0.83387   0.88356   0.00000  Uiso   1.00
C1250  C     0.16233   0.83459   0.61444   0.00000  Uiso   1.00
C1251  C     0.13738   0.86554   0.90015   0.00000  Uiso   1.00
C1252  C     0.19919   0.82620   0.59947   0.00000  Uiso   1.00
C1253  C     0.13181   0.86039   0.94481   0.00000  Uiso   1.00
C1254  C     0.19739   0.81932   0.55331   0.00000  Uiso   1.00
C1255  C     0.16325   0.83746   0.97599   0.00000  Uiso   1.00
C1256  C     0.16298   0.83792   0.52213   0.00000  Uiso   1.00
C1257  C     0.19364   0.81172   0.96026   0.00000  Uiso   1.00
C1258  C     0.12751   0.85474   0.53690   0.00000  Uiso   1.00
C1259  C     0.09597   0.87624   0.95877   0.00000  Uiso   1.00
C1260  C     0.22864   0.79458   0.53755   0.00000  Uiso   1.00
Cu1261 Cu    0.16667   0.88022   0.75000   0.00000  Uiso   1.00
Cu1262 Cu    0.16667   0.78645   0.75000   0.00000  Uiso   1.00
N1263  N     0.16667   0.95069   0.75000   0.00000  Uiso   1.00
N1264  N     0.16667   0.71598   0.75000   0.00000  Uiso   1.00
O1265  O     0.10655   0.87291   0.75000   0.00000  Uiso   1.00
O1266  O     0.22679   0.79375   0.75001   0.00000  Uiso   1.00
O1267  O     0.22679   0.87291   0.75001   0.00000  Uiso   1.00
O1268  O     0.10655   0.79375   0.75000   0.00000  Uiso   1.00
O1269  O     0.16666   0.87293   0.68513   0.00000  Uiso   1.00
O1270  O     0.16668   0.79373   0.81487   0.00000  Uiso   1.00
O1271  O     0.16668   0.87293   0.81487   0.00000  Uiso   1.00
O1272  O     0.16666   0.79373   0.68513   0.00000  Uiso   1.00
Cl1273 Cl    0.18462   0.74403   0.89867   0.00000  Uiso   1.00
Cl1274 Cl    0.07649   0.82686   0.59171   0.00000  Uiso   1.00
Cl1275 Cl    0.11601   0.91356   0.86757   0.00000  Uiso   1.00
Cl1276 Cl    0.24773   0.83344   0.63723   0.00000  Uiso   1.00
Cl1277 Cl    0.04903   0.88582   0.91798   0.00000  Uiso   1.00
Cl1278 Cl    0.26313   0.75742   0.57419   0.00000  Uiso   1.00
S1279  S     0.05152   0.90625   0.51933   0.00000  Uiso   1.00
O1280  O     0.01314   0.87647   0.50895   0.00000  Uiso   1.00
O1281  O     0.05969   0.91997   0.56784   0.00000  Uiso   1.00
O1282  O     0.04245   0.95444   0.98818   0.00000  Uiso   1.00
H1283  H     0.01580   0.96662   0.99382   0.00000  Uiso   1.00
S1284  S     0.27215   0.77044   0.97259   0.00000  Uiso   1.00
O1285  O     0.31151   0.78119   0.50662   0.00000  Uiso   1.00
O1286  O     0.26805   0.71928   0.96715   0.00000  Uiso   1.00
O1287  O     0.27591   0.79450   0.92331   0.00000  Uiso   1.00
H1288  H     0.30335   0.78434   0.91810   0.00000  Uiso   1.00
Cl1289 Cl    0.04257   0.73625   0.75408   0.00000  Uiso   1.00
Cl1290 Cl    0.28704   0.93058   0.73671   0.00000  Uiso   1.00
Cl1291 Cl    0.28189   0.74497   0.71023   0.00000  Uiso   1.00
Cl1292 Cl    0.04787   0.92832   0.77044   0.00000  Uiso   1.00
S1293  S     0.10854   0.72007   0.66516   0.00000  Uiso   1.00
O1294  O     0.13834   0.73226   0.63555   0.00000  Uiso   1.00
O1295  O     0.07460   0.69458   0.63400   0.00000  Uiso   1.00
O1296  O     0.08105   0.76507   0.67633   0.00000  Uiso   1.00
H1297  H     0.09488   0.79277   0.66876   0.00000  Uiso   1.00
S1298  S     0.23207   0.94480   0.82764   0.00000  Uiso   1.00
O1299  O     0.27557   0.96314   0.83149   0.00000  Uiso   1.00
O1300  O     0.21741   0.95531   0.87022   0.00000  Uiso   1.00
O1301  O     0.24009   0.88805   0.82890   0.00000  Uiso   1.00
H1302  H     0.25795   0.88153   0.85891   0.00000  Uiso   1.00
S1303  S     0.24065   0.72065   0.81865   0.00000  Uiso   1.00
O1304  O     0.24963   0.70076   0.86520   0.00000  Uiso   1.00
O1305  O     0.27817   0.71172   0.79885   0.00000  Uiso   1.00
O1306  O     0.24029   0.77705   0.82884   0.00000  Uiso   1.00
H1307  H     0.27000   0.78673   0.83532   0.00000  Uiso   1.00
S1308  S     0.10057   0.94459   0.67545   0.00000  Uiso   1.00
O1309  O     0.05828   0.96401   0.67686   0.00000  Uiso   1.00
O1310  O     0.11338   0.95598   0.63208   0.00000  Uiso   1.00
O1311  O     0.09236   0.88796   0.67238   0.00000  Uiso   1.00
H1312  H     0.06173   0.88365   0.66266   0.00000  Uiso   1.00
C1313  C     0.42118   0.83325   0.75231   0.00000  Uiso   1.00
C1314  C     0.57844   0.83358   0.74684   0.00000  Uiso   1.00
C1315  C     0.42756   0.87578   0.50479   0.00000  Uiso   1.00
C1316  C     0.56111   0.79228   0.99110   0.00000  Uiso   1.00
C1317  C     0.35299   0.79171   0.74676   0.00000  Uiso   1.00
C1318  C     0.64505   0.87615   0.74722   0.00000  Uiso   1.00
C1319  C     0.64292   0.79321   0.73735   0.00000  Uiso   1.00
C1320  C     0.35512   0.87537   0.75492   0.00000  Uiso   1.00
C1321  C     0.62242   0.83446   0.74305   0.00000  Uiso   1.00
C1322  C     0.37631   0.83321   0.75306   0.00000  Uiso   1.00
C1323  C     0.47219   0.69110   0.71642   0.00000  Uiso   1.00
C1324  C     0.52907   0.97472   0.78194   0.00000  Uiso   1.00
C1325  C     0.52947   0.69164   0.78168   0.00000  Uiso   1.00
C1326  C     0.47143   0.97449   0.71815   0.00000  Uiso   1.00
C1327  C     0.49728   0.83355   0.66376   0.00000  Uiso   1.00
C1328  C     0.49875   0.83335   0.83538   0.00000  Uiso   1.00
C1329  C     0.51922   0.80221   0.91397   0.00000  Uiso   1.00
C1330  C     0.45853   0.84462   0.58198   0.00000  Uiso   1.00
C1331  C     0.49633   0.83387   0.88356   0.00000  Uiso   1.00
C1332  C     0.49567   0.83459   0.61444   0.00000  Uiso   1.00
C1333  C     0.47072   0.86554   0.90015   0.00000  Uiso   1.00
C1334  C     0.53252   0.82620   0.59947   0.00000  Uiso   1.00
C1335  C     0.46515   0.86039   0.94481   0.00000  Uiso   1.00
C1336  C     0.53072   0.81932   0.55331   0.00000  Uiso   1.00
C1337  C     0.49658   0.83746   0.97599   0.00000  Uiso   1.00
C1338  C     0.49632   0.83792   0.52213   0.00000  Uiso   1.00
C1339  C     0.52698   0.81172   0.96026   0.00000  Uiso   1.00
C1340  C     0.46084   0.85474   0.53690   0.00000  Uiso   1.00
C1341  C     0.42930   0.87624   0.95877   0.00000  Uiso   1.00
C1342  C     0.56197   0.79458   0.53755   0.00000  Uiso   1.00
Cu1343 Cu    0.50000   0.88022   0.75000   0.00000  Uiso   1.00
Cu1344 Cu    0.50000   0.78645   0.75000   0.00000  Uiso   1.00
N1345  N     0.50000   0.95069   0.75000   0.00000  Uiso   1.00
N1346  N     0.50000   0.71598   0.75000   0.00000  Uiso   1.00
O1347  O     0.43988   0.87291   0.75000   0.00000  Uiso   1.00
O1348  O     0.56012   0.79375   0.75001   0.00000  Uiso   1.00
O1349  O     0.56012   0.87291   0.75001   0.00000  Uiso   1.00
O1350  O     0.43988   0.79375   0.75000   0.00000  Uiso   1.00
O1351  O     0.49999   0.87293   0.68513   0.00000  Uiso   1.00
O1352  O     0.50001   0.79373   0.81487   0.00000  Uiso   1.00
O1353  O     0.50001   0.87293   0.81487   0.00000  Uiso   1.00
O1354  O     0.49999   0.79373   0.68513   0.00000  Uiso   1.00
Cl1355 Cl    0.51795   0.74403   0.89867   0.00000  Uiso   1.00
Cl1356 Cl    0.40982   0.82686   0.59171   0.00000  Uiso   1.00
Cl1357 Cl    0.44934   0.91356   0.86757   0.00000  Uiso   1.00
Cl1358 Cl    0.58106   0.83344   0.63723   0.00000  Uiso   1.00
Cl1359 Cl    0.38236   0.88582   0.91798   0.00000  Uiso   1.00
Cl1360 Cl    0.59646   0.75742   0.57419   0.00000  Uiso   1.00
S1361  S     0.38485   0.90625   0.51933   0.00000  Uiso   1.00
O1362  O     0.34647   0.87647   0.50895   0.00000  Uiso   1.00
O1363  O     0.39302   0.91997   0.56784   0.00000  Uiso   1.00
O1364  O     0.37578   0.95444   0.98818   0.00000  Uiso   1.00
H1365  H     0.34913   0.96662   0.99382   0.00000  Uiso   1.00
S1366  S     0.60548   0.77044   0.97259   0.00000  Uiso   1.00
O1367  O     0.64485   0.78119   0.50662   0.00000  Uiso   1.00
O1368  O     0.60139   0.71928   0.96715   0.00000  Uiso   1.00
O1369  O     0.60925   0.79450   0.92331   0.00000  Uiso   1.00
H1370  H     0.63669   0.78434   0.91810   0.00000  Uiso   1.00
Cl1371 Cl    0.37590   0.73625   0.75408   0.00000  Uiso   1.00
Cl1372 Cl    0.62038   0.93058   0.73671   0.00000  Uiso   1.00
Cl1373 Cl    0.61523   0.74497   0.71023   0.00000  Uiso   1.00
Cl1374 Cl    0.38120   0.92832   0.77044   0.00000  Uiso   1.00
S1375  S     0.44188   0.72007   0.66516   0.00000  Uiso   1.00
O1376  O     0.47167   0.73226   0.63555   0.00000  Uiso   1.00
O1377  O     0.40793   0.69458   0.63400   0.00000  Uiso   1.00
O1378  O     0.41438   0.76507   0.67633   0.00000  Uiso   1.00
H1379  H     0.42821   0.79277   0.66876   0.00000  Uiso   1.00
S1380  S     0.56540   0.94480   0.82764   0.00000  Uiso   1.00
O1381  O     0.60890   0.96314   0.83149   0.00000  Uiso   1.00
O1382  O     0.55074   0.95531   0.87022   0.00000  Uiso   1.00
O1383  O     0.57342   0.88805   0.82890   0.00000  Uiso   1.00
H1384  H     0.59128   0.88153   0.85891   0.00000  Uiso   1.00
S1385  S     0.57398   0.72065   0.81865   0.00000  Uiso   1.00
O1386  O     0.58297   0.70076   0.86520   0.00000  Uiso   1.00
O1387  O     0.61150   0.71172   0.79885   0.00000  Uiso   1.00
O1388  O     0.57362   0.77705   0.82884   0.00000  Uiso   1.00
H1389  H     0.60333   0.78673   0.83532   0.00000  Uiso   1.00
S1390  S     0.43390   0.94459   0.67545   0.00000  Uiso   1.00
O1391  O     0.39161   0.96401   0.67686   0.00000  Uiso   1.00
O1392  O     0.44671   0.95598   0.63208   0.00000  Uiso   1.00
O1393  O     0.42569   0.88796   0.67238   0.00000  Uiso   1.00
H1394  H     0.39506   0.88365   0.66266   0.00000  Uiso   1.00
C1395  C     0.75451   0.83325   0.75231   0.00000  Uiso   1.00
C1396  C     0.91177   0.83358   0.74684   0.00000  Uiso   1.00
C1397  C     0.76089   0.87578   0.50479   0.00000  Uiso   1.00
C1398  C     0.89444   0.79228   0.99110   0.00000  Uiso   1.00
C1399  C     0.68633   0.79171   0.74676   0.00000  Uiso   1.00
C1400  C     0.97839   0.87615   0.74722   0.00000  Uiso   1.00
C1401  C     0.97625   0.79321   0.73735   0.00000  Uiso   1.00
C1402  C     0.68845   0.87537   0.75492   0.00000  Uiso   1.00
C1403  C     0.95576   0.83446   0.74305   0.00000  Uiso   1.00
C1404  C     0.70964   0.83321   0.75306   0.00000  Uiso   1.00
C1405  C     0.80552   0.69110   0.71642   0.00000  Uiso   1.00
C1406  C     0.86241   0.97472   0.78194   0.00000  Uiso   1.00
C1407  C     0.86281   0.69164   0.78168   0.00000  Uiso   1.00
C1408  C     0.80476   0.97449   0.71815   0.00000  Uiso   1.00
C1409  C     0.83061   0.83355   0.66376   0.00000  Uiso   1.00
C1410  C     0.83208   0.83335   0.83538   0.00000  Uiso   1.00
C1411  C     0.85255   0.80221   0.91397   0.00000  Uiso   1.00
C1412  C     0.79187   0.84462   0.58198   0.00000  Uiso   1.00
C1413  C     0.82967   0.83387   0.88356   0.00000  Uiso   1.00
C1414  C     0.82900   0.83459   0.61444   0.00000  Uiso   1.00
C1415  C     0.80405   0.86554   0.90015   0.00000  Uiso   1.00
C1416  C     0.86586   0.82620   0.59947   0.00000  Uiso   1.00
C1417  C     0.79848   0.86039   0.94481   0.00000  Uiso   1.00
C1418  C     0.86406   0.81932   0.55331   0.00000  Uiso   1.00
C1419  C     0.82991   0.83746   0.97599   0.00000  Uiso   1.00
C1420  C     0.82965   0.83792   0.52213   0.00000  Uiso   1.00
C1421  C     0.86031   0.81172   0.96026   0.00000  Uiso   1.00
C1422  C     0.79417   0.85474   0.53690   0.00000  Uiso   1.00
C1423  C     0.76264   0.87624   0.95877   0.00000  Uiso   1.00
C1424  C     0.89530   0.79458   0.53755   0.00000  Uiso   1.00
Cu1425 Cu    0.83333   0.88022   0.75000   0.00000  Uiso   1.00
Cu1426 Cu    0.83333   0.78645   0.75000   0.00000  Uiso   1.00
N1427  N     0.83333   0.95069   0.75000   0.00000  Uiso   1.00
N1428  N     0.83333   0.71598   0.75000   0.00000  Uiso   1.00
O1429  O     0.77321   0.87291   0.75000   0.00000  Uiso   1.00
O1430  O     0.89345   0.79375   0.75001   0.00000  Uiso   1.00
O1431  O     0.89345   0.87291   0.75001   0.00000  Uiso   1.00
O1432  O     0.77321   0.79375   0.75000   0.00000  Uiso   1.00
O1433  O     0.83332   0.87293   0.68513   0.00000  Uiso   1.00
O1434  O     0.83334   0.79373   0.81487   0.00000  Uiso   1.00
O1435  O     0.83334   0.87293   0.81487   0.00000  Uiso   1.00
O1436  O     0.83332   0.79373   0.68513   0.00000  Uiso   1.00
Cl1437 Cl    0.85129   0.74403   0.89867   0.00000  Uiso   1.00
Cl1438 Cl    0.74315   0.82686   0.59171   0.00000  Uiso   1.00
Cl1439 Cl    0.78268   0.91356   0.86757   0.00000  Uiso   1.00
Cl1440 Cl    0.91439   0.83344   0.63723   0.00000  Uiso   1.00
Cl1441 Cl    0.71569   0.88582   0.91798   0.00000  Uiso   1.00
Cl1442 Cl    0.92979   0.75742   0.57419   0.00000  Uiso   1.00
S1443  S     0.71818   0.90625   0.51933   0.00000  Uiso   1.00
O1444  O     0.67981   0.87647   0.50895   0.00000  Uiso   1.00
O1445  O     0.72635   0.91997   0.56784   0.00000  Uiso   1.00
O1446  O     0.70911   0.95444   0.98818   0.00000  Uiso   1.00
H1447  H     0.68247   0.96662   0.99382   0.00000  Uiso   1.00
S1448  S     0.93882   0.77044   0.97259   0.00000  Uiso   1.00
O1449  O     0.97818   0.78119   0.50662   0.00000  Uiso   1.00
O1450  O     0.93472   0.71928   0.96715   0.00000  Uiso   1.00
O1451  O     0.94258   0.79450   0.92331   0.00000  Uiso   1.00
H1452  H     0.97002   0.78434   0.91810   0.00000  Uiso   1.00
Cl1453 Cl    0.70924   0.73625   0.75408   0.00000  Uiso   1.00
Cl1454 Cl    0.95371   0.93058   0.73671   0.00000  Uiso   1.00
Cl1455 Cl    0.94856   0.74497   0.71023   0.00000  Uiso   1.00
Cl1456 Cl    0.71453   0.92832   0.77044   0.00000  Uiso   1.00
S1457  S     0.77521   0.72007   0.66516   0.00000  Uiso   1.00
O1458  O     0.80500   0.73226   0.63555   0.00000  Uiso   1.00
O1459  O     0.74127   0.69458   0.63400   0.00000  Uiso   1.00
O1460  O     0.74772   0.76507   0.67633   0.00000  Uiso   1.00
H1461  H     0.76155   0.79277   0.66876   0.00000  Uiso   1.00
S1462  S     0.89874   0.94480   0.82764   0.00000  Uiso   1.00
O1463  O     0.94223   0.96314   0.83149   0.00000  Uiso   1.00
O1464  O     0.88407   0.95531   0.87022   0.00000  Uiso   1.00
O1465  O     0.90676   0.88805   0.82890   0.00000  Uiso   1.00
H1466  H     0.92461   0.88153   0.85891   0.00000  Uiso   1.00
S1467  S     0.90732   0.72065   0.81865   0.00000  Uiso   1.00
O1468  O     0.91630   0.70076   0.86520   0.00000  Uiso   1.00
O1469  O     0.94483   0.71172   0.79885   0.00000  Uiso   1.00
O1470  O     0.90695   0.77705   0.82884   0.00000  Uiso   1.00
H1471  H     0.93666   0.78673   0.83532   0.00000  Uiso   1.00
S1472  S     0.76723   0.94459   0.67545   0.00000  Uiso   1.00
O1473  O     0.72494   0.96401   0.67686   0.00000  Uiso   1.00
O1474  O     0.78005   0.95598   0.63208   0.00000  Uiso   1.00
O1475  O     0.75903   0.88796   0.67238   0.00000  Uiso   1.00
H1476  H     0.72839   0.88365   0.66266   0.00000  Uiso   1.00
loop_
_geom_bond_atom_site_label_1
_geom_bond_atom_site_label_2
_geom_bond_distance
_geom_bond_site_symmetry_2
_ccdc_geom_bond_type
C1     O38     1.314   .     A
C1     O35     1.315   .     A
C1     C10     1.474   .     S
C2     O37     1.308   .     A
C2     O36     1.318   .     A
C2     C9      1.469   .     S
C3     S49     1.791   .     S
C3     C28     1.437   .     A
C3     C767    1.411   1_554 S
C4     C27     1.415   .     A
C4     S54     1.784   .     S
C4     C768    1.407   .     S
C5     Cl59    1.777   .     S
C5     C10     1.420   .     A
C5     C171    1.389   1_455 S
C6     C9      1.413   .     A
C6     Cl60    1.779   .     S
C6     C90     1.390   .     S
C7     Cl61    1.777   .     S
C7     C9      1.406   .     A
C7     C87     1.389   .     S
C8     C10     1.419   .     A
C8     Cl62    1.777   .     S
C8     C170    1.390   1_455 S
C11    S63     1.861   .     S
C11    N34     1.414   .     A
C11    C506    1.457   1_545 S
C12    S68     1.844   .     S
C12    N33     1.394   .     A
C12    C259    1.465   .     S
C13    S73     1.844   .     S
C13    N34     1.402   .     A
C13    C504    1.465   1_545 S
C14    N33     1.381   .     A
C14    S78     1.809   .     S
C14    C257    1.457   .     S
C15    C20     1.488   .     S
C15    O39     1.313   .     A
C15    O42     1.323   .     A
C16    C19     1.482   .     S
C16    O40     1.318   .     A
C16    O41     1.315   .     A
C17    C27     1.403   .     A
C17    Cl43    1.757   .     S
C17    C19     1.404   .     A
C18    C28     1.418   .     A
C18    Cl44    1.759   .     S
C18    C20     1.424   .     A
C19    C21     1.412   .     A
C20    C22     1.399   .     A
C21    Cl45    1.770   .     S
C21    C23     1.414   .     A
C22    C24     1.405   .     A
C22    Cl46    1.763   .     S
C23    C25     1.410   .     A
C23    C29     1.409   .     A
C24    C26     1.417   .     A
C24    C30     1.417   .     A
C25    C27     1.410   .     A
C25    C764    1.403   .     S
C26    C28     1.419   .     A
C26    C763    1.403   1_554 S
C29    Cl47    1.780   .     S
C29    C741    1.411   .     S
C30    Cl48    1.776   .     S
C30    C742    1.407   1_554 S
Cu31   N33     2.053   .     S
Cu31   O37     1.980   .     S
Cu31   Cu32    2.733   .     S
Cu31   O35     1.979   .     S
Cu31   O41     1.981   .     S
Cu31   O39     1.982   .     S
Cu32   O36     1.979   .     S
Cu32   O38     1.980   .     S
Cu32   N34     2.053   .     S
Cu32   O40     1.982   .     S
Cu32   O42     1.981   .     S
S49    O51     1.495   .     D
S49    O50     1.503   .     D
S49    O790    1.683   1_554 S
O52    H53     0.991   .     S
O52    S787    1.683   .     S
S54    O56     1.503   .     D
S54    O57     1.680   .     S
S54    O793    1.504   .     S
O55    S792    1.504   1_554 S
O57    H58     0.991   .     S
S63    O65     1.495   .     D
S63    O66     1.668   .     S
S63    O64     1.502   .     D
O66    H67     0.976   .     S
S68    O69     1.501   .     D
S68    O70     1.504   .     D
S68    O71     1.674   .     S
O71    H72     0.991   .     S
S73    O74     1.498   .     D
S73    O75     1.501   .     D
S73    O76     1.673   .     S
O76    H77     0.991   .     S
S78    O80     1.502   .     D
S78    O79     1.506   .     D
S78    O81     1.671   .     S
O81    H82     0.991   .     S
C83    O120    1.314   .     A
C83    O117    1.315   .     A
C83    C92     1.474   .     S
C84    O119    1.308   .     A
C84    O118    1.318   .     A
C84    C91     1.469   .     S
C85    S131    1.791   .     S
C85    C110    1.437   .     A
C85    C849    1.411   1_554 S
C86    C109    1.415   .     A
C86    S136    1.784   .     S
C86    C850    1.407   .     S
C87    Cl141   1.777   .     S
C87    C92     1.420   .     A
C88    C91     1.413   .     A
C88    Cl142   1.779   .     S
C88    C172    1.390   .     S
C89    Cl143   1.777   .     S
C89    C91     1.406   .     A
C89    C169    1.389   .     S
C90    C92     1.419   .     A
C90    Cl144   1.777   .     S
C93    S145    1.861   .     S
C93    N116    1.414   .     A
C93    C588    1.457   1_545 S
C94    S150    1.844   .     S
C94    N115    1.394   .     A
C94    C341    1.465   .     S
C95    S155    1.844   .     S
C95    N116    1.402   .     A
C95    C586    1.465   1_545 S
C96    N115    1.381   .     A
C96    S160    1.809   .     S
C96    C339    1.457   .     S
C97    C102    1.488   .     S
C97    O121    1.313   .     A
C97    O124    1.323   .     A
C98    C101    1.482   .     S
C98    O122    1.318   .     A
C98    O123    1.315   .     A
C99    C109    1.403   .     A
C99    Cl125   1.757   .     S
C99    C101    1.404   .     A
C100   C110    1.418   .     A
C100   Cl126   1.759   .     S
C100   C102    1.424   .     A
C101   C103    1.412   .     A
C102   C104    1.399   .     A
C103   Cl127   1.770   .     S
C103   C105    1.414   .     A
C104   C106    1.405   .     A
C104   Cl128   1.763   .     S
C105   C107    1.410   .     A
C105   C111    1.409   .     A
C106   C108    1.417   .     A
C106   C112    1.417   .     A
C107   C109    1.410   .     A
C107   C846    1.403   .     S
C108   C110    1.419   .     A
C108   C845    1.403   1_554 S
C111   Cl129   1.780   .     S
C111   C823    1.411   .     S
C112   Cl130   1.776   .     S
C112   C824    1.407   1_554 S
Cu113  N115    2.053   .     S
Cu113  O119    1.980   .     S
Cu113  Cu114   2.733   .     S
Cu113  O117    1.979   .     S
Cu113  O123    1.981   .     S
Cu113  O121    1.982   .     S
Cu114  O118    1.979   .     S
Cu114  O120    1.980   .     S
Cu114  N116    2.053   .     S
Cu114  O122    1.982   .     S
Cu114  O124    1.981   .     S
S131   O133    1.495   .     D
S131   O132    1.503   .     D
S131   O872    1.683   1_554 S
O134   H135    0.991   .     S
O134   S869    1.683   .     S
S136   O138    1.503   .     D
S136   O139    1.680   .     S
S136   O875    1.504   .     S
O137   S874    1.504   1_554 S
O139   H140    0.991   .     S
S145   O147    1.495   .     D
S145   O148    1.668   .     S
S145   O146    1.502   .     D
O148   H149    0.976   .     S
S150   O151    1.501   .     D
S150   O152    1.504   .     D
S150   O153    1.674   .     S
O153   H154    0.991   .     S
S155   O156    1.498   .     D
S155   O157    1.501   .     D
S155   O158    1.673   .     S
O158   H159    0.991   .     S
S160   O162    1.502   .     D
S160   O161    1.506   .     D
S160   O163    1.671   .     S
O163   H164    0.991   .     S
C165   O202    1.314   .     A
C165   O199    1.315   .     A
C165   C174    1.474   .     S
C166   O201    1.308   .     A
C166   O200    1.318   .     A
C166   C173    1.469   .     S
C167   S213    1.791   .     S
C167   C192    1.437   .     A
C167   C931    1.411   1_554 S
C168   C191    1.415   .     A
C168   S218    1.784   .     S
C168   C932    1.407   .     S
C169   Cl223   1.777   .     S
C169   C174    1.420   .     A
C170   C173    1.413   .     A
C170   Cl224   1.779   .     S
C170   C8      1.390   1_655 S
C171   Cl225   1.777   .     S
C171   C173    1.406   .     A
C171   C5      1.389   1_655 S
C172   C174    1.419   .     A
C172   Cl226   1.777   .     S
C175   S227    1.861   .     S
C175   N198    1.414   .     A
C175   C670    1.457   1_545 S
C176   S232    1.844   .     S
C176   N197    1.394   .     A
C176   C423    1.465   .     S
C177   S237    1.844   .     S
C177   N198    1.402   .     A
C177   C668    1.465   1_545 S
C178   N197    1.381   .     A
C178   S242    1.809   .     S
C178   C421    1.457   .     S
C179   C184    1.488   .     S
C179   O203    1.313   .     A
C179   O206    1.323   .     A
C180   C183    1.482   .     S
C180   O204    1.318   .     A
C180   O205    1.315   .     A
C181   C191    1.403   .     A
C181   Cl207   1.757   .     S
C181   C183    1.404   .     A
C182   C192    1.418   .     A
C182   Cl208   1.759   .     S
C182   C184    1.424   .     A
C183   C185    1.412   .     A
C184   C186    1.399   .     A
C185   Cl209   1.770   .     S
C185   C187    1.414   .     A
C186   C188    1.405   .     A
C186   Cl210   1.763   .     S
C187   C189    1.410   .     A
C187   C193    1.409   .     A
C188   C190    1.417   .     A
C188   C194    1.417   .     A
C189   C191    1.410   .     A
C189   C928    1.403   .     S
C190   C192    1.419   .     A
C190   C927    1.403   1_554 S
C193   Cl211   1.780   .     S
C193   C905    1.411   .     S
C194   Cl212   1.776   .     S
C194   C906    1.407   1_554 S
Cu195  N197    2.053   .     S
Cu195  O201    1.980   .     S
Cu195  Cu196   2.733   .     S
Cu195  O199    1.979   .     S
Cu195  O205    1.981   .     S
Cu195  O203    1.982   .     S
Cu196  O200    1.979   .     S
Cu196  O202    1.980   .     S
Cu196  N198    2.053   .     S
Cu196  O204    1.982   .     S
Cu196  O206    1.981   .     S
S213   O215    1.495   .     D
S213   O214    1.503   .     D
S213   O954    1.683   1_554 S
O216   H217    0.991   .     S
O216   S951    1.683   .     S
S218   O220    1.503   .     D
S218   O221    1.680   .     S
S218   O957    1.504   .     S
O219   S956    1.504   1_554 S
O221   H222    0.991   .     S
S227   O229    1.495   .     D
S227   O230    1.668   .     S
S227   O228    1.502   .     D
O230   H231    0.976   .     S
S232   O233    1.501   .     D
S232   O234    1.504   .     D
S232   O235    1.674   .     S
O235   H236    0.991   .     S
S237   O238    1.498   .     D
S237   O239    1.501   .     D
S237   O240    1.673   .     S
O240   H241    0.991   .     S
S242   O244    1.502   .     D
S242   O243    1.506   .     D
S242   O245    1.671   .     S
O245   H246    0.991   .     S
C247   O284    1.314   .     A
C247   O281    1.315   .     A
C247   C256    1.474   .     S
C248   O283    1.308   .     A
C248   O282    1.318   .     A
C248   C255    1.469   .     S
C249   S295    1.791   .     S
C249   C274    1.437   .     A
C249   C1013   1.411   1_554 S
C250   C273    1.415   .     A
C250   S300    1.784   .     S
C250   C1014   1.407   .     S
C251   Cl305   1.777   .     S
C251   C256    1.420   .     A
C251   C417    1.389   1_455 S
C252   C255    1.413   .     A
C252   Cl306   1.779   .     S
C252   C336    1.390   .     S
C253   Cl307   1.777   .     S
C253   C255    1.406   .     A
C253   C333    1.389   .     S
C254   C256    1.419   .     A
C254   Cl308   1.777   .     S
C254   C416    1.390   1_455 S
C257   S309    1.861   .     S
C257   N280    1.414   .     A
C258   S314    1.844   .     S
C258   N279    1.394   .     A
C258   C505    1.465   .     S
C259   S319    1.844   .     S
C259   N280    1.402   .     A
C260   N279    1.381   .     A
C260   S324    1.809   .     S
C260   C503    1.457   .     S
C261   C266    1.488   .     S
C261   O285    1.313   .     A
C261   O288    1.323   .     A
C262   C265    1.482   .     S
C262   O286    1.318   .     A
C262   O287    1.315   .     A
C263   C273    1.403   .     A
C263   Cl289   1.757   .     S
C263   C265    1.404   .     A
C264   C274    1.418   .     A
C264   Cl290   1.759   .     S
C264   C266    1.424   .     A
C265   C267    1.412   .     A
C266   C268    1.399   .     A
C267   Cl291   1.770   .     S
C267   C269    1.414   .     A
C268   C270    1.405   .     A
C268   Cl292   1.763   .     S
C269   C271    1.410   .     A
C269   C275    1.409   .     A
C270   C272    1.417   .     A
C270   C276    1.417   .     A
C271   C273    1.410   .     A
C271   C1010   1.403   .     S
C272   C274    1.419   .     A
C272   C1009   1.403   1_554 S
C275   Cl293   1.780   .     S
C275   C987    1.411   .     S
C276   Cl294   1.776   .     S
C276   C988    1.407   1_554 S
Cu277  N279    2.053   .     S
Cu277  O283    1.980   .     S
Cu277  Cu278   2.733   .     S
Cu277  O281    1.979   .     S
Cu277  O287    1.981   .     S
Cu277  O285    1.982   .     S
Cu278  O282    1.979   .     S
Cu278  O284    1.980   .     S
Cu278  N280    2.053   .     S
Cu278  O286    1.982   .     S
Cu278  O288    1.981   .     S
S295   O297    1.495   .     D
S295   O296    1.503   .     D
S295   O1036   1.683   1_554 S
O298   H299    0.991   .     S
O298   S1033   1.683   .     S
S300   O302    1.503   .     D
S300   O303    1.680   .     S
S300   O1039   1.504   .     S
O301   S1038   1.504   1_554 S
O303   H304    0.991   .     S
S309   O311    1.495   .     D
S309   O312    1.668   .     S
S309   O310    1.502   .     D
O312   H313    0.976   .     S
S314   O315    1.501   .     D
S314   O316    1.504   .     D
S314   O317    1.674   .     S
O317   H318    0.991   .     S
S319   O320    1.498   .     D
S319   O321    1.501   .     D
S319   O322    1.673   .     S
O322   H323    0.991   .     S
S324   O326    1.502   .     D
S324   O325    1.506   .     D
S324   O327    1.671   .     S
O327   H328    0.991   .     S
C329   O366    1.314   .     A
C329   O363    1.315   .     A
C329   C338    1.474   .     S
C330   O365    1.308   .     A
C330   O364    1.318   .     A
C330   C337    1.469   .     S
C331   S377    1.791   .     S
C331   C356    1.437   .     A
C331   C1095   1.411   1_554 S
C332   C355    1.415   .     A
C332   S382    1.784   .     S
C332   C1096   1.407   .     S
C333   Cl387   1.777   .     S
C333   C338    1.420   .     A
C334   C337    1.413   .     A
C334   Cl388   1.779   .     S
C334   C418    1.390   .     S
C335   Cl389   1.777   .     S
C335   C337    1.406   .     A
C335   C415    1.389   .     S
C336   C338    1.419   .     A
C336   Cl390   1.777   .     S
C339   S391    1.861   .     S
C339   N362    1.414   .     A
C340   S396    1.844   .     S
C340   N361    1.394   .     A
C340   C587    1.465   .     S
C341   S401    1.844   .     S
C341   N362    1.402   .     A
C342   N361    1.381   .     A
C342   S406    1.809   .     S
C342   C585    1.457   .     S
C343   C348    1.488   .     S
C343   O367    1.313   .     A
C343   O370    1.323   .     A
C344   C347    1.482   .     S
C344   O368    1.318   .     A
C344   O369    1.315   .     A
C345   C355    1.403   .     A
C345   Cl371   1.757   .     S
C345   C347    1.404   .     A
C346   C356    1.418   .     A
C346   Cl372   1.759   .     S
C346   C348    1.424   .     A
C347   C349    1.412   .     A
C348   C350    1.399   .     A
C349   Cl373   1.770   .     S
C349   C351    1.414   .     A
C350   C352    1.405   .     A
C350   Cl374   1.763   .     S
C351   C353    1.410   .     A
C351   C357    1.409   .     A
C352   C354    1.417   .     A
C352   C358    1.417   .     A
C353   C355    1.410   .     A
C353   C1092   1.403   .     S
C354   C356    1.419   .     A
C354   C1091   1.403   1_554 S
C357   Cl375   1.780   .     S
C357   C1069   1.411   .     S
C358   Cl376   1.776   .     S
C358   C1070   1.407   1_554 S
Cu359  N361    2.053   .     S
Cu359  O365    1.980   .     S
Cu359  Cu360   2.733   .     S
Cu359  O363    1.979   .     S
Cu359  O369    1.981   .     S
Cu359  O367    1.982   .     S
Cu360  O364    1.979   .     S
Cu360  O366    1.980   .     S
Cu360  N362    2.053   .     S
Cu360  O368    1.982   .     S
Cu360  O370    1.981   .     S
S377   O379    1.495   .     D
S377   O378    1.503   .     D
S377   O1118   1.683   1_554 S
O380   H381    0.991   .     S
O380   S1115   1.683   .     S
S382   O384    1.503   .     D
S382   O385    1.680   .     S
S382   O1121   1.504   .     S
O383   S1120   1.504   1_554 S
O385   H386    0.991   .     S
S391   O393    1.495   .     D
S391   O394    1.668   .     S
S391   O392    1.502   .     D
O394   H395    0.976   .     S
S396   O397    1.501   .     D
S396   O398    1.504   .     D
S396   O399    1.674   .     S
O399   H400    0.991   .     S
S401   O402    1.498   .     D
S401   O403    1.501   .     D
S401   O404    1.673   .     S
O404   H405    0.991   .     S
S406   O408    1.502   .     D
S406   O407    1.506   .     D
S406   O409    1.671   .     S
O409   H410    0.991   .     S
C411   O448    1.314   .     A
C411   O445    1.315   .     A
C411   C420    1.474   .     S
C412   O447    1.308   .     A
C412   O446    1.318   .     A
C412   C419    1.469   .     S
C413   S459    1.791   .     S
C413   C438    1.437   .     A
C413   C1177   1.411   1_554 S
C414   C437    1.415   .     A
C414   S464    1.784   .     S
C414   C1178   1.407   .     S
C415   Cl469   1.777   .     S
C415   C420    1.420   .     A
C416   C419    1.413   .     A
C416   Cl470   1.779   .     S
C416   C254    1.390   1_655 S
C417   Cl471   1.777   .     S
C417   C419    1.406   .     A
C417   C251    1.389   1_655 S
C418   C420    1.419   .     A
C418   Cl472   1.777   .     S
C421   S473    1.861   .     S
C421   N444    1.414   .     A
C422   S478    1.844   .     S
C422   N443    1.394   .     A
C422   C669    1.465   .     S
C423   S483    1.844   .     S
C423   N444    1.402   .     A
C424   N443    1.381   .     A
C424   S488    1.809   .     S
C424   C667    1.457   .     S
C425   C430    1.488   .     S
C425   O449    1.313   .     A
C425   O452    1.323   .     A
C426   C429    1.482   .     S
C426   O450    1.318   .     A
C426   O451    1.315   .     A
C427   C437    1.403   .     A
C427   Cl453   1.757   .     S
C427   C429    1.404   .     A
C428   C438    1.418   .     A
C428   Cl454   1.759   .     S
C428   C430    1.424   .     A
C429   C431    1.412   .     A
C430   C432    1.399   .     A
C431   Cl455   1.770   .     S
C431   C433    1.414   .     A
C432   C434    1.405   .     A
C432   Cl456   1.763   .     S
C433   C435    1.410   .     A
C433   C439    1.409   .     A
C434   C436    1.417   .     A
C434   C440    1.417   .     A
C435   C437    1.410   .     A
C435   C1174   1.403   .     S
C436   C438    1.419   .     A
C436   C1173   1.403   1_554 S
C439   Cl457   1.780   .     S
C439   C1151   1.411   .     S
C440   Cl458   1.776   .     S
C440   C1152   1.407   1_554 S
Cu441  N443    2.053   .     S
Cu441  O447    1.980   .     S
Cu441  Cu442   2.733   .     S
Cu441  O445    1.979   .     S
Cu441  O451    1.981   .     S
Cu441  O449    1.982   .     S
Cu442  O446    1.979   .     S
Cu442  O448    1.980   .     S
Cu442  N444    2.053   .     S
Cu442  O450    1.982   .     S
Cu442  O452    1.981   .     S
S459   O461    1.495   .     D
S459   O460    1.503   .     D
S459   O1200   1.683   1_554 S
O462   H463    0.991   .     S
O462   S1197   1.683   .     S
S464   O466    1.503   .     D
S464   O467    1.680   .     S
S464   O1203   1.504   .     S
O465   S1202   1.504   1_554 S
O467   H468    0.991   .     S
S473   O475    1.495   .     D
S473   O476    1.668   .     S
S473   O474    1.502   .     D
O476   H477    0.976   .     S
S478   O479    1.501   .     D
S478   O480    1.504   .     D
S478   O481    1.674   .     S
O481   H482    0.991   .     S
S483   O484    1.498   .     D
S483   O485    1.501   .     D
S483   O486    1.673   .     S
O486   H487    0.991   .     S
S488   O490    1.502   .     D
S488   O489    1.506   .     D
S488   O491    1.671   .     S
O491   H492    0.991   .     S
C493   O530    1.314   .     A
C493   O527    1.315   .     A
C493   C502    1.474   .     S
C494   O529    1.308   .     A
C494   O528    1.318   .     A
C494   C501    1.469   .     S
C495   S541    1.791   .     S
C495   C520    1.437   .     A
C495   C1259   1.411   1_554 S
C496   C519    1.415   .     A
C496   S546    1.784   .     S
C496   C1260   1.407   .     S
C497   Cl551   1.777   .     S
C497   C502    1.420   .     A
C497   C663    1.389   1_455 S
C498   C501    1.413   .     A
C498   Cl552   1.779   .     S
C498   C582    1.390   .     S
C499   Cl553   1.777   .     S
C499   C501    1.406   .     A
C499   C579    1.389   .     S
C500   C502    1.419   .     A
C500   Cl554   1.777   .     S
C500   C662    1.390   1_455 S
C503   S555    1.861   .     S
C503   N526    1.414   .     A
C504   S560    1.844   .     S
C504   N525    1.394   .     A
C504   C13     1.465   1_565 S
C505   S565    1.844   .     S
C505   N526    1.402   .     A
C506   N525    1.381   .     A
C506   S570    1.809   .     S
C506   C11     1.457   1_565 S
C507   C512    1.488   .     S
C507   O531    1.313   .     A
C507   O534    1.323   .     A
C508   C511    1.482   .     S
C508   O532    1.318   .     A
C508   O533    1.315   .     A
C509   C519    1.403   .     A
C509   Cl535   1.757   .     S
C509   C511    1.404   .     A
C510   C520    1.418   .     A
C510   Cl536   1.759   .     S
C510   C512    1.424   .     A
C511   C513    1.412   .     A
C512   C514    1.399   .     A
C513   Cl537   1.770   .     S
C513   C515    1.414   .     A
C514   C516    1.405   .     A
C514   Cl538   1.763   .     S
C515   C517    1.410   .     A
C515   C521    1.409   .     A
C516   C518    1.417   .     A
C516   C522    1.417   .     A
C517   C519    1.410   .     A
C517   C1256   1.403   .     S
C518   C520    1.419   .     A
C518   C1255   1.403   1_554 S
C521   Cl539   1.780   .     S
C521   C1233   1.411   .     S
C522   Cl540   1.776   .     S
C522   C1234   1.407   1_554 S
Cu523  N525    2.053   .     S
Cu523  O529    1.980   .     S
Cu523  Cu524   2.733   .     S
Cu523  O527    1.979   .     S
Cu523  O533    1.981   .     S
Cu523  O531    1.982   .     S
Cu524  O528    1.979   .     S
Cu524  O530    1.980   .     S
Cu524  N526    2.053   .     S
Cu524  O532    1.982   .     S
Cu524  O534    1.981   .     S
S541   O543    1.495   .     D
S541   O542    1.503   .     D
S541   O1282   1.683   1_554 S
O544   H545    0.991   .     S
O544   S1279   1.683   .     S
S546   O548    1.503   .     D
S546   O549    1.680   .     S
S546   O1285   1.504   .     S
O547   S1284   1.504   1_554 S
O549   H550    0.991   .     S
S555   O557    1.495   .     D
S555   O558    1.668   .     S
S555   O556    1.502   .     D
O558   H559    0.976   .     S
S560   O561    1.501   .     D
S560   O562    1.504   .     D
S560   O563    1.674   .     S
O563   H564    0.991   .     S
S565   O566    1.498   .     D
S565   O567    1.501   .     D
S565   O568    1.673   .     S
O568   H569    0.991   .     S
S570   O572    1.502   .     D
S570   O571    1.506   .     D
S570   O573    1.671   .     S
O573   H574    0.991   .     S
C575   O612    1.314   .     A
C575   O609    1.315   .     A
C575   C584    1.474   .     S
C576   O611    1.308   .     A
C576   O610    1.318   .     A
C576   C583    1.469   .     S
C577   S623    1.791   .     S
C577   C602    1.437   .     A
C577   C1341   1.411   1_554 S
C578   C601    1.415   .     A
C578   S628    1.784   .     S
C578   C1342   1.407   .     S
C579   Cl633   1.777   .     S
C579   C584    1.420   .     A
C580   C583    1.413   .     A
C580   Cl634   1.779   .     S
C580   C664    1.390   .     S
C581   Cl635   1.777   .     S
C581   C583    1.406   .     A
C581   C661    1.389   .     S
C582   C584    1.419   .     A
C582   Cl636   1.777   .     S
C585   S637    1.861   .     S
C585   N608    1.414   .     A
C586   S642    1.844   .     S
C586   N607    1.394   .     A
C586   C95     1.465   1_565 S
C587   S647    1.844   .     S
C587   N608    1.402   .     A
C588   N607    1.381   .     A
C588   S652    1.809   .     S
C588   C93     1.457   1_565 S
C589   C594    1.488   .     S
C589   O613    1.313   .     A
C589   O616    1.323   .     A
C590   C593    1.482   .     S
C590   O614    1.318   .     A
C590   O615    1.315   .     A
C591   C601    1.403   .     A
C591   Cl617   1.757   .     S
C591   C593    1.404   .     A
C592   C602    1.418   .     A
C592   Cl618   1.759   .     S
C592   C594    1.424   .     A
C593   C595    1.412   .     A
C594   C596    1.399   .     A
C595   Cl619   1.770   .     S
C595   C597    1.414   .     A
C596   C598    1.405   .     A
C596   Cl620   1.763   .     S
C597   C599    1.410   .     A
C597   C603    1.409   .     A
C598   C600    1.417   .     A
C598   C604    1.417   .     A
C599   C601    1.410   .     A
C599   C1338   1.403   .     S
C600   C602    1.419   .     A
C600   C1337   1.403   1_554 S
C603   Cl621   1.780   .     S
C603   C1315   1.411   .     S
C604   Cl622   1.776   .     S
C604   C1316   1.407   1_554 S
Cu605  N607    2.053   .     S
Cu605  O611    1.980   .     S
Cu605  Cu606   2.733   .     S
Cu605  O609    1.979   .     S
Cu605  O615    1.981   .     S
Cu605  O613    1.982   .     S
Cu606  O610    1.979   .     S
Cu606  O612    1.980   .     S
Cu606  N608    2.053   .     S
Cu606  O614    1.982   .     S
Cu606  O616    1.981   .     S
S623   O625    1.495   .     D
S623   O624    1.503   .     D
S623   O1364   1.683   1_554 S
O626   H627    0.991   .     S
O626   S1361   1.683   .     S
S628   O630    1.503   .     D
S628   O631    1.680   .     S
S628   O1367   1.504   .     S
O629   S1366   1.504   1_554 S
O631   H632    0.991   .     S
S637   O639    1.495   .     D
S637   O640    1.668   .     S
S637   O638    1.502   .     D
O640   H641    0.976   .     S
S642   O643    1.501   .     D
S642   O644    1.504   .     D
S642   O645    1.674   .     S
O645   H646    0.991   .     S
S647   O648    1.498   .     D
S647   O649    1.501   .     D
S647   O650    1.673   .     S
O650   H651    0.991   .     S
S652   O654    1.502   .     D
S652   O653    1.506   .     D
S652   O655    1.671   .     S
O655   H656    0.991   .     S
C657   O694    1.314   .     A
C657   O691    1.315   .     A
C657   C666    1.474   .     S
C658   O693    1.308   .     A
C658   O692    1.318   .     A
C658   C665    1.469   .     S
C659   S705    1.791   .     S
C659   C684    1.437   .     A
C659   C1423   1.411   1_554 S
C660   C683    1.415   .     A
C660   S710    1.784   .     S
C660   C1424   1.407   .     S
C661   Cl715   1.777   .     S
C661   C666    1.420   .     A
C662   C665    1.413   .     A
C662   Cl716   1.779   .     S
C662   C500    1.390   1_655 S
C663   Cl717   1.777   .     S
C663   C665    1.406   .     A
C663   C497    1.389   1_655 S
C664   C666    1.419   .     A
C664   Cl718   1.777   .     S
C667   S719    1.861   .     S
C667   N690    1.414   .     A
C668   S724    1.844   .     S
C668   N689    1.394   .     A
C668   C177    1.465   1_565 S
C669   S729    1.844   .     S
C669   N690    1.402   .     A
C670   N689    1.381   .     A
C670   S734    1.809   .     S
C670   C175    1.457   1_565 S
C671   C676    1.488   .     S
C671   O695    1.313   .     A
C671   O698    1.323   .     A
C672   C675    1.482   .     S
C672   O696    1.318   .     A
C672   O697    1.315   .     A
C673   C683    1.403   .     A
C673   Cl699   1.757   .     S
C673   C675    1.404   .     A
C674   C684    1.418   .     A
C674   Cl700   1.759   .     S
C674   C676    1.424   .     A
C675   C677    1.412   .     A
C676   C678    1.399   .     A
C677   Cl701   1.770   .     S
C677   C679    1.414   .     A
C678   C680    1.405   .     A
C678   Cl702   1.763   .     S
C679   C681    1.410   .     A
C679   C685    1.409   .     A
C680   C682    1.417   .     A
C680   C686    1.417   .     A
C681   C683    1.410   .     A
C681   C1420   1.403   .     S
C682   C684    1.419   .     A
C682   C1419   1.403   1_554 S
C685   Cl703   1.780   .     S
C685   C1397   1.411   .     S
C686   Cl704   1.776   .     S
C686   C1398   1.407   1_554 S
Cu687  N689    2.053   .     S
Cu687  O693    1.980   .     S
Cu687  Cu688   2.733   .     S
Cu687  O691    1.979   .     S
Cu687  O697    1.981   .     S
Cu687  O695    1.982   .     S
Cu688  O692    1.979   .     S
Cu688  O694    1.980   .     S
Cu688  N690    2.053   .     S
Cu688  O696    1.982   .     S
Cu688  O698    1.981   .     S
S705   O707    1.495   .     D
S705   O706    1.503   .     D
S705   O1446   1.683   1_554 S
O708   H709    0.991   .     S
O708   S1443   1.683   .     S
S710   O712    1.503   .     D
S710   O713    1.680   .     S
S710   O1449   1.504   .     S
O711   S1448   1.504   1_554 S
O713   H714    0.991   .     S
S719   O721    1.495   .     D
S719   O722    1.668   .     S
S719   O720    1.502   .     D
O722   H723    0.976   .     S
S724   O725    1.501   .     D
S724   O726    1.504   .     D
S724   O727    1.674   .     S
O727   H728    0.991   .     S
S729   O730    1.498   .     D
S729   O731    1.501   .     D
S729   O732    1.673   .     S
O732   H733    0.991   .     S
S734   O736    1.502   .     D
S734   O735    1.506   .     D
S734   O737    1.671   .     S
O737   H738    0.991   .     S
C739   O776    1.314   .     A
C739   O773    1.315   .     A
C739   C748    1.474   .     S
C740   O775    1.308   .     A
C740   O774    1.318   .     A
C740   C747    1.469   .     S
C741   S787    1.791   .     S
C741   C766    1.437   .     A
C742   C765    1.415   .     A
C742   S792    1.784   .     S
C742   C30     1.407   1_556 S
C743   Cl797   1.777   .     S
C743   C748    1.420   .     A
C743   C909    1.389   1_455 S
C744   C747    1.413   .     A
C744   Cl798   1.779   .     S
C744   C828    1.390   .     S
C745   Cl799   1.777   .     S
C745   C747    1.406   .     A
C745   C825    1.389   .     S
C746   C748    1.419   .     A
C746   Cl800   1.777   .     S
C746   C908    1.390   1_455 S
C749   S801    1.861   .     S
C749   N772    1.414   .     A
C749   C1244   1.457   1_545 S
C750   S806    1.844   .     S
C750   N771    1.394   .     A
C750   C997    1.465   .     S
C751   S811    1.844   .     S
C751   N772    1.402   .     A
C751   C1242   1.465   1_545 S
C752   N771    1.381   .     A
C752   S816    1.809   .     S
C752   C995    1.457   .     S
C753   C758    1.488   .     S
C753   O777    1.313   .     A
C753   O780    1.323   .     A
C754   C757    1.482   .     S
C754   O778    1.318   .     A
C754   O779    1.315   .     A
C755   C765    1.403   .     A
C755   Cl781   1.757   .     S
C755   C757    1.404   .     A
C756   C766    1.418   .     A
C756   Cl782   1.759   .     S
C756   C758    1.424   .     A
C757   C759    1.412   .     A
C758   C760    1.399   .     A
C759   Cl783   1.770   .     S
C759   C761    1.414   .     A
C760   C762    1.405   .     A
C760   Cl784   1.763   .     S
C761   C763    1.410   .     A
C761   C767    1.409   .     A
C762   C764    1.417   .     A
C762   C768    1.417   .     A
C763   C765    1.410   .     A
C763   C26     1.403   1_556 S
C764   C766    1.419   .     A
C767   Cl785   1.780   .     S
C767   C3      1.411   1_556 S
C768   Cl786   1.776   .     S
Cu769  N771    2.053   .     S
Cu769  O775    1.980   .     S
Cu769  Cu770   2.733   .     S
Cu769  O773    1.979   .     S
Cu769  O779    1.981   .     S
Cu769  O777    1.982   .     S
Cu770  O774    1.979   .     S
Cu770  O776    1.980   .     S
Cu770  N772    2.053   .     S
Cu770  O778    1.982   .     S
Cu770  O780    1.981   .     S
S787   O789    1.495   .     D
S787   O788    1.503   .     D
O790   H791    0.991   .     S
O790   S49     1.683   1_556 S
S792   O794    1.503   .     D
S792   O795    1.680   .     S
S792   O55     1.504   1_556 S
O795   H796    0.991   .     S
S801   O803    1.495   .     D
S801   O804    1.668   .     S
S801   O802    1.502   .     D
O804   H805    0.976   .     S
S806   O807    1.501   .     D
S806   O808    1.504   .     D
S806   O809    1.674   .     S
O809   H810    0.991   .     S
S811   O812    1.498   .     D
S811   O813    1.501   .     D
S811   O814    1.673   .     S
O814   H815    0.991   .     S
S816   O818    1.502   .     D
S816   O817    1.506   .     D
S816   O819    1.671   .     S
O819   H820    0.991   .     S
C821   O858    1.314   .     A
C821   O855    1.315   .     A
C821   C830    1.474   .     S
C822   O857    1.308   .     A
C822   O856    1.318   .     A
C822   C829    1.469   .     S
C823   S869    1.791   .     S
C823   C848    1.437   .     A
C824   C847    1.415   .     A
C824   S874    1.784   .     S
C824   C112    1.407   1_556 S
C825   Cl879   1.777   .     S
C825   C830    1.420   .     A
C826   C829    1.413   .     A
C826   Cl880   1.779   .     S
C826   C910    1.390   .     S
C827   Cl881   1.777   .     S
C827   C829    1.406   .     A
C827   C907    1.389   .     S
C828   C830    1.419   .     A
C828   Cl882   1.777   .     S
C831   S883    1.861   .     S
C831   N854    1.414   .     A
C831   C1326   1.457   1_545 S
C832   S888    1.844   .     S
C832   N853    1.394   .     A
C832   C1079   1.465   .     S
C833   S893    1.844   .     S
C833   N854    1.402   .     A
C833   C1324   1.465   1_545 S
C834   N853    1.381   .     A
C834   S898    1.809   .     S
C834   C1077   1.457   .     S
C835   C840    1.488   .     S
C835   O859    1.313   .     A
C835   O862    1.323   .     A
C836   C839    1.482   .     S
C836   O860    1.318   .     A
C836   O861    1.315   .     A
C837   C847    1.403   .     A
C837   Cl863   1.757   .     S
C837   C839    1.404   .     A
C838   C848    1.418   .     A
C838   Cl864   1.759   .     S
C838   C840    1.424   .     A
C839   C841    1.412   .     A
C840   C842    1.399   .     A
C841   Cl865   1.770   .     S
C841   C843    1.414   .     A
C842   C844    1.405   .     A
C842   Cl866   1.763   .     S
C843   C845    1.410   .     A
C843   C849    1.409   .     A
C844   C846    1.417   .     A
C844   C850    1.417   .     A
C845   C847    1.410   .     A
C845   C108    1.403   1_556 S
C846   C848    1.419   .     A
C849   Cl867   1.780   .     S
C849   C85     1.411   1_556 S
C850   Cl868   1.776   .     S
Cu851  N853    2.053   .     S
Cu851  O857    1.980   .     S
Cu851  Cu852   2.733   .     S
Cu851  O855    1.979   .     S
Cu851  O861    1.981   .     S
Cu851  O859    1.982   .     S
Cu852  O856    1.979   .     S
Cu852  O858    1.980   .     S
Cu852  N854    2.053   .     S
Cu852  O860    1.982   .     S
Cu852  O862    1.981   .     S
S869   O871    1.495   .     D
S869   O870    1.503   .     D
O872   H873    0.991   .     S
O872   S131    1.683   1_556 S
S874   O876    1.503   .     D
S874   O877    1.680   .     S
S874   O137    1.504   1_556 S
O877   H878    0.991   .     S
S883   O885    1.495   .     D
S883   O886    1.668   .     S
S883   O884    1.502   .     D
O886   H887    0.976   .     S
S888   O889    1.501   .     D
S888   O890    1.504   .     D
S888   O891    1.674   .     S
O891   H892    0.991   .     S
S893   O894    1.498   .     D
S893   O895    1.501   .     D
S893   O896    1.673   .     S
O896   H897    0.991   .     S
S898   O900    1.502   .     D
S898   O899    1.506   .     D
S898   O901    1.671   .     S
O901   H902    0.991   .     S
C903   O940    1.314   .     A
C903   O937    1.315   .     A
C903   C912    1.474   .     S
C904   O939    1.308   .     A
C904   O938    1.318   .     A
C904   C911    1.469   .     S
C905   S951    1.791   .     S
C905   C930    1.437   .     A
C906   C929    1.415   .     A
C906   S956    1.784   .     S
C906   C194    1.407   1_556 S
C907   Cl961   1.777   .     S
C907   C912    1.420   .     A
C908   C911    1.413   .     A
C908   Cl962   1.779   .     S
C908   C746    1.390   1_655 S
C909   Cl963   1.777   .     S
C909   C911    1.406   .     A
C909   C743    1.389   1_655 S
C910   C912    1.419   .     A
C910   Cl964   1.777   .     S
C913   S965    1.861   .     S
C913   N936    1.414   .     A
C913   C1408   1.457   1_545 S
C914   S970    1.844   .     S
C914   N935    1.394   .     A
C914   C1161   1.465   .     S
C915   S975    1.844   .     S
C915   N936    1.402   .     A
C915   C1406   1.465   1_545 S
C916   N935    1.381   .     A
C916   S980    1.809   .     S
C916   C1159   1.457   .     S
C917   C922    1.488   .     S
C917   O941    1.313   .     A
C917   O944    1.323   .     A
C918   C921    1.482   .     S
C918   O942    1.318   .     A
C918   O943    1.315   .     A
C919   C929    1.403   .     A
C919   Cl945   1.757   .     S
C919   C921    1.404   .     A
C920   C930    1.418   .     A
C920   Cl946   1.759   .     S
C920   C922    1.424   .     A
C921   C923    1.412   .     A
C922   C924    1.399   .     A
C923   Cl947   1.770   .     S
C923   C925    1.414   .     A
C924   C926    1.405   .     A
C924   Cl948   1.763   .     S
C925   C927    1.410   .     A
C925   C931    1.409   .     A
C926   C928    1.417   .     A
C926   C932    1.417   .     A
C927   C929    1.410   .     A
C927   C190    1.403   1_556 S
C928   C930    1.419   .     A
C931   Cl949   1.780   .     S
C931   C167    1.411   1_556 S
C932   Cl950   1.776   .     S
Cu933  N935    2.053   .     S
Cu933  O939    1.980   .     S
Cu933  Cu934   2.733   .     S
Cu933  O937    1.979   .     S
Cu933  O943    1.981   .     S
Cu933  O941    1.982   .     S
Cu934  O938    1.979   .     S
Cu934  O940    1.980   .     S
Cu934  N936    2.053   .     S
Cu934  O942    1.982   .     S
Cu934  O944    1.981   .     S
S951   O953    1.495   .     D
S951   O952    1.503   .     D
O954   H955    0.991   .     S
O954   S213    1.683   1_556 S
S956   O958    1.503   .     D
S956   O959    1.680   .     S
S956   O219    1.504   1_556 S
O959   H960    0.991   .     S
S965   O967    1.495   .     D
S965   O968    1.668   .     S
S965   O966    1.502   .     D
O968   H969    0.976   .     S
S970   O971    1.501   .     D
S970   O972    1.504   .     D
S970   O973    1.674   .     S
O973   H974    0.991   .     S
S975   O976    1.498   .     D
S975   O977    1.501   .     D
S975   O978    1.673   .     S
O978   H979    0.991   .     S
S980   O982    1.502   .     D
S980   O981    1.506   .     D
S980   O983    1.671   .     S
O983   H984    0.991   .     S
C985   O1022   1.314   .     A
C985   O1019   1.315   .     A
C985   C994    1.474   .     S
C986   O1021   1.308   .     A
C986   O1020   1.318   .     A
C986   C993    1.469   .     S
C987   S1033   1.791   .     S
C987   C1012   1.437   .     A
C988   C1011   1.415   .     A
C988   S1038   1.784   .     S
C988   C276    1.407   1_556 S
C989   Cl1043  1.777   .     S
C989   C994    1.420   .     A
C989   C1155   1.389   1_455 S
C990   C993    1.413   .     A
C990   Cl1044  1.779   .     S
C990   C1074   1.390   .     S
C991   Cl1045  1.777   .     S
C991   C993    1.406   .     A
C991   C1071   1.389   .     S
C992   C994    1.419   .     A
C992   Cl1046  1.777   .     S
C992   C1154   1.390   1_455 S
C995   S1047   1.861   .     S
C995   N1018   1.414   .     A
C996   S1052   1.844   .     S
C996   N1017   1.394   .     A
C996   C1243   1.465   .     S
C997   S1057   1.844   .     S
C997   N1018   1.402   .     A
C998   N1017   1.381   .     A
C998   S1062   1.809   .     S
C998   C1241   1.457   .     S
C999   C1004   1.488   .     S
C999   O1023   1.313   .     A
C999   O1026   1.323   .     A
C1000  C1003   1.482   .     S
C1000  O1024   1.318   .     A
C1000  O1025   1.315   .     A
C1001  C1011   1.403   .     A
C1001  Cl1027  1.757   .     S
C1001  C1003   1.404   .     A
C1002  C1012   1.418   .     A
C1002  Cl1028  1.759   .     S
C1002  C1004   1.424   .     A
C1003  C1005   1.412   .     A
C1004  C1006   1.399   .     A
C1005  Cl1029  1.770   .     S
C1005  C1007   1.414   .     A
C1006  C1008   1.405   .     A
C1006  Cl1030  1.763   .     S
C1007  C1009   1.410   .     A
C1007  C1013   1.409   .     A
C1008  C1010   1.417   .     A
C1008  C1014   1.417   .     A
C1009  C1011   1.410   .     A
C1009  C272    1.403   1_556 S
C1010  C1012   1.419   .     A
C1013  Cl1031  1.780   .     S
C1013  C249    1.411   1_556 S
C1014  Cl1032  1.776   .     S
Cu1015 N1017   2.053   .     S
Cu1015 O1021   1.980   .     S
Cu1015 Cu1016  2.733   .     S
Cu1015 O1019   1.979   .     S
Cu1015 O1025   1.981   .     S
Cu1015 O1023   1.982   .     S
Cu1016 O1020   1.979   .     S
Cu1016 O1022   1.980   .     S
Cu1016 N1018   2.053   .     S
Cu1016 O1024   1.982   .     S
Cu1016 O1026   1.981   .     S
S1033  O1035   1.495   .     D
S1033  O1034   1.503   .     D
O1036  H1037   0.991   .     S
O1036  S295    1.683   1_556 S
S1038  O1040   1.503   .     D
S1038  O1041   1.680   .     S
S1038  O301    1.504   1_556 S
O1041  H1042   0.991   .     S
S1047  O1049   1.495   .     D
S1047  O1050   1.668   .     S
S1047  O1048   1.502   .     D
O1050  H1051   0.976   .     S
S1052  O1053   1.501   .     D
S1052  O1054   1.504   .     D
S1052  O1055   1.674   .     S
O1055  H1056   0.991   .     S
S1057  O1058   1.498   .     D
S1057  O1059   1.501   .     D
S1057  O1060   1.673   .     S
O1060  H1061   0.991   .     S
S1062  O1064   1.502   .     D
S1062  O1063   1.506   .     D
S1062  O1065   1.671   .     S
O1065  H1066   0.991   .     S
C1067  O1104   1.314   .     A
C1067  O1101   1.315   .     A
C1067  C1076   1.474   .     S
C1068  O1103   1.308   .     A
C1068  O1102   1.318   .     A
C1068  C1075   1.469   .     S
C1069  S1115   1.791   .     S
C1069  C1094   1.437   .     A
C1070  C1093   1.415   .     A
C1070  S1120   1.784   .     S
C1070  C358    1.407   1_556 S
C1071  Cl1125  1.777   .     S
C1071  C1076   1.420   .     A
C1072  C1075   1.413   .     A
C1072  Cl1126  1.779   .     S
C1072  C1156   1.390   .     S
C1073  Cl1127  1.777   .     S
C1073  C1075   1.406   .     A
C1073  C1153   1.389   .     S
C1074  C1076   1.419   .     A
C1074  Cl1128  1.777   .     S
C1077  S1129   1.861   .     S
C1077  N1100   1.414   .     A
C1078  S1134   1.844   .     S
C1078  N1099   1.394   .     A
C1078  C1325   1.465   .     S
C1079  S1139   1.844   .     S
C1079  N1100   1.402   .     A
C1080  N1099   1.381   .     A
C1080  S1144   1.809   .     S
C1080  C1323   1.457   .     S
C1081  C1086   1.488   .     S
C1081  O1105   1.313   .     A
C1081  O1108   1.323   .     A
C1082  C1085   1.482   .     S
C1082  O1106   1.318   .     A
C1082  O1107   1.315   .     A
C1083  C1093   1.403   .     A
C1083  Cl1109  1.757   .     S
C1083  C1085   1.404   .     A
C1084  C1094   1.418   .     A
C1084  Cl1110  1.759   .     S
C1084  C1086   1.424   .     A
C1085  C1087   1.412   .     A
C1086  C1088   1.399   .     A
C1087  Cl1111  1.770   .     S
C1087  C1089   1.414   .     A
C1088  C1090   1.405   .     A
C1088  Cl1112  1.763   .     S
C1089  C1091   1.410   .     A
C1089  C1095   1.409   .     A
C1090  C1092   1.417   .     A
C1090  C1096   1.417   .     A
C1091  C1093   1.410   .     A
C1091  C354    1.403   1_556 S
C1092  C1094   1.419   .     A
C1095  Cl1113  1.780   .     S
C1095  C331    1.411   1_556 S
C1096  Cl1114  1.776   .     S
Cu1097 N1099   2.053   .     S
Cu1097 O1103   1.980   .     S
Cu1097 Cu1098  2.733   .     S
Cu1097 O1101   1.979   .     S
Cu1097 O1107   1.981   .     S
Cu1097 O1105   1.982   .     S
Cu1098 O1102   1.979   .     S
Cu1098 O1104   1.980   .     S
Cu1098 N1100   2.053   .     S
Cu1098 O1106   1.982   .     S
Cu1098 O1108   1.981   .     S
S1115  O1117   1.495   .     D
S1115  O1116   1.503   .     D
O1118  H1119   0.991   .     S
O1118  S377    1.683   1_556 S
S1120  O1122   1.503   .     D
S1120  O1123   1.680   .     S
S1120  O383    1.504   1_556 S
O1123  H1124   0.991   .     S
S1129  O1131   1.495   .     D
S1129  O1132   1.668   .     S
S1129  O1130   1.502   .     D
O1132  H1133   0.976   .     S
S1134  O1135   1.501   .     D
S1134  O1136   1.504   .     D
S1134  O1137   1.674   .     S
O1137  H1138   0.991   .     S
S1139  O1140   1.498   .     D
S1139  O1141   1.501   .     D
S1139  O1142   1.673   .     S
O1142  H1143   0.991   .     S
S1144  O1146   1.502   .     D
S1144  O1145   1.506   .     D
S1144  O1147   1.671   .     S
O1147  H1148   0.991   .     S
C1149  O1186   1.314   .     A
C1149  O1183   1.315   .     A
C1149  C1158   1.474   .     S
C1150  O1185   1.308   .     A
C1150  O1184   1.318   .     A
C1150  C1157   1.469   .     S
C1151  S1197   1.791   .     S
C1151  C1176   1.437   .     A
C1152  C1175   1.415   .     A
C1152  S1202   1.784   .     S
C1152  C440    1.407   1_556 S
C1153  Cl1207  1.777   .     S
C1153  C1158   1.420   .     A
C1154  C1157   1.413   .     A
C1154  Cl1208  1.779   .     S
C1154  C992    1.390   1_655 S
C1155  Cl1209  1.777   .     S
C1155  C1157   1.406   .     A
C1155  C989    1.389   1_655 S
C1156  C1158   1.419   .     A
C1156  Cl1210  1.777   .     S
C1159  S1211   1.861   .     S
C1159  N1182   1.414   .     A
C1160  S1216   1.844   .     S
C1160  N1181   1.394   .     A
C1160  C1407   1.465   .     S
C1161  S1221   1.844   .     S
C1161  N1182   1.402   .     A
C1162  N1181   1.381   .     A
C1162  S1226   1.809   .     S
C1162  C1405   1.457   .     S
C1163  C1168   1.488   .     S
C1163  O1187   1.313   .     A
C1163  O1190   1.323   .     A
C1164  C1167   1.482   .     S
C1164  O1188   1.318   .     A
C1164  O1189   1.315   .     A
C1165  C1175   1.403   .     A
C1165  Cl1191  1.757   .     S
C1165  C1167   1.404   .     A
C1166  C1176   1.418   .     A
C1166  Cl1192  1.759   .     S
C1166  C1168   1.424   .     A
C1167  C1169   1.412   .     A
C1168  C1170   1.399   .     A
C1169  Cl1193  1.770   .     S
C1169  C1171   1.414   .     A
C1170  C1172   1.405   .     A
C1170  Cl1194  1.763   .     S
C1171  C1173   1.410   .     A
C1171  C1177   1.409   .     A
C1172  C1174   1.417   .     A
C1172  C1178   1.417   .     A
C1173  C1175   1.410   .     A
C1173  C436    1.403   1_556 S
C1174  C1176   1.419   .     A
C1177  Cl1195  1.780   .     S
C1177  C413    1.411   1_556 S
C1178  Cl1196  1.776   .     S
Cu1179 N1181   2.053   .     S
Cu1179 O1185   1.980   .     S
Cu1179 Cu1180  2.733   .     S
Cu1179 O1183   1.979   .     S
Cu1179 O1189   1.981   .     S
Cu1179 O1187   1.982   .     S
Cu1180 O1184   1.979   .     S
Cu1180 O1186   1.980   .     S
Cu1180 N1182   2.053   .     S
Cu1180 O1188   1.982   .     S
Cu1180 O1190   1.981   .     S
S1197  O1199   1.495   .     D
S1197  O1198   1.503   .     D
O1200  H1201   0.991   .     S
O1200  S459    1.683   1_556 S
S1202  O1204   1.503   .     D
S1202  O1205   1.680   .     S
S1202  O465    1.504   1_556 S
O1205  H1206   0.991   .     S
S1211  O1213   1.495   .     D
S1211  O1214   1.668   .     S
S1211  O1212   1.502   .     D
O1214  H1215   0.976   .     S
S1216  O1217   1.501   .     D
S1216  O1218   1.504   .     D
S1216  O1219   1.674   .     S
O1219  H1220   0.991   .     S
S1221  O1222   1.498   .     D
S1221  O1223   1.501   .     D
S1221  O1224   1.673   .     S
O1224  H1225   0.991   .     S
S1226  O1228   1.502   .     D
S1226  O1227   1.506   .     D
S1226  O1229   1.671   .     S
O1229  H1230   0.991   .     S
C1231  O1268   1.314   .     A
C1231  O1265   1.315   .     A
C1231  C1240   1.474   .     S
C1232  O1267   1.308   .     A
C1232  O1266   1.318   .     A
C1232  C1239   1.469   .     S
C1233  S1279   1.791   .     S
C1233  C1258   1.437   .     A
C1234  C1257   1.415   .     A
C1234  S1284   1.784   .     S
C1234  C522    1.407   1_556 S
C1235  Cl1289  1.777   .     S
C1235  C1240   1.420   .     A
C1235  C1401   1.389   1_455 S
C1236  C1239   1.413   .     A
C1236  Cl1290  1.779   .     S
C1236  C1320   1.390   .     S
C1237  Cl1291  1.777   .     S
C1237  C1239   1.406   .     A
C1237  C1317   1.389   .     S
C1238  C1240   1.419   .     A
C1238  Cl1292  1.777   .     S
C1238  C1400   1.390   1_455 S
C1241  S1293   1.861   .     S
C1241  N1264   1.414   .     A
C1242  S1298   1.844   .     S
C1242  N1263   1.394   .     A
C1242  C751    1.465   1_565 S
C1243  S1303   1.844   .     S
C1243  N1264   1.402   .     A
C1244  N1263   1.381   .     A
C1244  S1308   1.809   .     S
C1244  C749    1.457   1_565 S
C1245  C1250   1.488   .     S
C1245  O1269   1.313   .     A
C1245  O1272   1.323   .     A
C1246  C1249   1.482   .     S
C1246  O1270   1.318   .     A
C1246  O1271   1.315   .     A
C1247  C1257   1.403   .     A
C1247  Cl1273  1.757   .     S
C1247  C1249   1.404   .     A
C1248  C1258   1.418   .     A
C1248  Cl1274  1.759   .     S
C1248  C1250   1.424   .     A
C1249  C1251   1.412   .     A
C1250  C1252   1.399   .     A
C1251  Cl1275  1.770   .     S
C1251  C1253   1.414   .     A
C1252  C1254   1.405   .     A
C1252  Cl1276  1.763   .     S
C1253  C1255   1.410   .     A
C1253  C1259   1.409   .     A
C1254  C1256   1.417   .     A
C1254  C1260   1.417   .     A
C1255  C1257   1.410   .     A
C1255  C518    1.403   1_556 S
C1256  C1258   1.419   .     A
C1259  Cl1277  1.780   .     S
C1259  C495    1.411   1_556 S
C1260  Cl1278  1.776   .     S
Cu1261 N1263   2.053   .     S
Cu1261 O1267   1.980   .     S
Cu1261 Cu1262  2.733   .     S
Cu1261 O1265   1.979   .     S
Cu1261 O1271   1.981   .     S
Cu1261 O1269   1.982   .     S
Cu1262 O1266   1.979   .     S
Cu1262 O1268   1.980   .     S
Cu1262 N1264   2.053   .     S
Cu1262 O1270   1.982   .     S
Cu1262 O1272   1.981   .     S
S1279  O1281   1.495   .     D
S1279  O1280   1.503   .     D
O1282  H1283   0.991   .     S
O1282  S541    1.683   1_556 S
S1284  O1286   1.503   .     D
S1284  O1287   1.680   .     S
S1284  O547    1.504   1_556 S
O1287  H1288   0.991   .     S
S1293  O1295   1.495   .     D
S1293  O1296   1.668   .     S
S1293  O1294   1.502   .     D
O1296  H1297   0.976   .     S
S1298  O1299   1.501   .     D
S1298  O1300   1.504   .     D
S1298  O1301   1.674   .     S
O1301  H1302   0.991   .     S
S1303  O1304   1.498   .     D
S1303  O1305   1.501   .     D
S1303  O1306   1.673   .     S
O1306  H1307   0.991   .     S
S1308  O1310   1.502   .     D
S1308  O1309   1.506   .     D
S1308  O1311   1.671   .     S
O1311  H1312   0.991   .     S
C1313  O1350   1.314   .     A
C1313  O1347   1.315   .     A
C1313  C1322   1.474   .     S
C1314  O1349   1.308   .     A
C1314  O1348   1.318   .     A
C1314  C1321   1.469   .     S
C1315  S1361   1.791   .     S
C1315  C1340   1.437   .     A
C1316  C1339   1.415   .     A
C1316  S1366   1.784   .     S
C1316  C604    1.407   1_556 S
C1317  Cl1371  1.777   .     S
C1317  C1322   1.420   .     A
C1318  C1321   1.413   .     A
C1318  Cl1372  1.779   .     S
C1318  C1402   1.390   .     S
C1319  Cl1373  1.777   .     S
C1319  C1321   1.406   .     A
C1319  C1399   1.389   .     S
C1320  C1322   1.419   .     A
C1320  Cl1374  1.777   .     S
C1323  S1375   1.861   .     S
C1323  N1346   1.414   .     A
C1324  S1380   1.844   .     S
C1324  N1345   1.394   .     A
C1324  C833    1.465   1_565 S
C1325  S1385   1.844   .     S
C1325  N1346   1.402   .     A
C1326  N1345   1.381   .     A
C1326  S1390   1.809   .     S
C1326  C831    1.457   1_565 S
C1327  C1332   1.488   .     S
C1327  O1351   1.313   .     A
C1327  O1354   1.323   .     A
C1328  C1331   1.482   .     S
C1328  O1352   1.318   .     A
C1328  O1353   1.315   .     A
C1329  C1339   1.403   .     A
C1329  Cl1355  1.757   .     S
C1329  C1331   1.404   .     A
C1330  C1340   1.418   .     A
C1330  Cl1356  1.759   .     S
C1330  C1332   1.424   .     A
C1331  C1333   1.412   .     A
C1332  C1334   1.399   .     A
C1333  Cl1357  1.770   .     S
C1333  C1335   1.414   .     A
C1334  C1336   1.405   .     A
C1334  Cl1358  1.763   .     S
C1335  C1337   1.410   .     A
C1335  C1341   1.409   .     A
C1336  C1338   1.417   .     A
C1336  C1342   1.417   .     A
C1337  C1339   1.410   .     A
C1337  C600    1.403   1_556 S
C1338  C1340   1.419   .     A
C1341  Cl1359  1.780   .     S
C1341  C577    1.411   1_556 S
C1342  Cl1360  1.776   .     S
Cu1343 N1345   2.053   .     S
Cu1343 O1349   1.980   .     S
Cu1343 Cu1344  2.733   .     S
Cu1343 O1347   1.979   .     S
Cu1343 O1353   1.981   .     S
Cu1343 O1351   1.982   .     S
Cu1344 O1348   1.979   .     S
Cu1344 O1350   1.980   .     S
Cu1344 N1346   2.053   .     S
Cu1344 O1352   1.982   .     S
Cu1344 O1354   1.981   .     S
S1361  O1363   1.495   .     D
S1361  O1362   1.503   .     D
O1364  H1365   0.991   .     S
O1364  S623    1.683   1_556 S
S1366  O1368   1.503   .     D
S1366  O1369   1.680   .     S
S1366  O629    1.504   1_556 S
O1369  H1370   0.991   .     S
S1375  O1377   1.495   .     D
S1375  O1378   1.668   .     S
S1375  O1376   1.502   .     D
O1378  H1379   0.976   .     S
S1380  O1381   1.501   .     D
S1380  O1382   1.504   .     D
S1380  O1383   1.674   .     S
O1383  H1384   0.991   .     S
S1385  O1386   1.498   .     D
S1385  O1387   1.501   .     D
S1385  O1388   1.673   .     S
O1388  H1389   0.991   .     S
S1390  O1392   1.502   .     D
S1390  O1391   1.506   .     D
S1390  O1393   1.671   .     S
O1393  H1394   0.991   .     S
C1395  O1432   1.314   .     A
C1395  O1429   1.315   .     A
C1395  C1404   1.474   .     S
C1396  O1431   1.308   .     A
C1396  O1430   1.318   .     A
C1396  C1403   1.469   .     S
C1397  S1443   1.791   .     S
C1397  C1422   1.437   .     A
C1398  C1421   1.415   .     A
C1398  S1448   1.784   .     S
C1398  C686    1.407   1_556 S
C1399  Cl1453  1.777   .     S
C1399  C1404   1.420   .     A
C1400  C1403   1.413   .     A
C1400  Cl1454  1.779   .     S
C1400  C1238   1.390   1_655 S
C1401  Cl1455  1.777   .     S
C1401  C1403   1.406   .     A
C1401  C1235   1.389   1_655 S
C1402  C1404   1.419   .     A
C1402  Cl1456  1.777   .     S
C1405  S1457   1.861   .     S
C1405  N1428   1.414   .     A
C1406  S1462   1.844   .     S
C1406  N1427   1.394   .     A
C1406  C915    1.465   1_565 S
C1407  S1467   1.844   .     S
C1407  N1428   1.402   .     A
C1408  N1427   1.381   .     A
C1408  S1472   1.809   .     S
C1408  C913    1.457   1_565 S
C1409  C1414   1.488   .     S
C1409  O1433   1.313   .     A
C1409  O1436   1.323   .     A
C1410  C1413   1.482   .     S
C1410  O1434   1.318   .     A
C1410  O1435   1.315   .     A
C1411  C1421   1.403   .     A
C1411  Cl1437  1.757   .     S
C1411  C1413   1.404   .     A
C1412  C1422   1.418   .     A
C1412  Cl1438  1.759   .     S
C1412  C1414   1.424   .     A
C1413  C1415   1.412   .     A
C1414  C1416   1.399   .     A
C1415  Cl1439  1.770   .     S
C1415  C1417   1.414   .     A
C1416  C1418   1.405   .     A
C1416  Cl1440  1.763   .     S
C1417  C1419   1.410   .     A
C1417  C1423   1.409   .     A
C1418  C1420   1.417   .     A
C1418  C1424   1.417   .     A
C1419  C1421   1.410   .     A
C1419  C682    1.403   1_556 S
C1420  C1422   1.419   .     A
C1423  Cl1441  1.780   .     S
C1423  C659    1.411   1_556 S
C1424  Cl1442  1.776   .     S
Cu1425 N1427   2.053   .     S
Cu1425 O1431   1.980   .     S
Cu1425 Cu1426  2.733   .     S
Cu1425 O1429   1.979   .     S
Cu1425 O1435   1.981   .     S
Cu1425 O1433   1.982   .     S
Cu1426 O1430   1.979   .     S
Cu1426 O1432   1.980   .     S
Cu1426 N1428   2.053   .     S
Cu1426 O1434   1.982   .     S
Cu1426 O1436   1.981   .     S
S1443  O1445   1.495   .     D
S1443  O1444   1.503   .     D
O1446  H1447   0.991   .     S
O1446  S705    1.683   1_556 S
S1448  O1450   1.503   .     D
S1448  O1451   1.680   .     S
S1448  O711    1.504   1_556 S
O1451  H1452   0.991   .     S
S1457  O1459   1.495   .     D
S1457  O1460   1.668   .     S
S1457  O1458   1.502   .     D
O1460  H1461   0.976   .     S
S1462  O1463   1.501   .     D
S1462  O1464   1.504   .     D
S1462  O1465   1.674   .     S
O1465  H1466   0.991   .     S
S1467  O1468   1.498   .     D
S1467  O1469   1.501   .     D
S1467  O1470   1.673   .     S
O1470  H1471   0.991   .     S
S1472  O1474   1.502   .     D
S1472  O1473   1.506   .     D
S1472  O1475   1.671   .     S
O1475  H1476   0.991   .     S
