data_str_m2_o1_o10_pcu_sym.9
_audit_creation_date              2020-01-03
_audit_creation_method            'Materials Studio'
_symmetry_space_group_name_H-M    'P1'
_symmetry_Int_Tables_number       1
_symmetry_cell_setting            triclinic
loop_
_symmetry_equiv_pos_as_xyz
  x,y,z
_cell_length_a                    26.1898
_cell_length_b                    32.3834
_cell_length_c                    28.5935
_cell_angle_alpha                 90.5717
_cell_angle_beta                  98.1012
_cell_angle_gamma                 90.3606
loop_
_atom_site_label
_atom_site_type_symbol
_atom_site_fract_x
_atom_site_fract_y
_atom_site_fract_z
_atom_site_U_iso_or_equiv
_atom_site_adp_type
_atom_site_occupancy
C1     C     0.16768   0.08746   0.16652   0.00000  Uiso   1.00
C2     C     0.13538   0.02249   0.19323   0.00000  Uiso   1.00
C3     C     0.16537   0.29051   0.16728   0.00000  Uiso   1.00
C4     C     0.16797   0.04283   0.16606   0.00000  Uiso   1.00
C5     C     0.13502   0.14012   0.02066   0.00000  Uiso   1.00
C6     C     0.19831   0.19322   0.31267   0.00000  Uiso   1.00
C7     C     0.13467   0.14089   0.30396   0.00000  Uiso   1.00
C8     C     0.19867   0.19244   0.02938   0.00000  Uiso   1.00
C9     C     0.23766   0.04130   0.11168   0.00000  Uiso   1.00
C10    C     0.09573   0.29204   0.22170   0.00000  Uiso   1.00
C11    C     0.10146   0.07406   0.02362   0.00000  Uiso   1.00
C12    C     0.16565   0.24588   0.16681   0.00000  Uiso   1.00
C13    C     0.23194   0.25926   0.30977   0.00000  Uiso   1.00
C14    C     0.06791   0.16664   0.15454   0.00000  Uiso   1.00
C15    C     0.26543   0.16670   0.17879   0.00000  Uiso   1.00
C16    C     0.01258   0.16663   0.14790   0.00000  Uiso   1.00
C17    C     0.32075   0.16670   0.18543   0.00000  Uiso   1.00
C18    C     0.19996   0.02041   0.13933   0.00000  Uiso   1.00
C19    C     0.13339   0.31292   0.19401   0.00000  Uiso   1.00
C20    C     0.19796   0.31085   0.14011   0.00000  Uiso   1.00
Cu21   Cu    0.16667   0.16667   0.21355   0.00000  Uiso   1.00
Cu22   Cu    0.16667   0.16666   0.11978   0.00000  Uiso   1.00
H23    H     0.32582   0.16657   0.11193   0.00000  Uiso   1.00
H24    H     0.07077   0.27016   0.19845   0.00000  Uiso   1.00
H25    H     0.11680   0.27513   0.25190   0.00000  Uiso   1.00
H26    H     0.07026   0.31470   0.23624   0.00000  Uiso   1.00
H27    H     0.14058   0.06352   0.01798   0.00000  Uiso   1.00
H28    H     0.07388   0.07086   0.32383   0.00000  Uiso   1.00
H29    H     0.08799   0.05319   0.04996   0.00000  Uiso   1.00
H30    H     0.25959   0.26242   0.00951   0.00000  Uiso   1.00
H31    H     0.19286   0.26982   0.31550   0.00000  Uiso   1.00
H32    H     0.24536   0.28016   0.28342   0.00000  Uiso   1.00
H33    H     0.00752   0.16676   0.22140   0.00000  Uiso   1.00
H34    H     0.22254   0.29305   0.12007   0.00000  Uiso   1.00
H35    H     0.11080   0.04029   0.21327   0.00000  Uiso   1.00
H36    H     0.10861   0.12112   0.28095   0.00000  Uiso   1.00
H37    H     0.22472   0.21222   0.05238   0.00000  Uiso   1.00
H38    H     0.26261   0.06316   0.13496   0.00000  Uiso   1.00
H39    H     0.26313   0.01864   0.09715   0.00000  Uiso   1.00
H40    H     0.21662   0.05823   0.08148   0.00000  Uiso   1.00
N41    N     0.16668   0.16668   0.28403   0.00000  Uiso   1.00
N42    N     0.16665   0.16666   0.04931   0.00000  Uiso   1.00
O43    O     0.16666   0.10655   0.20625   0.00000  Uiso   1.00
O44    O     0.23174   0.21840   0.29201   0.00000  Uiso   1.00
O45    O     0.16667   0.22678   0.12709   0.00000  Uiso   1.00
O46    O     0.16666   0.10654   0.12706   0.00000  Uiso   1.00
O47    O     0.16667   0.22679   0.20628   0.00000  Uiso   1.00
O48    O     0.09161   0.16667   0.19712   0.00000  Uiso   1.00
O49    O     0.24172   0.16666   0.13621   0.00000  Uiso   1.00
O50    O     0.09161   0.16666   0.11793   0.00000  Uiso   1.00
O51    O     0.24172   0.16667   0.21540   0.00000  Uiso   1.00
O52    O     0.10158   0.11495   0.04131   0.00000  Uiso   1.00
C53    C     0.50102   0.08746   0.16652   0.00000  Uiso   1.00
C54    C     0.46871   0.02249   0.19323   0.00000  Uiso   1.00
C55    C     0.49870   0.29051   0.16728   0.00000  Uiso   1.00
C56    C     0.50130   0.04283   0.16606   0.00000  Uiso   1.00
C57    C     0.46836   0.14012   0.02066   0.00000  Uiso   1.00
C58    C     0.53164   0.19322   0.31267   0.00000  Uiso   1.00
C59    C     0.46800   0.14089   0.30396   0.00000  Uiso   1.00
C60    C     0.53200   0.19244   0.02938   0.00000  Uiso   1.00
C61    C     0.57099   0.04130   0.11168   0.00000  Uiso   1.00
C62    C     0.42906   0.29204   0.22170   0.00000  Uiso   1.00
C63    C     0.43479   0.07406   0.02362   0.00000  Uiso   1.00
C64    C     0.49898   0.24588   0.16681   0.00000  Uiso   1.00
C65    C     0.56528   0.25926   0.30977   0.00000  Uiso   1.00
C66    C     0.40124   0.16664   0.15454   0.00000  Uiso   1.00
C67    C     0.59876   0.16670   0.17879   0.00000  Uiso   1.00
C68    C     0.34591   0.16663   0.14790   0.00000  Uiso   1.00
C69    C     0.65409   0.16670   0.18543   0.00000  Uiso   1.00
C70    C     0.53329   0.02041   0.13933   0.00000  Uiso   1.00
C71    C     0.46672   0.31292   0.19401   0.00000  Uiso   1.00
C72    C     0.53130   0.31085   0.14011   0.00000  Uiso   1.00
Cu73   Cu    0.50000   0.16667   0.21355   0.00000  Uiso   1.00
Cu74   Cu    0.50000   0.16666   0.11978   0.00000  Uiso   1.00
H75    H     0.65915   0.16657   0.11193   0.00000  Uiso   1.00
H76    H     0.40410   0.27016   0.19845   0.00000  Uiso   1.00
H77    H     0.45013   0.27513   0.25190   0.00000  Uiso   1.00
H78    H     0.40359   0.31470   0.23624   0.00000  Uiso   1.00
H79    H     0.47391   0.06352   0.01798   0.00000  Uiso   1.00
H80    H     0.40722   0.07086   0.32383   0.00000  Uiso   1.00
H81    H     0.42132   0.05319   0.04996   0.00000  Uiso   1.00
H82    H     0.59292   0.26242   0.00951   0.00000  Uiso   1.00
H83    H     0.52619   0.26982   0.31550   0.00000  Uiso   1.00
H84    H     0.57870   0.28016   0.28342   0.00000  Uiso   1.00
H85    H     0.34085   0.16676   0.22140   0.00000  Uiso   1.00
H86    H     0.55588   0.29305   0.12007   0.00000  Uiso   1.00
H87    H     0.44413   0.04029   0.21327   0.00000  Uiso   1.00
H88    H     0.44195   0.12112   0.28095   0.00000  Uiso   1.00
H89    H     0.55805   0.21222   0.05238   0.00000  Uiso   1.00
H90    H     0.59594   0.06316   0.13496   0.00000  Uiso   1.00
H91    H     0.59646   0.01864   0.09715   0.00000  Uiso   1.00
H92    H     0.54995   0.05823   0.08148   0.00000  Uiso   1.00
N93    N     0.50001   0.16668   0.28403   0.00000  Uiso   1.00
N94    N     0.49999   0.16666   0.04931   0.00000  Uiso   1.00
O95    O     0.50000   0.10655   0.20625   0.00000  Uiso   1.00
O96    O     0.56507   0.21840   0.29201   0.00000  Uiso   1.00
O97    O     0.50000   0.22678   0.12709   0.00000  Uiso   1.00
O98    O     0.50000   0.10654   0.12706   0.00000  Uiso   1.00
O99    O     0.50000   0.22679   0.20628   0.00000  Uiso   1.00
O100   O     0.42495   0.16667   0.19712   0.00000  Uiso   1.00
O101   O     0.57505   0.16666   0.13621   0.00000  Uiso   1.00
O102   O     0.42494   0.16666   0.11793   0.00000  Uiso   1.00
O103   O     0.57506   0.16667   0.21540   0.00000  Uiso   1.00
O104   O     0.43491   0.11495   0.04131   0.00000  Uiso   1.00
C105   C     0.83435   0.08746   0.16652   0.00000  Uiso   1.00
C106   C     0.80204   0.02249   0.19323   0.00000  Uiso   1.00
C107   C     0.83204   0.29051   0.16728   0.00000  Uiso   1.00
C108   C     0.83464   0.04283   0.16606   0.00000  Uiso   1.00
C109   C     0.80169   0.14012   0.02066   0.00000  Uiso   1.00
C110   C     0.86498   0.19322   0.31267   0.00000  Uiso   1.00
C111   C     0.80133   0.14089   0.30396   0.00000  Uiso   1.00
C112   C     0.86533   0.19244   0.02938   0.00000  Uiso   1.00
C113   C     0.90432   0.04130   0.11168   0.00000  Uiso   1.00
C114   C     0.76239   0.29204   0.22170   0.00000  Uiso   1.00
C115   C     0.76812   0.07406   0.02362   0.00000  Uiso   1.00
C116   C     0.83232   0.24588   0.16681   0.00000  Uiso   1.00
C117   C     0.89861   0.25926   0.30977   0.00000  Uiso   1.00
C118   C     0.73457   0.16664   0.15454   0.00000  Uiso   1.00
C119   C     0.93210   0.16670   0.17879   0.00000  Uiso   1.00
C120   C     0.67925   0.16663   0.14790   0.00000  Uiso   1.00
C121   C     0.98742   0.16670   0.18543   0.00000  Uiso   1.00
C122   C     0.86663   0.02041   0.13933   0.00000  Uiso   1.00
C123   C     0.80006   0.31292   0.19401   0.00000  Uiso   1.00
C124   C     0.86463   0.31085   0.14011   0.00000  Uiso   1.00
Cu125  Cu    0.83333   0.16667   0.21355   0.00000  Uiso   1.00
Cu126  Cu    0.83333   0.16666   0.11978   0.00000  Uiso   1.00
H127   H     0.99248   0.16657   0.11193   0.00000  Uiso   1.00
H128   H     0.73744   0.27016   0.19845   0.00000  Uiso   1.00
H129   H     0.78347   0.27513   0.25190   0.00000  Uiso   1.00
H130   H     0.73692   0.31470   0.23624   0.00000  Uiso   1.00
H131   H     0.80724   0.06352   0.01798   0.00000  Uiso   1.00
H132   H     0.74055   0.07086   0.32383   0.00000  Uiso   1.00
H133   H     0.75465   0.05319   0.04996   0.00000  Uiso   1.00
H134   H     0.92626   0.26242   0.00951   0.00000  Uiso   1.00
H135   H     0.85953   0.26982   0.31550   0.00000  Uiso   1.00
H136   H     0.91203   0.28016   0.28342   0.00000  Uiso   1.00
H137   H     0.67418   0.16676   0.22140   0.00000  Uiso   1.00
H138   H     0.88921   0.29305   0.12007   0.00000  Uiso   1.00
H139   H     0.77747   0.04029   0.21327   0.00000  Uiso   1.00
H140   H     0.77528   0.12112   0.28095   0.00000  Uiso   1.00
H141   H     0.89138   0.21222   0.05238   0.00000  Uiso   1.00
H142   H     0.92928   0.06316   0.13496   0.00000  Uiso   1.00
H143   H     0.92980   0.01864   0.09715   0.00000  Uiso   1.00
H144   H     0.88328   0.05823   0.08148   0.00000  Uiso   1.00
N145   N     0.83335   0.16668   0.28403   0.00000  Uiso   1.00
N146   N     0.83332   0.16666   0.04931   0.00000  Uiso   1.00
O147   O     0.83333   0.10655   0.20625   0.00000  Uiso   1.00
O148   O     0.89841   0.21840   0.29201   0.00000  Uiso   1.00
O149   O     0.83334   0.22678   0.12709   0.00000  Uiso   1.00
O150   O     0.83333   0.10654   0.12706   0.00000  Uiso   1.00
O151   O     0.83334   0.22679   0.20628   0.00000  Uiso   1.00
O152   O     0.75828   0.16667   0.19712   0.00000  Uiso   1.00
O153   O     0.90839   0.16666   0.13621   0.00000  Uiso   1.00
O154   O     0.75828   0.16666   0.11793   0.00000  Uiso   1.00
O155   O     0.90839   0.16667   0.21540   0.00000  Uiso   1.00
O156   O     0.76825   0.11495   0.04131   0.00000  Uiso   1.00
C157   C     0.16768   0.42079   0.16652   0.00000  Uiso   1.00
C158   C     0.13538   0.35582   0.19323   0.00000  Uiso   1.00
C159   C     0.16537   0.62384   0.16728   0.00000  Uiso   1.00
C160   C     0.16797   0.37616   0.16606   0.00000  Uiso   1.00
C161   C     0.13502   0.47345   0.02066   0.00000  Uiso   1.00
C162   C     0.19831   0.52655   0.31267   0.00000  Uiso   1.00
C163   C     0.13467   0.47423   0.30396   0.00000  Uiso   1.00
C164   C     0.19867   0.52578   0.02938   0.00000  Uiso   1.00
C165   C     0.23766   0.37463   0.11168   0.00000  Uiso   1.00
C166   C     0.09573   0.62537   0.22170   0.00000  Uiso   1.00
C167   C     0.10146   0.40740   0.02362   0.00000  Uiso   1.00
C168   C     0.16565   0.57921   0.16681   0.00000  Uiso   1.00
C169   C     0.23194   0.59260   0.30977   0.00000  Uiso   1.00
C170   C     0.06791   0.49997   0.15454   0.00000  Uiso   1.00
C171   C     0.26543   0.50003   0.17879   0.00000  Uiso   1.00
C172   C     0.01258   0.49996   0.14790   0.00000  Uiso   1.00
C173   C     0.32075   0.50004   0.18543   0.00000  Uiso   1.00
C174   C     0.19996   0.35375   0.13933   0.00000  Uiso   1.00
C175   C     0.13339   0.64626   0.19401   0.00000  Uiso   1.00
C176   C     0.19796   0.64418   0.14011   0.00000  Uiso   1.00
Cu177  Cu    0.16667   0.50001   0.21355   0.00000  Uiso   1.00
Cu178  Cu    0.16667   0.49999   0.11978   0.00000  Uiso   1.00
H179   H     0.32582   0.49990   0.11193   0.00000  Uiso   1.00
H180   H     0.07077   0.60349   0.19845   0.00000  Uiso   1.00
H181   H     0.11680   0.60846   0.25190   0.00000  Uiso   1.00
H182   H     0.07026   0.64803   0.23624   0.00000  Uiso   1.00
H183   H     0.14058   0.39686   0.01798   0.00000  Uiso   1.00
H184   H     0.07388   0.40419   0.32383   0.00000  Uiso   1.00
H185   H     0.08799   0.38652   0.04996   0.00000  Uiso   1.00
H186   H     0.25959   0.59575   0.00951   0.00000  Uiso   1.00
H187   H     0.19286   0.60315   0.31550   0.00000  Uiso   1.00
H188   H     0.24536   0.61349   0.28342   0.00000  Uiso   1.00
H189   H     0.00752   0.50010   0.22140   0.00000  Uiso   1.00
H190   H     0.22254   0.62638   0.12007   0.00000  Uiso   1.00
H191   H     0.11080   0.37362   0.21327   0.00000  Uiso   1.00
H192   H     0.10861   0.45445   0.28095   0.00000  Uiso   1.00
H193   H     0.22472   0.54555   0.05238   0.00000  Uiso   1.00
H194   H     0.26261   0.39650   0.13496   0.00000  Uiso   1.00
H195   H     0.26313   0.35197   0.09715   0.00000  Uiso   1.00
H196   H     0.21662   0.39156   0.08148   0.00000  Uiso   1.00
N197   N     0.16668   0.50001   0.28403   0.00000  Uiso   1.00
N198   N     0.16665   0.49999   0.04931   0.00000  Uiso   1.00
O199   O     0.16666   0.43989   0.20625   0.00000  Uiso   1.00
O200   O     0.23174   0.55173   0.29201   0.00000  Uiso   1.00
O201   O     0.16667   0.56011   0.12709   0.00000  Uiso   1.00
O202   O     0.16666   0.43988   0.12706   0.00000  Uiso   1.00
O203   O     0.16667   0.56012   0.20628   0.00000  Uiso   1.00
O204   O     0.09161   0.50000   0.19712   0.00000  Uiso   1.00
O205   O     0.24172   0.50000   0.13621   0.00000  Uiso   1.00
O206   O     0.09161   0.49999   0.11793   0.00000  Uiso   1.00
O207   O     0.24172   0.50001   0.21540   0.00000  Uiso   1.00
O208   O     0.10158   0.44828   0.04131   0.00000  Uiso   1.00
C209   C     0.50102   0.42079   0.16652   0.00000  Uiso   1.00
C210   C     0.46871   0.35582   0.19323   0.00000  Uiso   1.00
C211   C     0.49870   0.62384   0.16728   0.00000  Uiso   1.00
C212   C     0.50130   0.37616   0.16606   0.00000  Uiso   1.00
C213   C     0.46836   0.47345   0.02066   0.00000  Uiso   1.00
C214   C     0.53164   0.52655   0.31267   0.00000  Uiso   1.00
C215   C     0.46800   0.47423   0.30396   0.00000  Uiso   1.00
C216   C     0.53200   0.52578   0.02938   0.00000  Uiso   1.00
C217   C     0.57099   0.37463   0.11168   0.00000  Uiso   1.00
C218   C     0.42906   0.62537   0.22170   0.00000  Uiso   1.00
C219   C     0.43479   0.40740   0.02362   0.00000  Uiso   1.00
C220   C     0.49898   0.57921   0.16681   0.00000  Uiso   1.00
C221   C     0.56528   0.59260   0.30977   0.00000  Uiso   1.00
C222   C     0.40124   0.49997   0.15454   0.00000  Uiso   1.00
C223   C     0.59876   0.50003   0.17879   0.00000  Uiso   1.00
C224   C     0.34591   0.49996   0.14790   0.00000  Uiso   1.00
C225   C     0.65409   0.50004   0.18543   0.00000  Uiso   1.00
C226   C     0.53329   0.35375   0.13933   0.00000  Uiso   1.00
C227   C     0.46672   0.64626   0.19401   0.00000  Uiso   1.00
C228   C     0.53130   0.64418   0.14011   0.00000  Uiso   1.00
Cu229  Cu    0.50000   0.50001   0.21355   0.00000  Uiso   1.00
Cu230  Cu    0.50000   0.49999   0.11978   0.00000  Uiso   1.00
H231   H     0.65915   0.49990   0.11193   0.00000  Uiso   1.00
H232   H     0.40410   0.60349   0.19845   0.00000  Uiso   1.00
H233   H     0.45013   0.60846   0.25190   0.00000  Uiso   1.00
H234   H     0.40359   0.64803   0.23624   0.00000  Uiso   1.00
H235   H     0.47391   0.39686   0.01798   0.00000  Uiso   1.00
H236   H     0.40722   0.40419   0.32383   0.00000  Uiso   1.00
H237   H     0.42132   0.38652   0.04996   0.00000  Uiso   1.00
H238   H     0.59292   0.59575   0.00951   0.00000  Uiso   1.00
H239   H     0.52619   0.60315   0.31550   0.00000  Uiso   1.00
H240   H     0.57870   0.61349   0.28342   0.00000  Uiso   1.00
H241   H     0.34085   0.50010   0.22140   0.00000  Uiso   1.00
H242   H     0.55588   0.62638   0.12007   0.00000  Uiso   1.00
H243   H     0.44413   0.37362   0.21327   0.00000  Uiso   1.00
H244   H     0.44195   0.45445   0.28095   0.00000  Uiso   1.00
H245   H     0.55805   0.54555   0.05238   0.00000  Uiso   1.00
H246   H     0.59594   0.39650   0.13496   0.00000  Uiso   1.00
H247   H     0.59646   0.35197   0.09715   0.00000  Uiso   1.00
H248   H     0.54995   0.39156   0.08148   0.00000  Uiso   1.00
N249   N     0.50001   0.50001   0.28403   0.00000  Uiso   1.00
N250   N     0.49999   0.49999   0.04931   0.00000  Uiso   1.00
O251   O     0.50000   0.43989   0.20625   0.00000  Uiso   1.00
O252   O     0.56507   0.55173   0.29201   0.00000  Uiso   1.00
O253   O     0.50000   0.56011   0.12709   0.00000  Uiso   1.00
O254   O     0.50000   0.43988   0.12706   0.00000  Uiso   1.00
O255   O     0.50000   0.56012   0.20628   0.00000  Uiso   1.00
O256   O     0.42495   0.50000   0.19712   0.00000  Uiso   1.00
O257   O     0.57505   0.50000   0.13621   0.00000  Uiso   1.00
O258   O     0.42494   0.49999   0.11793   0.00000  Uiso   1.00
O259   O     0.57506   0.50001   0.21540   0.00000  Uiso   1.00
O260   O     0.43491   0.44828   0.04131   0.00000  Uiso   1.00
C261   C     0.83435   0.42079   0.16652   0.00000  Uiso   1.00
C262   C     0.80204   0.35582   0.19323   0.00000  Uiso   1.00
C263   C     0.83204   0.62384   0.16728   0.00000  Uiso   1.00
C264   C     0.83464   0.37616   0.16606   0.00000  Uiso   1.00
C265   C     0.80169   0.47345   0.02066   0.00000  Uiso   1.00
C266   C     0.86498   0.52655   0.31267   0.00000  Uiso   1.00
C267   C     0.80133   0.47423   0.30396   0.00000  Uiso   1.00
C268   C     0.86533   0.52578   0.02938   0.00000  Uiso   1.00
C269   C     0.90432   0.37463   0.11168   0.00000  Uiso   1.00
C270   C     0.76239   0.62537   0.22170   0.00000  Uiso   1.00
C271   C     0.76812   0.40740   0.02362   0.00000  Uiso   1.00
C272   C     0.83232   0.57921   0.16681   0.00000  Uiso   1.00
C273   C     0.89861   0.59260   0.30977   0.00000  Uiso   1.00
C274   C     0.73457   0.49997   0.15454   0.00000  Uiso   1.00
C275   C     0.93210   0.50003   0.17879   0.00000  Uiso   1.00
C276   C     0.67925   0.49996   0.14790   0.00000  Uiso   1.00
C277   C     0.98742   0.50004   0.18543   0.00000  Uiso   1.00
C278   C     0.86663   0.35375   0.13933   0.00000  Uiso   1.00
C279   C     0.80006   0.64626   0.19401   0.00000  Uiso   1.00
C280   C     0.86463   0.64418   0.14011   0.00000  Uiso   1.00
Cu281  Cu    0.83333   0.50001   0.21355   0.00000  Uiso   1.00
Cu282  Cu    0.83333   0.49999   0.11978   0.00000  Uiso   1.00
H283   H     0.99248   0.49990   0.11193   0.00000  Uiso   1.00
H284   H     0.73744   0.60349   0.19845   0.00000  Uiso   1.00
H285   H     0.78347   0.60846   0.25190   0.00000  Uiso   1.00
H286   H     0.73692   0.64803   0.23624   0.00000  Uiso   1.00
H287   H     0.80724   0.39686   0.01798   0.00000  Uiso   1.00
H288   H     0.74055   0.40419   0.32383   0.00000  Uiso   1.00
H289   H     0.75465   0.38652   0.04996   0.00000  Uiso   1.00
H290   H     0.92626   0.59575   0.00951   0.00000  Uiso   1.00
H291   H     0.85953   0.60315   0.31550   0.00000  Uiso   1.00
H292   H     0.91203   0.61349   0.28342   0.00000  Uiso   1.00
H293   H     0.67418   0.50010   0.22140   0.00000  Uiso   1.00
H294   H     0.88921   0.62638   0.12007   0.00000  Uiso   1.00
H295   H     0.77747   0.37362   0.21327   0.00000  Uiso   1.00
H296   H     0.77528   0.45445   0.28095   0.00000  Uiso   1.00
H297   H     0.89138   0.54555   0.05238   0.00000  Uiso   1.00
H298   H     0.92928   0.39650   0.13496   0.00000  Uiso   1.00
H299   H     0.92980   0.35197   0.09715   0.00000  Uiso   1.00
H300   H     0.88328   0.39156   0.08148   0.00000  Uiso   1.00
N301   N     0.83335   0.50001   0.28403   0.00000  Uiso   1.00
N302   N     0.83332   0.49999   0.04931   0.00000  Uiso   1.00
O303   O     0.83333   0.43989   0.20625   0.00000  Uiso   1.00
O304   O     0.89841   0.55173   0.29201   0.00000  Uiso   1.00
O305   O     0.83334   0.56011   0.12709   0.00000  Uiso   1.00
O306   O     0.83333   0.43988   0.12706   0.00000  Uiso   1.00
O307   O     0.83334   0.56012   0.20628   0.00000  Uiso   1.00
O308   O     0.75828   0.50000   0.19712   0.00000  Uiso   1.00
O309   O     0.90839   0.50000   0.13621   0.00000  Uiso   1.00
O310   O     0.75828   0.49999   0.11793   0.00000  Uiso   1.00
O311   O     0.90839   0.50001   0.21540   0.00000  Uiso   1.00
O312   O     0.76825   0.44828   0.04131   0.00000  Uiso   1.00
C313   C     0.16768   0.75412   0.16652   0.00000  Uiso   1.00
C314   C     0.13538   0.68915   0.19323   0.00000  Uiso   1.00
C315   C     0.16537   0.95717   0.16728   0.00000  Uiso   1.00
C316   C     0.16797   0.70950   0.16606   0.00000  Uiso   1.00
C317   C     0.13502   0.80679   0.02066   0.00000  Uiso   1.00
C318   C     0.19831   0.85989   0.31267   0.00000  Uiso   1.00
C319   C     0.13467   0.80756   0.30396   0.00000  Uiso   1.00
C320   C     0.19867   0.85911   0.02938   0.00000  Uiso   1.00
C321   C     0.23766   0.70796   0.11168   0.00000  Uiso   1.00
C322   C     0.09573   0.95871   0.22170   0.00000  Uiso   1.00
C323   C     0.10146   0.74073   0.02362   0.00000  Uiso   1.00
C324   C     0.16565   0.91254   0.16681   0.00000  Uiso   1.00
C325   C     0.23194   0.92593   0.30977   0.00000  Uiso   1.00
C326   C     0.06791   0.83330   0.15454   0.00000  Uiso   1.00
C327   C     0.26543   0.83336   0.17879   0.00000  Uiso   1.00
C328   C     0.01258   0.83330   0.14790   0.00000  Uiso   1.00
C329   C     0.32075   0.83337   0.18543   0.00000  Uiso   1.00
C330   C     0.19996   0.68708   0.13933   0.00000  Uiso   1.00
C331   C     0.13339   0.97959   0.19401   0.00000  Uiso   1.00
C332   C     0.19796   0.97751   0.14011   0.00000  Uiso   1.00
Cu333  Cu    0.16667   0.83334   0.21355   0.00000  Uiso   1.00
Cu334  Cu    0.16667   0.83333   0.11978   0.00000  Uiso   1.00
H335   H     0.32582   0.83324   0.11193   0.00000  Uiso   1.00
H336   H     0.07077   0.93682   0.19845   0.00000  Uiso   1.00
H337   H     0.11680   0.94179   0.25190   0.00000  Uiso   1.00
H338   H     0.07026   0.98136   0.23624   0.00000  Uiso   1.00
H339   H     0.14058   0.73019   0.01798   0.00000  Uiso   1.00
H340   H     0.07388   0.73752   0.32383   0.00000  Uiso   1.00
H341   H     0.08799   0.71985   0.04996   0.00000  Uiso   1.00
H342   H     0.25959   0.92909   0.00951   0.00000  Uiso   1.00
H343   H     0.19286   0.93649   0.31550   0.00000  Uiso   1.00
H344   H     0.24536   0.94683   0.28342   0.00000  Uiso   1.00
H345   H     0.00752   0.83343   0.22140   0.00000  Uiso   1.00
H346   H     0.22254   0.95972   0.12007   0.00000  Uiso   1.00
H347   H     0.11080   0.70695   0.21327   0.00000  Uiso   1.00
H348   H     0.10861   0.78778   0.28095   0.00000  Uiso   1.00
H349   H     0.22472   0.87888   0.05238   0.00000  Uiso   1.00
H350   H     0.26261   0.72983   0.13496   0.00000  Uiso   1.00
H351   H     0.26313   0.68530   0.09715   0.00000  Uiso   1.00
H352   H     0.21662   0.72490   0.08148   0.00000  Uiso   1.00
N353   N     0.16668   0.83334   0.28403   0.00000  Uiso   1.00
N354   N     0.16665   0.83332   0.04931   0.00000  Uiso   1.00
O355   O     0.16666   0.77322   0.20625   0.00000  Uiso   1.00
O356   O     0.23174   0.88506   0.29201   0.00000  Uiso   1.00
O357   O     0.16667   0.89345   0.12709   0.00000  Uiso   1.00
O358   O     0.16666   0.77321   0.12706   0.00000  Uiso   1.00
O359   O     0.16667   0.89346   0.20628   0.00000  Uiso   1.00
O360   O     0.09161   0.83334   0.19712   0.00000  Uiso   1.00
O361   O     0.24172   0.83333   0.13621   0.00000  Uiso   1.00
O362   O     0.09161   0.83333   0.11793   0.00000  Uiso   1.00
O363   O     0.24172   0.83334   0.21540   0.00000  Uiso   1.00
O364   O     0.10158   0.78162   0.04131   0.00000  Uiso   1.00
C365   C     0.50102   0.75412   0.16652   0.00000  Uiso   1.00
C366   C     0.46871   0.68915   0.19323   0.00000  Uiso   1.00
C367   C     0.49870   0.95717   0.16728   0.00000  Uiso   1.00
C368   C     0.50130   0.70950   0.16606   0.00000  Uiso   1.00
C369   C     0.46836   0.80679   0.02066   0.00000  Uiso   1.00
C370   C     0.53164   0.85989   0.31267   0.00000  Uiso   1.00
C371   C     0.46800   0.80756   0.30396   0.00000  Uiso   1.00
C372   C     0.53200   0.85911   0.02938   0.00000  Uiso   1.00
C373   C     0.57099   0.70796   0.11168   0.00000  Uiso   1.00
C374   C     0.42906   0.95871   0.22170   0.00000  Uiso   1.00
C375   C     0.43479   0.74073   0.02362   0.00000  Uiso   1.00
C376   C     0.49898   0.91254   0.16681   0.00000  Uiso   1.00
C377   C     0.56528   0.92593   0.30977   0.00000  Uiso   1.00
C378   C     0.40124   0.83330   0.15454   0.00000  Uiso   1.00
C379   C     0.59876   0.83336   0.17879   0.00000  Uiso   1.00
C380   C     0.34591   0.83330   0.14790   0.00000  Uiso   1.00
C381   C     0.65409   0.83337   0.18543   0.00000  Uiso   1.00
C382   C     0.53329   0.68708   0.13933   0.00000  Uiso   1.00
C383   C     0.46672   0.97959   0.19401   0.00000  Uiso   1.00
C384   C     0.53130   0.97751   0.14011   0.00000  Uiso   1.00
Cu385  Cu    0.50000   0.83334   0.21355   0.00000  Uiso   1.00
Cu386  Cu    0.50000   0.83333   0.11978   0.00000  Uiso   1.00
H387   H     0.65915   0.83324   0.11193   0.00000  Uiso   1.00
H388   H     0.40410   0.93682   0.19845   0.00000  Uiso   1.00
H389   H     0.45013   0.94179   0.25190   0.00000  Uiso   1.00
H390   H     0.40359   0.98136   0.23624   0.00000  Uiso   1.00
H391   H     0.47391   0.73019   0.01798   0.00000  Uiso   1.00
H392   H     0.40722   0.73752   0.32383   0.00000  Uiso   1.00
H393   H     0.42132   0.71985   0.04996   0.00000  Uiso   1.00
H394   H     0.59292   0.92909   0.00951   0.00000  Uiso   1.00
H395   H     0.52619   0.93649   0.31550   0.00000  Uiso   1.00
H396   H     0.57870   0.94683   0.28342   0.00000  Uiso   1.00
H397   H     0.34085   0.83343   0.22140   0.00000  Uiso   1.00
H398   H     0.55588   0.95972   0.12007   0.00000  Uiso   1.00
H399   H     0.44413   0.70695   0.21327   0.00000  Uiso   1.00
H400   H     0.44195   0.78778   0.28095   0.00000  Uiso   1.00
H401   H     0.55805   0.87888   0.05238   0.00000  Uiso   1.00
H402   H     0.59594   0.72983   0.13496   0.00000  Uiso   1.00
H403   H     0.59646   0.68530   0.09715   0.00000  Uiso   1.00
H404   H     0.54995   0.72490   0.08148   0.00000  Uiso   1.00
N405   N     0.50001   0.83334   0.28403   0.00000  Uiso   1.00
N406   N     0.49999   0.83332   0.04931   0.00000  Uiso   1.00
O407   O     0.50000   0.77322   0.20625   0.00000  Uiso   1.00
O408   O     0.56507   0.88506   0.29201   0.00000  Uiso   1.00
O409   O     0.50000   0.89345   0.12709   0.00000  Uiso   1.00
O410   O     0.50000   0.77321   0.12706   0.00000  Uiso   1.00
O411   O     0.50000   0.89346   0.20628   0.00000  Uiso   1.00
O412   O     0.42495   0.83334   0.19712   0.00000  Uiso   1.00
O413   O     0.57505   0.83333   0.13621   0.00000  Uiso   1.00
O414   O     0.42494   0.83333   0.11793   0.00000  Uiso   1.00
O415   O     0.57506   0.83334   0.21540   0.00000  Uiso   1.00
O416   O     0.43491   0.78162   0.04131   0.00000  Uiso   1.00
C417   C     0.83435   0.75412   0.16652   0.00000  Uiso   1.00
C418   C     0.80204   0.68915   0.19323   0.00000  Uiso   1.00
C419   C     0.83204   0.95717   0.16728   0.00000  Uiso   1.00
C420   C     0.83464   0.70950   0.16606   0.00000  Uiso   1.00
C421   C     0.80169   0.80679   0.02066   0.00000  Uiso   1.00
C422   C     0.86498   0.85989   0.31267   0.00000  Uiso   1.00
C423   C     0.80133   0.80756   0.30396   0.00000  Uiso   1.00
C424   C     0.86533   0.85911   0.02938   0.00000  Uiso   1.00
C425   C     0.90432   0.70796   0.11168   0.00000  Uiso   1.00
C426   C     0.76239   0.95871   0.22170   0.00000  Uiso   1.00
C427   C     0.76812   0.74073   0.02362   0.00000  Uiso   1.00
C428   C     0.83232   0.91254   0.16681   0.00000  Uiso   1.00
C429   C     0.89861   0.92593   0.30977   0.00000  Uiso   1.00
C430   C     0.73457   0.83330   0.15454   0.00000  Uiso   1.00
C431   C     0.93210   0.83336   0.17879   0.00000  Uiso   1.00
C432   C     0.67925   0.83330   0.14790   0.00000  Uiso   1.00
C433   C     0.98742   0.83337   0.18543   0.00000  Uiso   1.00
C434   C     0.86663   0.68708   0.13933   0.00000  Uiso   1.00
C435   C     0.80006   0.97959   0.19401   0.00000  Uiso   1.00
C436   C     0.86463   0.97751   0.14011   0.00000  Uiso   1.00
Cu437  Cu    0.83333   0.83334   0.21355   0.00000  Uiso   1.00
Cu438  Cu    0.83333   0.83333   0.11978   0.00000  Uiso   1.00
H439   H     0.99248   0.83324   0.11193   0.00000  Uiso   1.00
H440   H     0.73744   0.93682   0.19845   0.00000  Uiso   1.00
H441   H     0.78347   0.94179   0.25190   0.00000  Uiso   1.00
H442   H     0.73692   0.98136   0.23624   0.00000  Uiso   1.00
H443   H     0.80724   0.73019   0.01798   0.00000  Uiso   1.00
H444   H     0.74055   0.73752   0.32383   0.00000  Uiso   1.00
H445   H     0.75465   0.71985   0.04996   0.00000  Uiso   1.00
H446   H     0.92626   0.92909   0.00951   0.00000  Uiso   1.00
H447   H     0.85953   0.93649   0.31550   0.00000  Uiso   1.00
H448   H     0.91203   0.94683   0.28342   0.00000  Uiso   1.00
H449   H     0.67418   0.83343   0.22140   0.00000  Uiso   1.00
H450   H     0.88921   0.95972   0.12007   0.00000  Uiso   1.00
H451   H     0.77747   0.70695   0.21327   0.00000  Uiso   1.00
H452   H     0.77528   0.78778   0.28095   0.00000  Uiso   1.00
H453   H     0.89138   0.87888   0.05238   0.00000  Uiso   1.00
H454   H     0.92928   0.72983   0.13496   0.00000  Uiso   1.00
H455   H     0.92980   0.68530   0.09715   0.00000  Uiso   1.00
H456   H     0.88328   0.72490   0.08148   0.00000  Uiso   1.00
N457   N     0.83335   0.83334   0.28403   0.00000  Uiso   1.00
N458   N     0.83332   0.83332   0.04931   0.00000  Uiso   1.00
O459   O     0.83333   0.77322   0.20625   0.00000  Uiso   1.00
O460   O     0.89841   0.88506   0.29201   0.00000  Uiso   1.00
O461   O     0.83334   0.89345   0.12709   0.00000  Uiso   1.00
O462   O     0.83333   0.77321   0.12706   0.00000  Uiso   1.00
O463   O     0.83334   0.89346   0.20628   0.00000  Uiso   1.00
O464   O     0.75828   0.83334   0.19712   0.00000  Uiso   1.00
O465   O     0.90839   0.83333   0.13621   0.00000  Uiso   1.00
O466   O     0.75828   0.83333   0.11793   0.00000  Uiso   1.00
O467   O     0.90839   0.83334   0.21540   0.00000  Uiso   1.00
O468   O     0.76825   0.78162   0.04131   0.00000  Uiso   1.00
C469   C     0.16768   0.08746   0.49986   0.00000  Uiso   1.00
C470   C     0.13538   0.02249   0.52656   0.00000  Uiso   1.00
C471   C     0.16537   0.29051   0.50061   0.00000  Uiso   1.00
C472   C     0.16797   0.04283   0.49939   0.00000  Uiso   1.00
C473   C     0.13502   0.14012   0.35400   0.00000  Uiso   1.00
C474   C     0.19831   0.19322   0.64600   0.00000  Uiso   1.00
C475   C     0.13467   0.14089   0.63729   0.00000  Uiso   1.00
C476   C     0.19867   0.19244   0.36271   0.00000  Uiso   1.00
C477   C     0.23766   0.04130   0.44501   0.00000  Uiso   1.00
C478   C     0.09573   0.29204   0.55503   0.00000  Uiso   1.00
C479   C     0.10146   0.07406   0.35695   0.00000  Uiso   1.00
C480   C     0.16565   0.24588   0.50014   0.00000  Uiso   1.00
C481   C     0.23194   0.25926   0.64310   0.00000  Uiso   1.00
C482   C     0.06791   0.16664   0.48788   0.00000  Uiso   1.00
C483   C     0.26543   0.16670   0.51212   0.00000  Uiso   1.00
C484   C     0.01258   0.16663   0.48123   0.00000  Uiso   1.00
C485   C     0.32075   0.16670   0.51877   0.00000  Uiso   1.00
C486   C     0.19996   0.02041   0.47267   0.00000  Uiso   1.00
C487   C     0.13339   0.31292   0.52735   0.00000  Uiso   1.00
C488   C     0.19796   0.31085   0.47345   0.00000  Uiso   1.00
Cu489  Cu    0.16667   0.16667   0.54689   0.00000  Uiso   1.00
Cu490  Cu    0.16667   0.16666   0.45311   0.00000  Uiso   1.00
H491   H     0.32582   0.16657   0.44526   0.00000  Uiso   1.00
H492   H     0.07077   0.27016   0.53178   0.00000  Uiso   1.00
H493   H     0.11680   0.27513   0.58524   0.00000  Uiso   1.00
H494   H     0.07026   0.31470   0.56957   0.00000  Uiso   1.00
H495   H     0.14058   0.06352   0.35131   0.00000  Uiso   1.00
H496   H     0.07388   0.07086   0.65717   0.00000  Uiso   1.00
H497   H     0.08799   0.05319   0.38329   0.00000  Uiso   1.00
H498   H     0.25959   0.26242   0.34285   0.00000  Uiso   1.00
H499   H     0.19286   0.26982   0.64883   0.00000  Uiso   1.00
H500   H     0.24536   0.28016   0.61676   0.00000  Uiso   1.00
H501   H     0.00752   0.16676   0.55474   0.00000  Uiso   1.00
H502   H     0.22254   0.29305   0.45340   0.00000  Uiso   1.00
H503   H     0.11080   0.04029   0.54660   0.00000  Uiso   1.00
H504   H     0.10861   0.12112   0.61429   0.00000  Uiso   1.00
H505   H     0.22472   0.21222   0.38572   0.00000  Uiso   1.00
H506   H     0.26261   0.06316   0.46829   0.00000  Uiso   1.00
H507   H     0.26313   0.01864   0.43049   0.00000  Uiso   1.00
H508   H     0.21662   0.05823   0.41481   0.00000  Uiso   1.00
N509   N     0.16668   0.16668   0.61736   0.00000  Uiso   1.00
N510   N     0.16665   0.16666   0.38264   0.00000  Uiso   1.00
O511   O     0.16666   0.10655   0.53958   0.00000  Uiso   1.00
O512   O     0.23174   0.21840   0.62535   0.00000  Uiso   1.00
O513   O     0.16667   0.22678   0.46042   0.00000  Uiso   1.00
O514   O     0.16666   0.10654   0.46039   0.00000  Uiso   1.00
O515   O     0.16667   0.22679   0.53961   0.00000  Uiso   1.00
O516   O     0.09161   0.16667   0.53046   0.00000  Uiso   1.00
O517   O     0.24172   0.16666   0.46954   0.00000  Uiso   1.00
O518   O     0.09161   0.16666   0.45127   0.00000  Uiso   1.00
O519   O     0.24172   0.16667   0.54873   0.00000  Uiso   1.00
O520   O     0.10158   0.11495   0.37464   0.00000  Uiso   1.00
C521   C     0.50102   0.08746   0.49986   0.00000  Uiso   1.00
C522   C     0.46871   0.02249   0.52656   0.00000  Uiso   1.00
C523   C     0.49870   0.29051   0.50061   0.00000  Uiso   1.00
C524   C     0.50130   0.04283   0.49939   0.00000  Uiso   1.00
C525   C     0.46836   0.14012   0.35400   0.00000  Uiso   1.00
C526   C     0.53164   0.19322   0.64600   0.00000  Uiso   1.00
C527   C     0.46800   0.14089   0.63729   0.00000  Uiso   1.00
C528   C     0.53200   0.19244   0.36271   0.00000  Uiso   1.00
C529   C     0.57099   0.04130   0.44501   0.00000  Uiso   1.00
C530   C     0.42906   0.29204   0.55503   0.00000  Uiso   1.00
C531   C     0.43479   0.07406   0.35695   0.00000  Uiso   1.00
C532   C     0.49898   0.24588   0.50014   0.00000  Uiso   1.00
C533   C     0.56528   0.25926   0.64310   0.00000  Uiso   1.00
C534   C     0.40124   0.16664   0.48788   0.00000  Uiso   1.00
C535   C     0.59876   0.16670   0.51212   0.00000  Uiso   1.00
C536   C     0.34591   0.16663   0.48123   0.00000  Uiso   1.00
C537   C     0.65409   0.16670   0.51877   0.00000  Uiso   1.00
C538   C     0.53329   0.02041   0.47267   0.00000  Uiso   1.00
C539   C     0.46672   0.31292   0.52735   0.00000  Uiso   1.00
C540   C     0.53130   0.31085   0.47345   0.00000  Uiso   1.00
Cu541  Cu    0.50000   0.16667   0.54689   0.00000  Uiso   1.00
Cu542  Cu    0.50000   0.16666   0.45311   0.00000  Uiso   1.00
H543   H     0.65915   0.16657   0.44526   0.00000  Uiso   1.00
H544   H     0.40410   0.27016   0.53178   0.00000  Uiso   1.00
H545   H     0.45013   0.27513   0.58524   0.00000  Uiso   1.00
H546   H     0.40359   0.31470   0.56957   0.00000  Uiso   1.00
H547   H     0.47391   0.06352   0.35131   0.00000  Uiso   1.00
H548   H     0.40722   0.07086   0.65717   0.00000  Uiso   1.00
H549   H     0.42132   0.05319   0.38329   0.00000  Uiso   1.00
H550   H     0.59292   0.26242   0.34285   0.00000  Uiso   1.00
H551   H     0.52619   0.26982   0.64883   0.00000  Uiso   1.00
H552   H     0.57870   0.28016   0.61676   0.00000  Uiso   1.00
H553   H     0.34085   0.16676   0.55474   0.00000  Uiso   1.00
H554   H     0.55588   0.29305   0.45340   0.00000  Uiso   1.00
H555   H     0.44413   0.04029   0.54660   0.00000  Uiso   1.00
H556   H     0.44195   0.12112   0.61429   0.00000  Uiso   1.00
H557   H     0.55805   0.21222   0.38572   0.00000  Uiso   1.00
H558   H     0.59594   0.06316   0.46829   0.00000  Uiso   1.00
H559   H     0.59646   0.01864   0.43049   0.00000  Uiso   1.00
H560   H     0.54995   0.05823   0.41481   0.00000  Uiso   1.00
N561   N     0.50001   0.16668   0.61736   0.00000  Uiso   1.00
N562   N     0.49999   0.16666   0.38264   0.00000  Uiso   1.00
O563   O     0.50000   0.10655   0.53958   0.00000  Uiso   1.00
O564   O     0.56507   0.21840   0.62535   0.00000  Uiso   1.00
O565   O     0.50000   0.22678   0.46042   0.00000  Uiso   1.00
O566   O     0.50000   0.10654   0.46039   0.00000  Uiso   1.00
O567   O     0.50000   0.22679   0.53961   0.00000  Uiso   1.00
O568   O     0.42495   0.16667   0.53046   0.00000  Uiso   1.00
O569   O     0.57505   0.16666   0.46954   0.00000  Uiso   1.00
O570   O     0.42494   0.16666   0.45127   0.00000  Uiso   1.00
O571   O     0.57506   0.16667   0.54873   0.00000  Uiso   1.00
O572   O     0.43491   0.11495   0.37464   0.00000  Uiso   1.00
C573   C     0.83435   0.08746   0.49986   0.00000  Uiso   1.00
C574   C     0.80204   0.02249   0.52656   0.00000  Uiso   1.00
C575   C     0.83204   0.29051   0.50061   0.00000  Uiso   1.00
C576   C     0.83464   0.04283   0.49939   0.00000  Uiso   1.00
C577   C     0.80169   0.14012   0.35400   0.00000  Uiso   1.00
C578   C     0.86498   0.19322   0.64600   0.00000  Uiso   1.00
C579   C     0.80133   0.14089   0.63729   0.00000  Uiso   1.00
C580   C     0.86533   0.19244   0.36271   0.00000  Uiso   1.00
C581   C     0.90432   0.04130   0.44501   0.00000  Uiso   1.00
C582   C     0.76239   0.29204   0.55503   0.00000  Uiso   1.00
C583   C     0.76812   0.07406   0.35695   0.00000  Uiso   1.00
C584   C     0.83232   0.24588   0.50014   0.00000  Uiso   1.00
C585   C     0.89861   0.25926   0.64310   0.00000  Uiso   1.00
C586   C     0.73457   0.16664   0.48788   0.00000  Uiso   1.00
C587   C     0.93210   0.16670   0.51212   0.00000  Uiso   1.00
C588   C     0.67925   0.16663   0.48123   0.00000  Uiso   1.00
C589   C     0.98742   0.16670   0.51877   0.00000  Uiso   1.00
C590   C     0.86663   0.02041   0.47267   0.00000  Uiso   1.00
C591   C     0.80006   0.31292   0.52735   0.00000  Uiso   1.00
C592   C     0.86463   0.31085   0.47345   0.00000  Uiso   1.00
Cu593  Cu    0.83333   0.16667   0.54689   0.00000  Uiso   1.00
Cu594  Cu    0.83333   0.16666   0.45311   0.00000  Uiso   1.00
H595   H     0.99248   0.16657   0.44526   0.00000  Uiso   1.00
H596   H     0.73744   0.27016   0.53178   0.00000  Uiso   1.00
H597   H     0.78347   0.27513   0.58524   0.00000  Uiso   1.00
H598   H     0.73692   0.31470   0.56957   0.00000  Uiso   1.00
H599   H     0.80724   0.06352   0.35131   0.00000  Uiso   1.00
H600   H     0.74055   0.07086   0.65717   0.00000  Uiso   1.00
H601   H     0.75465   0.05319   0.38329   0.00000  Uiso   1.00
H602   H     0.92626   0.26242   0.34285   0.00000  Uiso   1.00
H603   H     0.85953   0.26982   0.64883   0.00000  Uiso   1.00
H604   H     0.91203   0.28016   0.61676   0.00000  Uiso   1.00
H605   H     0.67418   0.16676   0.55474   0.00000  Uiso   1.00
H606   H     0.88921   0.29305   0.45340   0.00000  Uiso   1.00
H607   H     0.77747   0.04029   0.54660   0.00000  Uiso   1.00
H608   H     0.77528   0.12112   0.61429   0.00000  Uiso   1.00
H609   H     0.89138   0.21222   0.38572   0.00000  Uiso   1.00
H610   H     0.92928   0.06316   0.46829   0.00000  Uiso   1.00
H611   H     0.92980   0.01864   0.43049   0.00000  Uiso   1.00
H612   H     0.88328   0.05823   0.41481   0.00000  Uiso   1.00
N613   N     0.83335   0.16668   0.61736   0.00000  Uiso   1.00
N614   N     0.83332   0.16666   0.38264   0.00000  Uiso   1.00
O615   O     0.83333   0.10655   0.53958   0.00000  Uiso   1.00
O616   O     0.89841   0.21840   0.62535   0.00000  Uiso   1.00
O617   O     0.83334   0.22678   0.46042   0.00000  Uiso   1.00
O618   O     0.83333   0.10654   0.46039   0.00000  Uiso   1.00
O619   O     0.83334   0.22679   0.53961   0.00000  Uiso   1.00
O620   O     0.75828   0.16667   0.53046   0.00000  Uiso   1.00
O621   O     0.90839   0.16666   0.46954   0.00000  Uiso   1.00
O622   O     0.75828   0.16666   0.45127   0.00000  Uiso   1.00
O623   O     0.90839   0.16667   0.54873   0.00000  Uiso   1.00
O624   O     0.76825   0.11495   0.37464   0.00000  Uiso   1.00
C625   C     0.16768   0.42079   0.49986   0.00000  Uiso   1.00
C626   C     0.13538   0.35582   0.52656   0.00000  Uiso   1.00
C627   C     0.16537   0.62384   0.50061   0.00000  Uiso   1.00
C628   C     0.16797   0.37616   0.49939   0.00000  Uiso   1.00
C629   C     0.13502   0.47345   0.35400   0.00000  Uiso   1.00
C630   C     0.19831   0.52655   0.64600   0.00000  Uiso   1.00
C631   C     0.13467   0.47423   0.63729   0.00000  Uiso   1.00
C632   C     0.19867   0.52578   0.36271   0.00000  Uiso   1.00
C633   C     0.23766   0.37463   0.44501   0.00000  Uiso   1.00
C634   C     0.09573   0.62537   0.55503   0.00000  Uiso   1.00
C635   C     0.10146   0.40740   0.35695   0.00000  Uiso   1.00
C636   C     0.16565   0.57921   0.50014   0.00000  Uiso   1.00
C637   C     0.23194   0.59260   0.64310   0.00000  Uiso   1.00
C638   C     0.06791   0.49997   0.48788   0.00000  Uiso   1.00
C639   C     0.26543   0.50003   0.51212   0.00000  Uiso   1.00
C640   C     0.01258   0.49996   0.48123   0.00000  Uiso   1.00
C641   C     0.32075   0.50004   0.51877   0.00000  Uiso   1.00
C642   C     0.19996   0.35375   0.47267   0.00000  Uiso   1.00
C643   C     0.13339   0.64626   0.52735   0.00000  Uiso   1.00
C644   C     0.19796   0.64418   0.47345   0.00000  Uiso   1.00
Cu645  Cu    0.16667   0.50001   0.54689   0.00000  Uiso   1.00
Cu646  Cu    0.16667   0.49999   0.45311   0.00000  Uiso   1.00
H647   H     0.32582   0.49990   0.44526   0.00000  Uiso   1.00
H648   H     0.07077   0.60349   0.53178   0.00000  Uiso   1.00
H649   H     0.11680   0.60846   0.58524   0.00000  Uiso   1.00
H650   H     0.07026   0.64803   0.56957   0.00000  Uiso   1.00
H651   H     0.14058   0.39686   0.35131   0.00000  Uiso   1.00
H652   H     0.07388   0.40419   0.65717   0.00000  Uiso   1.00
H653   H     0.08799   0.38652   0.38329   0.00000  Uiso   1.00
H654   H     0.25959   0.59575   0.34285   0.00000  Uiso   1.00
H655   H     0.19286   0.60315   0.64883   0.00000  Uiso   1.00
H656   H     0.24536   0.61349   0.61676   0.00000  Uiso   1.00
H657   H     0.00752   0.50010   0.55474   0.00000  Uiso   1.00
H658   H     0.22254   0.62638   0.45340   0.00000  Uiso   1.00
H659   H     0.11080   0.37362   0.54660   0.00000  Uiso   1.00
H660   H     0.10861   0.45445   0.61429   0.00000  Uiso   1.00
H661   H     0.22472   0.54555   0.38572   0.00000  Uiso   1.00
H662   H     0.26261   0.39650   0.46829   0.00000  Uiso   1.00
H663   H     0.26313   0.35197   0.43049   0.00000  Uiso   1.00
H664   H     0.21662   0.39156   0.41481   0.00000  Uiso   1.00
N665   N     0.16668   0.50001   0.61736   0.00000  Uiso   1.00
N666   N     0.16665   0.49999   0.38264   0.00000  Uiso   1.00
O667   O     0.16666   0.43989   0.53958   0.00000  Uiso   1.00
O668   O     0.23174   0.55173   0.62535   0.00000  Uiso   1.00
O669   O     0.16667   0.56011   0.46042   0.00000  Uiso   1.00
O670   O     0.16666   0.43988   0.46039   0.00000  Uiso   1.00
O671   O     0.16667   0.56012   0.53961   0.00000  Uiso   1.00
O672   O     0.09161   0.50000   0.53046   0.00000  Uiso   1.00
O673   O     0.24172   0.50000   0.46954   0.00000  Uiso   1.00
O674   O     0.09161   0.49999   0.45127   0.00000  Uiso   1.00
O675   O     0.24172   0.50001   0.54873   0.00000  Uiso   1.00
O676   O     0.10158   0.44828   0.37464   0.00000  Uiso   1.00
C677   C     0.50102   0.42079   0.49986   0.00000  Uiso   1.00
C678   C     0.46871   0.35582   0.52656   0.00000  Uiso   1.00
C679   C     0.49870   0.62384   0.50061   0.00000  Uiso   1.00
C680   C     0.50130   0.37616   0.49939   0.00000  Uiso   1.00
C681   C     0.46836   0.47345   0.35400   0.00000  Uiso   1.00
C682   C     0.53164   0.52655   0.64600   0.00000  Uiso   1.00
C683   C     0.46800   0.47423   0.63729   0.00000  Uiso   1.00
C684   C     0.53200   0.52578   0.36271   0.00000  Uiso   1.00
C685   C     0.57099   0.37463   0.44501   0.00000  Uiso   1.00
C686   C     0.42906   0.62537   0.55503   0.00000  Uiso   1.00
C687   C     0.43479   0.40740   0.35695   0.00000  Uiso   1.00
C688   C     0.49898   0.57921   0.50014   0.00000  Uiso   1.00
C689   C     0.56528   0.59260   0.64310   0.00000  Uiso   1.00
C690   C     0.40124   0.49997   0.48788   0.00000  Uiso   1.00
C691   C     0.59876   0.50003   0.51212   0.00000  Uiso   1.00
C692   C     0.34591   0.49996   0.48123   0.00000  Uiso   1.00
C693   C     0.65409   0.50004   0.51877   0.00000  Uiso   1.00
C694   C     0.53329   0.35375   0.47267   0.00000  Uiso   1.00
C695   C     0.46672   0.64626   0.52735   0.00000  Uiso   1.00
C696   C     0.53130   0.64418   0.47345   0.00000  Uiso   1.00
Cu697  Cu    0.50000   0.50001   0.54689   0.00000  Uiso   1.00
Cu698  Cu    0.50000   0.49999   0.45311   0.00000  Uiso   1.00
H699   H     0.65915   0.49990   0.44526   0.00000  Uiso   1.00
H700   H     0.40410   0.60349   0.53178   0.00000  Uiso   1.00
H701   H     0.45013   0.60846   0.58524   0.00000  Uiso   1.00
H702   H     0.40359   0.64803   0.56957   0.00000  Uiso   1.00
H703   H     0.47391   0.39686   0.35131   0.00000  Uiso   1.00
H704   H     0.40722   0.40419   0.65717   0.00000  Uiso   1.00
H705   H     0.42132   0.38652   0.38329   0.00000  Uiso   1.00
H706   H     0.59292   0.59575   0.34285   0.00000  Uiso   1.00
H707   H     0.52619   0.60315   0.64883   0.00000  Uiso   1.00
H708   H     0.57870   0.61349   0.61676   0.00000  Uiso   1.00
H709   H     0.34085   0.50010   0.55474   0.00000  Uiso   1.00
H710   H     0.55588   0.62638   0.45340   0.00000  Uiso   1.00
H711   H     0.44413   0.37362   0.54660   0.00000  Uiso   1.00
H712   H     0.44195   0.45445   0.61429   0.00000  Uiso   1.00
H713   H     0.55805   0.54555   0.38572   0.00000  Uiso   1.00
H714   H     0.59594   0.39650   0.46829   0.00000  Uiso   1.00
H715   H     0.59646   0.35197   0.43049   0.00000  Uiso   1.00
H716   H     0.54995   0.39156   0.41481   0.00000  Uiso   1.00
N717   N     0.50001   0.50001   0.61736   0.00000  Uiso   1.00
N718   N     0.49999   0.49999   0.38264   0.00000  Uiso   1.00
O719   O     0.50000   0.43989   0.53958   0.00000  Uiso   1.00
O720   O     0.56507   0.55173   0.62535   0.00000  Uiso   1.00
O721   O     0.50000   0.56011   0.46042   0.00000  Uiso   1.00
O722   O     0.50000   0.43988   0.46039   0.00000  Uiso   1.00
O723   O     0.50000   0.56012   0.53961   0.00000  Uiso   1.00
O724   O     0.42495   0.50000   0.53046   0.00000  Uiso   1.00
O725   O     0.57505   0.50000   0.46954   0.00000  Uiso   1.00
O726   O     0.42494   0.49999   0.45127   0.00000  Uiso   1.00
O727   O     0.57506   0.50001   0.54873   0.00000  Uiso   1.00
O728   O     0.43491   0.44828   0.37464   0.00000  Uiso   1.00
C729   C     0.83435   0.42079   0.49986   0.00000  Uiso   1.00
C730   C     0.80204   0.35582   0.52656   0.00000  Uiso   1.00
C731   C     0.83204   0.62384   0.50061   0.00000  Uiso   1.00
C732   C     0.83464   0.37616   0.49939   0.00000  Uiso   1.00
C733   C     0.80169   0.47345   0.35400   0.00000  Uiso   1.00
C734   C     0.86498   0.52655   0.64600   0.00000  Uiso   1.00
C735   C     0.80133   0.47423   0.63729   0.00000  Uiso   1.00
C736   C     0.86533   0.52578   0.36271   0.00000  Uiso   1.00
C737   C     0.90432   0.37463   0.44501   0.00000  Uiso   1.00
C738   C     0.76239   0.62537   0.55503   0.00000  Uiso   1.00
C739   C     0.76812   0.40740   0.35695   0.00000  Uiso   1.00
C740   C     0.83232   0.57921   0.50014   0.00000  Uiso   1.00
C741   C     0.89861   0.59260   0.64310   0.00000  Uiso   1.00
C742   C     0.73457   0.49997   0.48788   0.00000  Uiso   1.00
C743   C     0.93210   0.50003   0.51212   0.00000  Uiso   1.00
C744   C     0.67925   0.49996   0.48123   0.00000  Uiso   1.00
C745   C     0.98742   0.50004   0.51877   0.00000  Uiso   1.00
C746   C     0.86663   0.35375   0.47267   0.00000  Uiso   1.00
C747   C     0.80006   0.64626   0.52735   0.00000  Uiso   1.00
C748   C     0.86463   0.64418   0.47345   0.00000  Uiso   1.00
Cu749  Cu    0.83333   0.50001   0.54689   0.00000  Uiso   1.00
Cu750  Cu    0.83333   0.49999   0.45311   0.00000  Uiso   1.00
H751   H     0.99248   0.49990   0.44526   0.00000  Uiso   1.00
H752   H     0.73744   0.60349   0.53178   0.00000  Uiso   1.00
H753   H     0.78347   0.60846   0.58524   0.00000  Uiso   1.00
H754   H     0.73692   0.64803   0.56957   0.00000  Uiso   1.00
H755   H     0.80724   0.39686   0.35131   0.00000  Uiso   1.00
H756   H     0.74055   0.40419   0.65717   0.00000  Uiso   1.00
H757   H     0.75465   0.38652   0.38329   0.00000  Uiso   1.00
H758   H     0.92626   0.59575   0.34285   0.00000  Uiso   1.00
H759   H     0.85953   0.60315   0.64883   0.00000  Uiso   1.00
H760   H     0.91203   0.61349   0.61676   0.00000  Uiso   1.00
H761   H     0.67418   0.50010   0.55474   0.00000  Uiso   1.00
H762   H     0.88921   0.62638   0.45340   0.00000  Uiso   1.00
H763   H     0.77747   0.37362   0.54660   0.00000  Uiso   1.00
H764   H     0.77528   0.45445   0.61429   0.00000  Uiso   1.00
H765   H     0.89138   0.54555   0.38572   0.00000  Uiso   1.00
H766   H     0.92928   0.39650   0.46829   0.00000  Uiso   1.00
H767   H     0.92980   0.35197   0.43049   0.00000  Uiso   1.00
H768   H     0.88328   0.39156   0.41481   0.00000  Uiso   1.00
N769   N     0.83335   0.50001   0.61736   0.00000  Uiso   1.00
N770   N     0.83332   0.49999   0.38264   0.00000  Uiso   1.00
O771   O     0.83333   0.43989   0.53958   0.00000  Uiso   1.00
O772   O     0.89841   0.55173   0.62535   0.00000  Uiso   1.00
O773   O     0.83334   0.56011   0.46042   0.00000  Uiso   1.00
O774   O     0.83333   0.43988   0.46039   0.00000  Uiso   1.00
O775   O     0.83334   0.56012   0.53961   0.00000  Uiso   1.00
O776   O     0.75828   0.50000   0.53046   0.00000  Uiso   1.00
O777   O     0.90839   0.50000   0.46954   0.00000  Uiso   1.00
O778   O     0.75828   0.49999   0.45127   0.00000  Uiso   1.00
O779   O     0.90839   0.50001   0.54873   0.00000  Uiso   1.00
O780   O     0.76825   0.44828   0.37464   0.00000  Uiso   1.00
C781   C     0.16768   0.75412   0.49986   0.00000  Uiso   1.00
C782   C     0.13538   0.68915   0.52656   0.00000  Uiso   1.00
C783   C     0.16537   0.95717   0.50061   0.00000  Uiso   1.00
C784   C     0.16797   0.70950   0.49939   0.00000  Uiso   1.00
C785   C     0.13502   0.80679   0.35400   0.00000  Uiso   1.00
C786   C     0.19831   0.85989   0.64600   0.00000  Uiso   1.00
C787   C     0.13467   0.80756   0.63729   0.00000  Uiso   1.00
C788   C     0.19867   0.85911   0.36271   0.00000  Uiso   1.00
C789   C     0.23766   0.70796   0.44501   0.00000  Uiso   1.00
C790   C     0.09573   0.95871   0.55503   0.00000  Uiso   1.00
C791   C     0.10146   0.74073   0.35695   0.00000  Uiso   1.00
C792   C     0.16565   0.91254   0.50014   0.00000  Uiso   1.00
C793   C     0.23194   0.92593   0.64310   0.00000  Uiso   1.00
C794   C     0.06791   0.83330   0.48788   0.00000  Uiso   1.00
C795   C     0.26543   0.83336   0.51212   0.00000  Uiso   1.00
C796   C     0.01258   0.83330   0.48123   0.00000  Uiso   1.00
C797   C     0.32075   0.83337   0.51877   0.00000  Uiso   1.00
C798   C     0.19996   0.68708   0.47267   0.00000  Uiso   1.00
C799   C     0.13339   0.97959   0.52735   0.00000  Uiso   1.00
C800   C     0.19796   0.97751   0.47345   0.00000  Uiso   1.00
Cu801  Cu    0.16667   0.83334   0.54689   0.00000  Uiso   1.00
Cu802  Cu    0.16667   0.83333   0.45311   0.00000  Uiso   1.00
H803   H     0.32582   0.83324   0.44526   0.00000  Uiso   1.00
H804   H     0.07077   0.93682   0.53178   0.00000  Uiso   1.00
H805   H     0.11680   0.94179   0.58524   0.00000  Uiso   1.00
H806   H     0.07026   0.98136   0.56957   0.00000  Uiso   1.00
H807   H     0.14058   0.73019   0.35131   0.00000  Uiso   1.00
H808   H     0.07388   0.73752   0.65717   0.00000  Uiso   1.00
H809   H     0.08799   0.71985   0.38329   0.00000  Uiso   1.00
H810   H     0.25959   0.92909   0.34285   0.00000  Uiso   1.00
H811   H     0.19286   0.93649   0.64883   0.00000  Uiso   1.00
H812   H     0.24536   0.94683   0.61676   0.00000  Uiso   1.00
H813   H     0.00752   0.83343   0.55474   0.00000  Uiso   1.00
H814   H     0.22254   0.95972   0.45340   0.00000  Uiso   1.00
H815   H     0.11080   0.70695   0.54660   0.00000  Uiso   1.00
H816   H     0.10861   0.78778   0.61429   0.00000  Uiso   1.00
H817   H     0.22472   0.87888   0.38572   0.00000  Uiso   1.00
H818   H     0.26261   0.72983   0.46829   0.00000  Uiso   1.00
H819   H     0.26313   0.68530   0.43049   0.00000  Uiso   1.00
H820   H     0.21662   0.72490   0.41481   0.00000  Uiso   1.00
N821   N     0.16668   0.83334   0.61736   0.00000  Uiso   1.00
N822   N     0.16665   0.83332   0.38264   0.00000  Uiso   1.00
O823   O     0.16666   0.77322   0.53958   0.00000  Uiso   1.00
O824   O     0.23174   0.88506   0.62535   0.00000  Uiso   1.00
O825   O     0.16667   0.89345   0.46042   0.00000  Uiso   1.00
O826   O     0.16666   0.77321   0.46039   0.00000  Uiso   1.00
O827   O     0.16667   0.89346   0.53961   0.00000  Uiso   1.00
O828   O     0.09161   0.83334   0.53046   0.00000  Uiso   1.00
O829   O     0.24172   0.83333   0.46954   0.00000  Uiso   1.00
O830   O     0.09161   0.83333   0.45127   0.00000  Uiso   1.00
O831   O     0.24172   0.83334   0.54873   0.00000  Uiso   1.00
O832   O     0.10158   0.78162   0.37464   0.00000  Uiso   1.00
C833   C     0.50102   0.75412   0.49986   0.00000  Uiso   1.00
C834   C     0.46871   0.68915   0.52656   0.00000  Uiso   1.00
C835   C     0.49870   0.95717   0.50061   0.00000  Uiso   1.00
C836   C     0.50130   0.70950   0.49939   0.00000  Uiso   1.00
C837   C     0.46836   0.80679   0.35400   0.00000  Uiso   1.00
C838   C     0.53164   0.85989   0.64600   0.00000  Uiso   1.00
C839   C     0.46800   0.80756   0.63729   0.00000  Uiso   1.00
C840   C     0.53200   0.85911   0.36271   0.00000  Uiso   1.00
C841   C     0.57099   0.70796   0.44501   0.00000  Uiso   1.00
C842   C     0.42906   0.95871   0.55503   0.00000  Uiso   1.00
C843   C     0.43479   0.74073   0.35695   0.00000  Uiso   1.00
C844   C     0.49898   0.91254   0.50014   0.00000  Uiso   1.00
C845   C     0.56528   0.92593   0.64310   0.00000  Uiso   1.00
C846   C     0.40124   0.83330   0.48788   0.00000  Uiso   1.00
C847   C     0.59876   0.83336   0.51212   0.00000  Uiso   1.00
C848   C     0.34591   0.83330   0.48123   0.00000  Uiso   1.00
C849   C     0.65409   0.83337   0.51877   0.00000  Uiso   1.00
C850   C     0.53329   0.68708   0.47267   0.00000  Uiso   1.00
C851   C     0.46672   0.97959   0.52735   0.00000  Uiso   1.00
C852   C     0.53130   0.97751   0.47345   0.00000  Uiso   1.00
Cu853  Cu    0.50000   0.83334   0.54689   0.00000  Uiso   1.00
Cu854  Cu    0.50000   0.83333   0.45311   0.00000  Uiso   1.00
H855   H     0.65915   0.83324   0.44526   0.00000  Uiso   1.00
H856   H     0.40410   0.93682   0.53178   0.00000  Uiso   1.00
H857   H     0.45013   0.94179   0.58524   0.00000  Uiso   1.00
H858   H     0.40359   0.98136   0.56957   0.00000  Uiso   1.00
H859   H     0.47391   0.73019   0.35131   0.00000  Uiso   1.00
H860   H     0.40722   0.73752   0.65717   0.00000  Uiso   1.00
H861   H     0.42132   0.71985   0.38329   0.00000  Uiso   1.00
H862   H     0.59292   0.92909   0.34285   0.00000  Uiso   1.00
H863   H     0.52619   0.93649   0.64883   0.00000  Uiso   1.00
H864   H     0.57870   0.94683   0.61676   0.00000  Uiso   1.00
H865   H     0.34085   0.83343   0.55474   0.00000  Uiso   1.00
H866   H     0.55588   0.95972   0.45340   0.00000  Uiso   1.00
H867   H     0.44413   0.70695   0.54660   0.00000  Uiso   1.00
H868   H     0.44195   0.78778   0.61429   0.00000  Uiso   1.00
H869   H     0.55805   0.87888   0.38572   0.00000  Uiso   1.00
H870   H     0.59594   0.72983   0.46829   0.00000  Uiso   1.00
H871   H     0.59646   0.68530   0.43049   0.00000  Uiso   1.00
H872   H     0.54995   0.72490   0.41481   0.00000  Uiso   1.00
N873   N     0.50001   0.83334   0.61736   0.00000  Uiso   1.00
N874   N     0.49999   0.83332   0.38264   0.00000  Uiso   1.00
O875   O     0.50000   0.77322   0.53958   0.00000  Uiso   1.00
O876   O     0.56507   0.88506   0.62535   0.00000  Uiso   1.00
O877   O     0.50000   0.89345   0.46042   0.00000  Uiso   1.00
O878   O     0.50000   0.77321   0.46039   0.00000  Uiso   1.00
O879   O     0.50000   0.89346   0.53961   0.00000  Uiso   1.00
O880   O     0.42495   0.83334   0.53046   0.00000  Uiso   1.00
O881   O     0.57505   0.83333   0.46954   0.00000  Uiso   1.00
O882   O     0.42494   0.83333   0.45127   0.00000  Uiso   1.00
O883   O     0.57506   0.83334   0.54873   0.00000  Uiso   1.00
O884   O     0.43491   0.78162   0.37464   0.00000  Uiso   1.00
C885   C     0.83435   0.75412   0.49986   0.00000  Uiso   1.00
C886   C     0.80204   0.68915   0.52656   0.00000  Uiso   1.00
C887   C     0.83204   0.95717   0.50061   0.00000  Uiso   1.00
C888   C     0.83464   0.70950   0.49939   0.00000  Uiso   1.00
C889   C     0.80169   0.80679   0.35400   0.00000  Uiso   1.00
C890   C     0.86498   0.85989   0.64600   0.00000  Uiso   1.00
C891   C     0.80133   0.80756   0.63729   0.00000  Uiso   1.00
C892   C     0.86533   0.85911   0.36271   0.00000  Uiso   1.00
C893   C     0.90432   0.70796   0.44501   0.00000  Uiso   1.00
C894   C     0.76239   0.95871   0.55503   0.00000  Uiso   1.00
C895   C     0.76812   0.74073   0.35695   0.00000  Uiso   1.00
C896   C     0.83232   0.91254   0.50014   0.00000  Uiso   1.00
C897   C     0.89861   0.92593   0.64310   0.00000  Uiso   1.00
C898   C     0.73457   0.83330   0.48788   0.00000  Uiso   1.00
C899   C     0.93210   0.83336   0.51212   0.00000  Uiso   1.00
C900   C     0.67925   0.83330   0.48123   0.00000  Uiso   1.00
C901   C     0.98742   0.83337   0.51877   0.00000  Uiso   1.00
C902   C     0.86663   0.68708   0.47267   0.00000  Uiso   1.00
C903   C     0.80006   0.97959   0.52735   0.00000  Uiso   1.00
C904   C     0.86463   0.97751   0.47345   0.00000  Uiso   1.00
Cu905  Cu    0.83333   0.83334   0.54689   0.00000  Uiso   1.00
Cu906  Cu    0.83333   0.83333   0.45311   0.00000  Uiso   1.00
H907   H     0.99248   0.83324   0.44526   0.00000  Uiso   1.00
H908   H     0.73744   0.93682   0.53178   0.00000  Uiso   1.00
H909   H     0.78347   0.94179   0.58524   0.00000  Uiso   1.00
H910   H     0.73692   0.98136   0.56957   0.00000  Uiso   1.00
H911   H     0.80724   0.73019   0.35131   0.00000  Uiso   1.00
H912   H     0.74055   0.73752   0.65717   0.00000  Uiso   1.00
H913   H     0.75465   0.71985   0.38329   0.00000  Uiso   1.00
H914   H     0.92626   0.92909   0.34285   0.00000  Uiso   1.00
H915   H     0.85953   0.93649   0.64883   0.00000  Uiso   1.00
H916   H     0.91203   0.94683   0.61676   0.00000  Uiso   1.00
H917   H     0.67418   0.83343   0.55474   0.00000  Uiso   1.00
H918   H     0.88921   0.95972   0.45340   0.00000  Uiso   1.00
H919   H     0.77747   0.70695   0.54660   0.00000  Uiso   1.00
H920   H     0.77528   0.78778   0.61429   0.00000  Uiso   1.00
H921   H     0.89138   0.87888   0.38572   0.00000  Uiso   1.00
H922   H     0.92928   0.72983   0.46829   0.00000  Uiso   1.00
H923   H     0.92980   0.68530   0.43049   0.00000  Uiso   1.00
H924   H     0.88328   0.72490   0.41481   0.00000  Uiso   1.00
N925   N     0.83335   0.83334   0.61736   0.00000  Uiso   1.00
N926   N     0.83332   0.83332   0.38264   0.00000  Uiso   1.00
O927   O     0.83333   0.77322   0.53958   0.00000  Uiso   1.00
O928   O     0.89841   0.88506   0.62535   0.00000  Uiso   1.00
O929   O     0.83334   0.89345   0.46042   0.00000  Uiso   1.00
O930   O     0.83333   0.77321   0.46039   0.00000  Uiso   1.00
O931   O     0.83334   0.89346   0.53961   0.00000  Uiso   1.00
O932   O     0.75828   0.83334   0.53046   0.00000  Uiso   1.00
O933   O     0.90839   0.83333   0.46954   0.00000  Uiso   1.00
O934   O     0.75828   0.83333   0.45127   0.00000  Uiso   1.00
O935   O     0.90839   0.83334   0.54873   0.00000  Uiso   1.00
O936   O     0.76825   0.78162   0.37464   0.00000  Uiso   1.00
C937   C     0.16768   0.08746   0.83319   0.00000  Uiso   1.00
C938   C     0.13538   0.02249   0.85989   0.00000  Uiso   1.00
C939   C     0.16537   0.29051   0.83394   0.00000  Uiso   1.00
C940   C     0.16797   0.04283   0.83273   0.00000  Uiso   1.00
C941   C     0.13502   0.14012   0.68733   0.00000  Uiso   1.00
C942   C     0.19831   0.19322   0.97934   0.00000  Uiso   1.00
C943   C     0.13467   0.14089   0.97062   0.00000  Uiso   1.00
C944   C     0.19867   0.19244   0.69604   0.00000  Uiso   1.00
C945   C     0.23766   0.04130   0.77835   0.00000  Uiso   1.00
C946   C     0.09573   0.29204   0.88837   0.00000  Uiso   1.00
C947   C     0.10146   0.07406   0.69028   0.00000  Uiso   1.00
C948   C     0.16565   0.24588   0.83348   0.00000  Uiso   1.00
C949   C     0.23194   0.25926   0.97644   0.00000  Uiso   1.00
C950   C     0.06791   0.16664   0.82121   0.00000  Uiso   1.00
C951   C     0.26543   0.16670   0.84546   0.00000  Uiso   1.00
C952   C     0.01258   0.16663   0.81456   0.00000  Uiso   1.00
C953   C     0.32075   0.16670   0.85210   0.00000  Uiso   1.00
C954   C     0.19996   0.02041   0.80600   0.00000  Uiso   1.00
C955   C     0.13339   0.31292   0.86068   0.00000  Uiso   1.00
C956   C     0.19796   0.31085   0.80678   0.00000  Uiso   1.00
Cu957  Cu    0.16667   0.16667   0.88022   0.00000  Uiso   1.00
Cu958  Cu    0.16667   0.16666   0.78645   0.00000  Uiso   1.00
H959   H     0.32582   0.16657   0.77859   0.00000  Uiso   1.00
H960   H     0.07077   0.27016   0.86512   0.00000  Uiso   1.00
H961   H     0.11680   0.27513   0.91857   0.00000  Uiso   1.00
H962   H     0.07026   0.31470   0.90290   0.00000  Uiso   1.00
H963   H     0.14058   0.06352   0.68465   0.00000  Uiso   1.00
H964   H     0.07388   0.07086   0.99050   0.00000  Uiso   1.00
H965   H     0.08799   0.05319   0.71663   0.00000  Uiso   1.00
H966   H     0.25959   0.26242   0.67618   0.00000  Uiso   1.00
H967   H     0.19286   0.26982   0.98217   0.00000  Uiso   1.00
H968   H     0.24536   0.28016   0.95009   0.00000  Uiso   1.00
H969   H     0.00752   0.16676   0.88807   0.00000  Uiso   1.00
H970   H     0.22254   0.29305   0.78674   0.00000  Uiso   1.00
H971   H     0.11080   0.04029   0.87994   0.00000  Uiso   1.00
H972   H     0.10861   0.12112   0.94762   0.00000  Uiso   1.00
H973   H     0.22472   0.21222   0.71905   0.00000  Uiso   1.00
H974   H     0.26261   0.06316   0.80163   0.00000  Uiso   1.00
H975   H     0.26313   0.01864   0.76382   0.00000  Uiso   1.00
H976   H     0.21662   0.05823   0.74814   0.00000  Uiso   1.00
N977   N     0.16668   0.16668   0.95069   0.00000  Uiso   1.00
N978   N     0.16665   0.16666   0.71597   0.00000  Uiso   1.00
O979   O     0.16666   0.10655   0.87291   0.00000  Uiso   1.00
O980   O     0.23174   0.21840   0.95868   0.00000  Uiso   1.00
O981   O     0.16667   0.22678   0.79375   0.00000  Uiso   1.00
O982   O     0.16666   0.10654   0.79372   0.00000  Uiso   1.00
O983   O     0.16667   0.22679   0.87294   0.00000  Uiso   1.00
O984   O     0.09161   0.16667   0.86379   0.00000  Uiso   1.00
O985   O     0.24172   0.16666   0.80288   0.00000  Uiso   1.00
O986   O     0.09161   0.16666   0.78460   0.00000  Uiso   1.00
O987   O     0.24172   0.16667   0.88207   0.00000  Uiso   1.00
O988   O     0.10158   0.11495   0.70798   0.00000  Uiso   1.00
C989   C     0.50102   0.08746   0.83319   0.00000  Uiso   1.00
C990   C     0.46871   0.02249   0.85989   0.00000  Uiso   1.00
C991   C     0.49870   0.29051   0.83394   0.00000  Uiso   1.00
C992   C     0.50130   0.04283   0.83273   0.00000  Uiso   1.00
C993   C     0.46836   0.14012   0.68733   0.00000  Uiso   1.00
C994   C     0.53164   0.19322   0.97934   0.00000  Uiso   1.00
C995   C     0.46800   0.14089   0.97062   0.00000  Uiso   1.00
C996   C     0.53200   0.19244   0.69604   0.00000  Uiso   1.00
C997   C     0.57099   0.04130   0.77835   0.00000  Uiso   1.00
C998   C     0.42906   0.29204   0.88837   0.00000  Uiso   1.00
C999   C     0.43479   0.07406   0.69028   0.00000  Uiso   1.00
C1000  C     0.49898   0.24588   0.83348   0.00000  Uiso   1.00
C1001  C     0.56528   0.25926   0.97644   0.00000  Uiso   1.00
C1002  C     0.40124   0.16664   0.82121   0.00000  Uiso   1.00
C1003  C     0.59876   0.16670   0.84546   0.00000  Uiso   1.00
C1004  C     0.34591   0.16663   0.81456   0.00000  Uiso   1.00
C1005  C     0.65409   0.16670   0.85210   0.00000  Uiso   1.00
C1006  C     0.53329   0.02041   0.80600   0.00000  Uiso   1.00
C1007  C     0.46672   0.31292   0.86068   0.00000  Uiso   1.00
C1008  C     0.53130   0.31085   0.80678   0.00000  Uiso   1.00
Cu1009 Cu    0.50000   0.16667   0.88022   0.00000  Uiso   1.00
Cu1010 Cu    0.50000   0.16666   0.78645   0.00000  Uiso   1.00
H1011  H     0.65915   0.16657   0.77859   0.00000  Uiso   1.00
H1012  H     0.40410   0.27016   0.86512   0.00000  Uiso   1.00
H1013  H     0.45013   0.27513   0.91857   0.00000  Uiso   1.00
H1014  H     0.40359   0.31470   0.90290   0.00000  Uiso   1.00
H1015  H     0.47391   0.06352   0.68465   0.00000  Uiso   1.00
H1016  H     0.40722   0.07086   0.99050   0.00000  Uiso   1.00
H1017  H     0.42132   0.05319   0.71663   0.00000  Uiso   1.00
H1018  H     0.59292   0.26242   0.67618   0.00000  Uiso   1.00
H1019  H     0.52619   0.26982   0.98217   0.00000  Uiso   1.00
H1020  H     0.57870   0.28016   0.95009   0.00000  Uiso   1.00
H1021  H     0.34085   0.16676   0.88807   0.00000  Uiso   1.00
H1022  H     0.55588   0.29305   0.78674   0.00000  Uiso   1.00
H1023  H     0.44413   0.04029   0.87994   0.00000  Uiso   1.00
H1024  H     0.44195   0.12112   0.94762   0.00000  Uiso   1.00
H1025  H     0.55805   0.21222   0.71905   0.00000  Uiso   1.00
H1026  H     0.59594   0.06316   0.80163   0.00000  Uiso   1.00
H1027  H     0.59646   0.01864   0.76382   0.00000  Uiso   1.00
H1028  H     0.54995   0.05823   0.74814   0.00000  Uiso   1.00
N1029  N     0.50001   0.16668   0.95069   0.00000  Uiso   1.00
N1030  N     0.49999   0.16666   0.71597   0.00000  Uiso   1.00
O1031  O     0.50000   0.10655   0.87291   0.00000  Uiso   1.00
O1032  O     0.56507   0.21840   0.95868   0.00000  Uiso   1.00
O1033  O     0.50000   0.22678   0.79375   0.00000  Uiso   1.00
O1034  O     0.50000   0.10654   0.79372   0.00000  Uiso   1.00
O1035  O     0.50000   0.22679   0.87294   0.00000  Uiso   1.00
O1036  O     0.42495   0.16667   0.86379   0.00000  Uiso   1.00
O1037  O     0.57505   0.16666   0.80288   0.00000  Uiso   1.00
O1038  O     0.42494   0.16666   0.78460   0.00000  Uiso   1.00
O1039  O     0.57506   0.16667   0.88207   0.00000  Uiso   1.00
O1040  O     0.43491   0.11495   0.70798   0.00000  Uiso   1.00
C1041  C     0.83435   0.08746   0.83319   0.00000  Uiso   1.00
C1042  C     0.80204   0.02249   0.85989   0.00000  Uiso   1.00
C1043  C     0.83204   0.29051   0.83394   0.00000  Uiso   1.00
C1044  C     0.83464   0.04283   0.83273   0.00000  Uiso   1.00
C1045  C     0.80169   0.14012   0.68733   0.00000  Uiso   1.00
C1046  C     0.86498   0.19322   0.97934   0.00000  Uiso   1.00
C1047  C     0.80133   0.14089   0.97062   0.00000  Uiso   1.00
C1048  C     0.86533   0.19244   0.69604   0.00000  Uiso   1.00
C1049  C     0.90432   0.04130   0.77835   0.00000  Uiso   1.00
C1050  C     0.76239   0.29204   0.88837   0.00000  Uiso   1.00
C1051  C     0.76812   0.07406   0.69028   0.00000  Uiso   1.00
C1052  C     0.83232   0.24588   0.83348   0.00000  Uiso   1.00
C1053  C     0.89861   0.25926   0.97644   0.00000  Uiso   1.00
C1054  C     0.73457   0.16664   0.82121   0.00000  Uiso   1.00
C1055  C     0.93210   0.16670   0.84546   0.00000  Uiso   1.00
C1056  C     0.67925   0.16663   0.81456   0.00000  Uiso   1.00
C1057  C     0.98742   0.16670   0.85210   0.00000  Uiso   1.00
C1058  C     0.86663   0.02041   0.80600   0.00000  Uiso   1.00
C1059  C     0.80006   0.31292   0.86068   0.00000  Uiso   1.00
C1060  C     0.86463   0.31085   0.80678   0.00000  Uiso   1.00
Cu1061 Cu    0.83333   0.16667   0.88022   0.00000  Uiso   1.00
Cu1062 Cu    0.83333   0.16666   0.78645   0.00000  Uiso   1.00
H1063  H     0.99248   0.16657   0.77859   0.00000  Uiso   1.00
H1064  H     0.73744   0.27016   0.86512   0.00000  Uiso   1.00
H1065  H     0.78347   0.27513   0.91857   0.00000  Uiso   1.00
H1066  H     0.73692   0.31470   0.90290   0.00000  Uiso   1.00
H1067  H     0.80724   0.06352   0.68465   0.00000  Uiso   1.00
H1068  H     0.74055   0.07086   0.99050   0.00000  Uiso   1.00
H1069  H     0.75465   0.05319   0.71663   0.00000  Uiso   1.00
H1070  H     0.92626   0.26242   0.67618   0.00000  Uiso   1.00
H1071  H     0.85953   0.26982   0.98217   0.00000  Uiso   1.00
H1072  H     0.91203   0.28016   0.95009   0.00000  Uiso   1.00
H1073  H     0.67418   0.16676   0.88807   0.00000  Uiso   1.00
H1074  H     0.88921   0.29305   0.78674   0.00000  Uiso   1.00
H1075  H     0.77747   0.04029   0.87994   0.00000  Uiso   1.00
H1076  H     0.77528   0.12112   0.94762   0.00000  Uiso   1.00
H1077  H     0.89138   0.21222   0.71905   0.00000  Uiso   1.00
H1078  H     0.92928   0.06316   0.80163   0.00000  Uiso   1.00
H1079  H     0.92980   0.01864   0.76382   0.00000  Uiso   1.00
H1080  H     0.88328   0.05823   0.74814   0.00000  Uiso   1.00
N1081  N     0.83335   0.16668   0.95069   0.00000  Uiso   1.00
N1082  N     0.83332   0.16666   0.71597   0.00000  Uiso   1.00
O1083  O     0.83333   0.10655   0.87291   0.00000  Uiso   1.00
O1084  O     0.89841   0.21840   0.95868   0.00000  Uiso   1.00
O1085  O     0.83334   0.22678   0.79375   0.00000  Uiso   1.00
O1086  O     0.83333   0.10654   0.79372   0.00000  Uiso   1.00
O1087  O     0.83334   0.22679   0.87294   0.00000  Uiso   1.00
O1088  O     0.75828   0.16667   0.86379   0.00000  Uiso   1.00
O1089  O     0.90839   0.16666   0.80288   0.00000  Uiso   1.00
O1090  O     0.75828   0.16666   0.78460   0.00000  Uiso   1.00
O1091  O     0.90839   0.16667   0.88207   0.00000  Uiso   1.00
O1092  O     0.76825   0.11495   0.70798   0.00000  Uiso   1.00
C1093  C     0.16768   0.42079   0.83319   0.00000  Uiso   1.00
C1094  C     0.13538   0.35582   0.85989   0.00000  Uiso   1.00
C1095  C     0.16537   0.62384   0.83394   0.00000  Uiso   1.00
C1096  C     0.16797   0.37616   0.83273   0.00000  Uiso   1.00
C1097  C     0.13502   0.47345   0.68733   0.00000  Uiso   1.00
C1098  C     0.19831   0.52655   0.97934   0.00000  Uiso   1.00
C1099  C     0.13467   0.47423   0.97062   0.00000  Uiso   1.00
C1100  C     0.19867   0.52578   0.69604   0.00000  Uiso   1.00
C1101  C     0.23766   0.37463   0.77835   0.00000  Uiso   1.00
C1102  C     0.09573   0.62537   0.88837   0.00000  Uiso   1.00
C1103  C     0.10146   0.40740   0.69028   0.00000  Uiso   1.00
C1104  C     0.16565   0.57921   0.83348   0.00000  Uiso   1.00
C1105  C     0.23194   0.59260   0.97644   0.00000  Uiso   1.00
C1106  C     0.06791   0.49997   0.82121   0.00000  Uiso   1.00
C1107  C     0.26543   0.50003   0.84546   0.00000  Uiso   1.00
C1108  C     0.01258   0.49996   0.81456   0.00000  Uiso   1.00
C1109  C     0.32075   0.50004   0.85210   0.00000  Uiso   1.00
C1110  C     0.19996   0.35375   0.80600   0.00000  Uiso   1.00
C1111  C     0.13339   0.64626   0.86068   0.00000  Uiso   1.00
C1112  C     0.19796   0.64418   0.80678   0.00000  Uiso   1.00
Cu1113 Cu    0.16667   0.50001   0.88022   0.00000  Uiso   1.00
Cu1114 Cu    0.16667   0.49999   0.78645   0.00000  Uiso   1.00
H1115  H     0.32582   0.49990   0.77859   0.00000  Uiso   1.00
H1116  H     0.07077   0.60349   0.86512   0.00000  Uiso   1.00
H1117  H     0.11680   0.60846   0.91857   0.00000  Uiso   1.00
H1118  H     0.07026   0.64803   0.90290   0.00000  Uiso   1.00
H1119  H     0.14058   0.39686   0.68465   0.00000  Uiso   1.00
H1120  H     0.07388   0.40419   0.99050   0.00000  Uiso   1.00
H1121  H     0.08799   0.38652   0.71663   0.00000  Uiso   1.00
H1122  H     0.25959   0.59575   0.67618   0.00000  Uiso   1.00
H1123  H     0.19286   0.60315   0.98217   0.00000  Uiso   1.00
H1124  H     0.24536   0.61349   0.95009   0.00000  Uiso   1.00
H1125  H     0.00752   0.50010   0.88807   0.00000  Uiso   1.00
H1126  H     0.22254   0.62638   0.78674   0.00000  Uiso   1.00
H1127  H     0.11080   0.37362   0.87994   0.00000  Uiso   1.00
H1128  H     0.10861   0.45445   0.94762   0.00000  Uiso   1.00
H1129  H     0.22472   0.54555   0.71905   0.00000  Uiso   1.00
H1130  H     0.26261   0.39650   0.80163   0.00000  Uiso   1.00
H1131  H     0.26313   0.35197   0.76382   0.00000  Uiso   1.00
H1132  H     0.21662   0.39156   0.74814   0.00000  Uiso   1.00
N1133  N     0.16668   0.50001   0.95069   0.00000  Uiso   1.00
N1134  N     0.16665   0.49999   0.71597   0.00000  Uiso   1.00
O1135  O     0.16666   0.43989   0.87291   0.00000  Uiso   1.00
O1136  O     0.23174   0.55173   0.95868   0.00000  Uiso   1.00
O1137  O     0.16667   0.56011   0.79375   0.00000  Uiso   1.00
O1138  O     0.16666   0.43988   0.79372   0.00000  Uiso   1.00
O1139  O     0.16667   0.56012   0.87294   0.00000  Uiso   1.00
O1140  O     0.09161   0.50000   0.86379   0.00000  Uiso   1.00
O1141  O     0.24172   0.50000   0.80288   0.00000  Uiso   1.00
O1142  O     0.09161   0.49999   0.78460   0.00000  Uiso   1.00
O1143  O     0.24172   0.50001   0.88207   0.00000  Uiso   1.00
O1144  O     0.10158   0.44828   0.70798   0.00000  Uiso   1.00
C1145  C     0.50102   0.42079   0.83319   0.00000  Uiso   1.00
C1146  C     0.46871   0.35582   0.85989   0.00000  Uiso   1.00
C1147  C     0.49870   0.62384   0.83394   0.00000  Uiso   1.00
C1148  C     0.50130   0.37616   0.83273   0.00000  Uiso   1.00
C1149  C     0.46836   0.47345   0.68733   0.00000  Uiso   1.00
C1150  C     0.53164   0.52655   0.97934   0.00000  Uiso   1.00
C1151  C     0.46800   0.47423   0.97062   0.00000  Uiso   1.00
C1152  C     0.53200   0.52578   0.69604   0.00000  Uiso   1.00
C1153  C     0.57099   0.37463   0.77835   0.00000  Uiso   1.00
C1154  C     0.42906   0.62537   0.88837   0.00000  Uiso   1.00
C1155  C     0.43479   0.40740   0.69028   0.00000  Uiso   1.00
C1156  C     0.49898   0.57921   0.83348   0.00000  Uiso   1.00
C1157  C     0.56528   0.59260   0.97644   0.00000  Uiso   1.00
C1158  C     0.40124   0.49997   0.82121   0.00000  Uiso   1.00
C1159  C     0.59876   0.50003   0.84546   0.00000  Uiso   1.00
C1160  C     0.34591   0.49996   0.81456   0.00000  Uiso   1.00
C1161  C     0.65409   0.50004   0.85210   0.00000  Uiso   1.00
C1162  C     0.53329   0.35375   0.80600   0.00000  Uiso   1.00
C1163  C     0.46672   0.64626   0.86068   0.00000  Uiso   1.00
C1164  C     0.53130   0.64418   0.80678   0.00000  Uiso   1.00
Cu1165 Cu    0.50000   0.50001   0.88022   0.00000  Uiso   1.00
Cu1166 Cu    0.50000   0.49999   0.78645   0.00000  Uiso   1.00
H1167  H     0.65915   0.49990   0.77859   0.00000  Uiso   1.00
H1168  H     0.40410   0.60349   0.86512   0.00000  Uiso   1.00
H1169  H     0.45013   0.60846   0.91857   0.00000  Uiso   1.00
H1170  H     0.40359   0.64803   0.90290   0.00000  Uiso   1.00
H1171  H     0.47391   0.39686   0.68465   0.00000  Uiso   1.00
H1172  H     0.40722   0.40419   0.99050   0.00000  Uiso   1.00
H1173  H     0.42132   0.38652   0.71663   0.00000  Uiso   1.00
H1174  H     0.59292   0.59575   0.67618   0.00000  Uiso   1.00
H1175  H     0.52619   0.60315   0.98217   0.00000  Uiso   1.00
H1176  H     0.57870   0.61349   0.95009   0.00000  Uiso   1.00
H1177  H     0.34085   0.50010   0.88807   0.00000  Uiso   1.00
H1178  H     0.55588   0.62638   0.78674   0.00000  Uiso   1.00
H1179  H     0.44413   0.37362   0.87994   0.00000  Uiso   1.00
H1180  H     0.44195   0.45445   0.94762   0.00000  Uiso   1.00
H1181  H     0.55805   0.54555   0.71905   0.00000  Uiso   1.00
H1182  H     0.59594   0.39650   0.80163   0.00000  Uiso   1.00
H1183  H     0.59646   0.35197   0.76382   0.00000  Uiso   1.00
H1184  H     0.54995   0.39156   0.74814   0.00000  Uiso   1.00
N1185  N     0.50001   0.50001   0.95069   0.00000  Uiso   1.00
N1186  N     0.49999   0.49999   0.71597   0.00000  Uiso   1.00
O1187  O     0.50000   0.43989   0.87291   0.00000  Uiso   1.00
O1188  O     0.56507   0.55173   0.95868   0.00000  Uiso   1.00
O1189  O     0.50000   0.56011   0.79375   0.00000  Uiso   1.00
O1190  O     0.50000   0.43988   0.79372   0.00000  Uiso   1.00
O1191  O     0.50000   0.56012   0.87294   0.00000  Uiso   1.00
O1192  O     0.42495   0.50000   0.86379   0.00000  Uiso   1.00
O1193  O     0.57505   0.50000   0.80288   0.00000  Uiso   1.00
O1194  O     0.42494   0.49999   0.78460   0.00000  Uiso   1.00
O1195  O     0.57506   0.50001   0.88207   0.00000  Uiso   1.00
O1196  O     0.43491   0.44828   0.70798   0.00000  Uiso   1.00
C1197  C     0.83435   0.42079   0.83319   0.00000  Uiso   1.00
C1198  C     0.80204   0.35582   0.85989   0.00000  Uiso   1.00
C1199  C     0.83204   0.62384   0.83394   0.00000  Uiso   1.00
C1200  C     0.83464   0.37616   0.83273   0.00000  Uiso   1.00
C1201  C     0.80169   0.47345   0.68733   0.00000  Uiso   1.00
C1202  C     0.86498   0.52655   0.97934   0.00000  Uiso   1.00
C1203  C     0.80133   0.47423   0.97062   0.00000  Uiso   1.00
C1204  C     0.86533   0.52578   0.69604   0.00000  Uiso   1.00
C1205  C     0.90432   0.37463   0.77835   0.00000  Uiso   1.00
C1206  C     0.76239   0.62537   0.88837   0.00000  Uiso   1.00
C1207  C     0.76812   0.40740   0.69028   0.00000  Uiso   1.00
C1208  C     0.83232   0.57921   0.83348   0.00000  Uiso   1.00
C1209  C     0.89861   0.59260   0.97644   0.00000  Uiso   1.00
C1210  C     0.73457   0.49997   0.82121   0.00000  Uiso   1.00
C1211  C     0.93210   0.50003   0.84546   0.00000  Uiso   1.00
C1212  C     0.67925   0.49996   0.81456   0.00000  Uiso   1.00
C1213  C     0.98742   0.50004   0.85210   0.00000  Uiso   1.00
C1214  C     0.86663   0.35375   0.80600   0.00000  Uiso   1.00
C1215  C     0.80006   0.64626   0.86068   0.00000  Uiso   1.00
C1216  C     0.86463   0.64418   0.80678   0.00000  Uiso   1.00
Cu1217 Cu    0.83333   0.50001   0.88022   0.00000  Uiso   1.00
Cu1218 Cu    0.83333   0.49999   0.78645   0.00000  Uiso   1.00
H1219  H     0.99248   0.49990   0.77859   0.00000  Uiso   1.00
H1220  H     0.73744   0.60349   0.86512   0.00000  Uiso   1.00
H1221  H     0.78347   0.60846   0.91857   0.00000  Uiso   1.00
H1222  H     0.73692   0.64803   0.90290   0.00000  Uiso   1.00
H1223  H     0.80724   0.39686   0.68465   0.00000  Uiso   1.00
H1224  H     0.74055   0.40419   0.99050   0.00000  Uiso   1.00
H1225  H     0.75465   0.38652   0.71663   0.00000  Uiso   1.00
H1226  H     0.92626   0.59575   0.67618   0.00000  Uiso   1.00
H1227  H     0.85953   0.60315   0.98217   0.00000  Uiso   1.00
H1228  H     0.91203   0.61349   0.95009   0.00000  Uiso   1.00
H1229  H     0.67418   0.50010   0.88807   0.00000  Uiso   1.00
H1230  H     0.88921   0.62638   0.78674   0.00000  Uiso   1.00
H1231  H     0.77747   0.37362   0.87994   0.00000  Uiso   1.00
H1232  H     0.77528   0.45445   0.94762   0.00000  Uiso   1.00
H1233  H     0.89138   0.54555   0.71905   0.00000  Uiso   1.00
H1234  H     0.92928   0.39650   0.80163   0.00000  Uiso   1.00
H1235  H     0.92980   0.35197   0.76382   0.00000  Uiso   1.00
H1236  H     0.88328   0.39156   0.74814   0.00000  Uiso   1.00
N1237  N     0.83335   0.50001   0.95069   0.00000  Uiso   1.00
N1238  N     0.83332   0.49999   0.71597   0.00000  Uiso   1.00
O1239  O     0.83333   0.43989   0.87291   0.00000  Uiso   1.00
O1240  O     0.89841   0.55173   0.95868   0.00000  Uiso   1.00
O1241  O     0.83334   0.56011   0.79375   0.00000  Uiso   1.00
O1242  O     0.83333   0.43988   0.79372   0.00000  Uiso   1.00
O1243  O     0.83334   0.56012   0.87294   0.00000  Uiso   1.00
O1244  O     0.75828   0.50000   0.86379   0.00000  Uiso   1.00
O1245  O     0.90839   0.50000   0.80288   0.00000  Uiso   1.00
O1246  O     0.75828   0.49999   0.78460   0.00000  Uiso   1.00
O1247  O     0.90839   0.50001   0.88207   0.00000  Uiso   1.00
O1248  O     0.76825   0.44828   0.70798   0.00000  Uiso   1.00
C1249  C     0.16768   0.75412   0.83319   0.00000  Uiso   1.00
C1250  C     0.13538   0.68915   0.85989   0.00000  Uiso   1.00
C1251  C     0.16537   0.95717   0.83394   0.00000  Uiso   1.00
C1252  C     0.16797   0.70950   0.83273   0.00000  Uiso   1.00
C1253  C     0.13502   0.80679   0.68733   0.00000  Uiso   1.00
C1254  C     0.19831   0.85989   0.97934   0.00000  Uiso   1.00
C1255  C     0.13467   0.80756   0.97062   0.00000  Uiso   1.00
C1256  C     0.19867   0.85911   0.69604   0.00000  Uiso   1.00
C1257  C     0.23766   0.70796   0.77835   0.00000  Uiso   1.00
C1258  C     0.09573   0.95871   0.88837   0.00000  Uiso   1.00
C1259  C     0.10146   0.74073   0.69028   0.00000  Uiso   1.00
C1260  C     0.16565   0.91254   0.83348   0.00000  Uiso   1.00
C1261  C     0.23194   0.92593   0.97644   0.00000  Uiso   1.00
C1262  C     0.06791   0.83330   0.82121   0.00000  Uiso   1.00
C1263  C     0.26543   0.83336   0.84546   0.00000  Uiso   1.00
C1264  C     0.01258   0.83330   0.81456   0.00000  Uiso   1.00
C1265  C     0.32075   0.83337   0.85210   0.00000  Uiso   1.00
C1266  C     0.19996   0.68708   0.80600   0.00000  Uiso   1.00
C1267  C     0.13339   0.97959   0.86068   0.00000  Uiso   1.00
C1268  C     0.19796   0.97751   0.80678   0.00000  Uiso   1.00
Cu1269 Cu    0.16667   0.83334   0.88022   0.00000  Uiso   1.00
Cu1270 Cu    0.16667   0.83333   0.78645   0.00000  Uiso   1.00
H1271  H     0.32582   0.83324   0.77859   0.00000  Uiso   1.00
H1272  H     0.07077   0.93682   0.86512   0.00000  Uiso   1.00
H1273  H     0.11680   0.94179   0.91857   0.00000  Uiso   1.00
H1274  H     0.07026   0.98136   0.90290   0.00000  Uiso   1.00
H1275  H     0.14058   0.73019   0.68465   0.00000  Uiso   1.00
H1276  H     0.07388   0.73752   0.99050   0.00000  Uiso   1.00
H1277  H     0.08799   0.71985   0.71663   0.00000  Uiso   1.00
H1278  H     0.25959   0.92909   0.67618   0.00000  Uiso   1.00
H1279  H     0.19286   0.93649   0.98217   0.00000  Uiso   1.00
H1280  H     0.24536   0.94683   0.95009   0.00000  Uiso   1.00
H1281  H     0.00752   0.83343   0.88807   0.00000  Uiso   1.00
H1282  H     0.22254   0.95972   0.78674   0.00000  Uiso   1.00
H1283  H     0.11080   0.70695   0.87994   0.00000  Uiso   1.00
H1284  H     0.10861   0.78778   0.94762   0.00000  Uiso   1.00
H1285  H     0.22472   0.87888   0.71905   0.00000  Uiso   1.00
H1286  H     0.26261   0.72983   0.80163   0.00000  Uiso   1.00
H1287  H     0.26313   0.68530   0.76382   0.00000  Uiso   1.00
H1288  H     0.21662   0.72490   0.74814   0.00000  Uiso   1.00
N1289  N     0.16668   0.83334   0.95069   0.00000  Uiso   1.00
N1290  N     0.16665   0.83332   0.71597   0.00000  Uiso   1.00
O1291  O     0.16666   0.77322   0.87291   0.00000  Uiso   1.00
O1292  O     0.23174   0.88506   0.95868   0.00000  Uiso   1.00
O1293  O     0.16667   0.89345   0.79375   0.00000  Uiso   1.00
O1294  O     0.16666   0.77321   0.79372   0.00000  Uiso   1.00
O1295  O     0.16667   0.89346   0.87294   0.00000  Uiso   1.00
O1296  O     0.09161   0.83334   0.86379   0.00000  Uiso   1.00
O1297  O     0.24172   0.83333   0.80288   0.00000  Uiso   1.00
O1298  O     0.09161   0.83333   0.78460   0.00000  Uiso   1.00
O1299  O     0.24172   0.83334   0.88207   0.00000  Uiso   1.00
O1300  O     0.10158   0.78162   0.70798   0.00000  Uiso   1.00
C1301  C     0.50102   0.75412   0.83319   0.00000  Uiso   1.00
C1302  C     0.46871   0.68915   0.85989   0.00000  Uiso   1.00
C1303  C     0.49870   0.95717   0.83394   0.00000  Uiso   1.00
C1304  C     0.50130   0.70950   0.83273   0.00000  Uiso   1.00
C1305  C     0.46836   0.80679   0.68733   0.00000  Uiso   1.00
C1306  C     0.53164   0.85989   0.97934   0.00000  Uiso   1.00
C1307  C     0.46800   0.80756   0.97062   0.00000  Uiso   1.00
C1308  C     0.53200   0.85911   0.69604   0.00000  Uiso   1.00
C1309  C     0.57099   0.70796   0.77835   0.00000  Uiso   1.00
C1310  C     0.42906   0.95871   0.88837   0.00000  Uiso   1.00
C1311  C     0.43479   0.74073   0.69028   0.00000  Uiso   1.00
C1312  C     0.49898   0.91254   0.83348   0.00000  Uiso   1.00
C1313  C     0.56528   0.92593   0.97644   0.00000  Uiso   1.00
C1314  C     0.40124   0.83330   0.82121   0.00000  Uiso   1.00
C1315  C     0.59876   0.83336   0.84546   0.00000  Uiso   1.00
C1316  C     0.34591   0.83330   0.81456   0.00000  Uiso   1.00
C1317  C     0.65409   0.83337   0.85210   0.00000  Uiso   1.00
C1318  C     0.53329   0.68708   0.80600   0.00000  Uiso   1.00
C1319  C     0.46672   0.97959   0.86068   0.00000  Uiso   1.00
C1320  C     0.53130   0.97751   0.80678   0.00000  Uiso   1.00
Cu1321 Cu    0.50000   0.83334   0.88022   0.00000  Uiso   1.00
Cu1322 Cu    0.50000   0.83333   0.78645   0.00000  Uiso   1.00
H1323  H     0.65915   0.83324   0.77859   0.00000  Uiso   1.00
H1324  H     0.40410   0.93682   0.86512   0.00000  Uiso   1.00
H1325  H     0.45013   0.94179   0.91857   0.00000  Uiso   1.00
H1326  H     0.40359   0.98136   0.90290   0.00000  Uiso   1.00
H1327  H     0.47391   0.73019   0.68465   0.00000  Uiso   1.00
H1328  H     0.40722   0.73752   0.99050   0.00000  Uiso   1.00
H1329  H     0.42132   0.71985   0.71663   0.00000  Uiso   1.00
H1330  H     0.59292   0.92909   0.67618   0.00000  Uiso   1.00
H1331  H     0.52619   0.93649   0.98217   0.00000  Uiso   1.00
H1332  H     0.57870   0.94683   0.95009   0.00000  Uiso   1.00
H1333  H     0.34085   0.83343   0.88807   0.00000  Uiso   1.00
H1334  H     0.55588   0.95972   0.78674   0.00000  Uiso   1.00
H1335  H     0.44413   0.70695   0.87994   0.00000  Uiso   1.00
H1336  H     0.44195   0.78778   0.94762   0.00000  Uiso   1.00
H1337  H     0.55805   0.87888   0.71905   0.00000  Uiso   1.00
H1338  H     0.59594   0.72983   0.80163   0.00000  Uiso   1.00
H1339  H     0.59646   0.68530   0.76382   0.00000  Uiso   1.00
H1340  H     0.54995   0.72490   0.74814   0.00000  Uiso   1.00
N1341  N     0.50001   0.83334   0.95069   0.00000  Uiso   1.00
N1342  N     0.49999   0.83332   0.71597   0.00000  Uiso   1.00
O1343  O     0.50000   0.77322   0.87291   0.00000  Uiso   1.00
O1344  O     0.56507   0.88506   0.95868   0.00000  Uiso   1.00
O1345  O     0.50000   0.89345   0.79375   0.00000  Uiso   1.00
O1346  O     0.50000   0.77321   0.79372   0.00000  Uiso   1.00
O1347  O     0.50000   0.89346   0.87294   0.00000  Uiso   1.00
O1348  O     0.42495   0.83334   0.86379   0.00000  Uiso   1.00
O1349  O     0.57505   0.83333   0.80288   0.00000  Uiso   1.00
O1350  O     0.42494   0.83333   0.78460   0.00000  Uiso   1.00
O1351  O     0.57506   0.83334   0.88207   0.00000  Uiso   1.00
O1352  O     0.43491   0.78162   0.70798   0.00000  Uiso   1.00
C1353  C     0.83435   0.75412   0.83319   0.00000  Uiso   1.00
C1354  C     0.80204   0.68915   0.85989   0.00000  Uiso   1.00
C1355  C     0.83204   0.95717   0.83394   0.00000  Uiso   1.00
C1356  C     0.83464   0.70950   0.83273   0.00000  Uiso   1.00
C1357  C     0.80169   0.80679   0.68733   0.00000  Uiso   1.00
C1358  C     0.86498   0.85989   0.97934   0.00000  Uiso   1.00
C1359  C     0.80133   0.80756   0.97062   0.00000  Uiso   1.00
C1360  C     0.86533   0.85911   0.69604   0.00000  Uiso   1.00
C1361  C     0.90432   0.70796   0.77835   0.00000  Uiso   1.00
C1362  C     0.76239   0.95871   0.88837   0.00000  Uiso   1.00
C1363  C     0.76812   0.74073   0.69028   0.00000  Uiso   1.00
C1364  C     0.83232   0.91254   0.83348   0.00000  Uiso   1.00
C1365  C     0.89861   0.92593   0.97644   0.00000  Uiso   1.00
C1366  C     0.73457   0.83330   0.82121   0.00000  Uiso   1.00
C1367  C     0.93210   0.83336   0.84546   0.00000  Uiso   1.00
C1368  C     0.67925   0.83330   0.81456   0.00000  Uiso   1.00
C1369  C     0.98742   0.83337   0.85210   0.00000  Uiso   1.00
C1370  C     0.86663   0.68708   0.80600   0.00000  Uiso   1.00
C1371  C     0.80006   0.97959   0.86068   0.00000  Uiso   1.00
C1372  C     0.86463   0.97751   0.80678   0.00000  Uiso   1.00
Cu1373 Cu    0.83333   0.83334   0.88022   0.00000  Uiso   1.00
Cu1374 Cu    0.83333   0.83333   0.78645   0.00000  Uiso   1.00
H1375  H     0.99248   0.83324   0.77859   0.00000  Uiso   1.00
H1376  H     0.73744   0.93682   0.86512   0.00000  Uiso   1.00
H1377  H     0.78347   0.94179   0.91857   0.00000  Uiso   1.00
H1378  H     0.73692   0.98136   0.90290   0.00000  Uiso   1.00
H1379  H     0.80724   0.73019   0.68465   0.00000  Uiso   1.00
H1380  H     0.74055   0.73752   0.99050   0.00000  Uiso   1.00
H1381  H     0.75465   0.71985   0.71663   0.00000  Uiso   1.00
H1382  H     0.92626   0.92909   0.67618   0.00000  Uiso   1.00
H1383  H     0.85953   0.93649   0.98217   0.00000  Uiso   1.00
H1384  H     0.91203   0.94683   0.95009   0.00000  Uiso   1.00
H1385  H     0.67418   0.83343   0.88807   0.00000  Uiso   1.00
H1386  H     0.88921   0.95972   0.78674   0.00000  Uiso   1.00
H1387  H     0.77747   0.70695   0.87994   0.00000  Uiso   1.00
H1388  H     0.77528   0.78778   0.94762   0.00000  Uiso   1.00
H1389  H     0.89138   0.87888   0.71905   0.00000  Uiso   1.00
H1390  H     0.92928   0.72983   0.80163   0.00000  Uiso   1.00
H1391  H     0.92980   0.68530   0.76382   0.00000  Uiso   1.00
H1392  H     0.88328   0.72490   0.74814   0.00000  Uiso   1.00
N1393  N     0.83335   0.83334   0.95069   0.00000  Uiso   1.00
N1394  N     0.83332   0.83332   0.71597   0.00000  Uiso   1.00
O1395  O     0.83333   0.77322   0.87291   0.00000  Uiso   1.00
O1396  O     0.89841   0.88506   0.95868   0.00000  Uiso   1.00
O1397  O     0.83334   0.89345   0.79375   0.00000  Uiso   1.00
O1398  O     0.83333   0.77321   0.79372   0.00000  Uiso   1.00
O1399  O     0.83334   0.89346   0.87294   0.00000  Uiso   1.00
O1400  O     0.75828   0.83334   0.86379   0.00000  Uiso   1.00
O1401  O     0.90839   0.83333   0.80288   0.00000  Uiso   1.00
O1402  O     0.75828   0.83333   0.78460   0.00000  Uiso   1.00
O1403  O     0.90839   0.83334   0.88207   0.00000  Uiso   1.00
O1404  O     0.76825   0.78162   0.70798   0.00000  Uiso   1.00
loop_
_geom_bond_atom_site_label_1
_geom_bond_atom_site_label_2
_geom_bond_distance
_geom_bond_site_symmetry_2
_ccdc_geom_bond_type
C1     C4      1.445   .     S
C1     O43     1.292   .     A
C1     O46     1.289   .     A
C2     H35     1.085   .     S
C2     C4      1.399   .     A
C2     C331    1.390   1_545 S
C3     C19     1.411   .     A
C3     C20     1.399   .     A
C3     C12     1.445   .     S
C4     C18     1.411   .     A
C5     N42     1.372   .     A
C5     O52     1.388   .     S
C5     C943    1.430   1_554 S
C6     O44     1.388   .     S
C6     N41     1.372   .     A
C6     C476    1.430   .     S
C7     H36     1.081   .     S
C7     N41     1.364   .     A
C7     C473    1.430   .     S
C8     H37     1.081   .     S
C8     N42     1.364   .     A
C8     C942    1.430   1_554 S
C9     C18     1.510   .     S
C9     H39     1.111   .     S
C9     H38     1.111   .     S
C9     H40     1.109   .     S
C10    C19     1.510   .     S
C10    H26     1.111   .     S
C10    H25     1.109   .     S
C10    H24     1.111   .     S
C11    O52     1.412   .     S
C11    H27     1.114   .     S
C11    H29     1.110   .     S
C11    H964    1.111   1_554 S
C12    O47     1.289   .     A
C12    O45     1.292   .     A
C13    H32     1.109   .     S
C13    O44     1.412   .     S
C13    H31     1.114   .     S
C13    H498    1.111   .     S
C14    C16     1.435   .     S
C14    O50     1.290   .     A
C14    O48     1.286   .     A
C15    O51     1.290   .     A
C15    O49     1.286   .     A
C15    C17     1.435   .     S
C16    C121    1.336   1_455 S
C16    H127    1.087   1_455 S
C17    C68     1.336   .     S
C17    H85     1.087   .     S
C18    C332    1.390   1_545 S
C19    C158    1.390   .     S
C20    H34     1.085   .     S
C20    C174    1.390   .     S
Cu21   O48     1.956   .     S
Cu21   Cu22    2.681   .     S
Cu21   N41     2.015   .     S
Cu21   O51     1.959   .     S
Cu21   O43     1.956   .     S
Cu21   O47     1.960   .     S
Cu22   O50     1.959   .     S
Cu22   N42     2.015   .     S
Cu22   O46     1.960   .     S
Cu22   O45     1.956   .     S
Cu22   O49     1.956   .     S
H23    C68     1.087   .     S
H28    C479    1.111   .     S
H30    C949    1.111   1_554 S
H33    C121    1.087   1_455 S
C53    C56     1.445   .     S
C53    O95     1.292   .     A
C53    O98     1.289   .     A
C54    H87     1.085   .     S
C54    C56     1.399   .     A
C54    C383    1.390   1_545 S
C55    C71     1.411   .     A
C55    C72     1.399   .     A
C55    C64     1.445   .     S
C56    C70     1.411   .     A
C57    N94     1.372   .     A
C57    O104    1.388   .     S
C57    C995    1.430   1_554 S
C58    O96     1.388   .     S
C58    N93     1.372   .     A
C58    C528    1.430   .     S
C59    H88     1.081   .     S
C59    N93     1.364   .     A
C59    C525    1.430   .     S
C60    H89     1.081   .     S
C60    N94     1.364   .     A
C60    C994    1.430   1_554 S
C61    C70     1.510   .     S
C61    H91     1.111   .     S
C61    H90     1.111   .     S
C61    H92     1.109   .     S
C62    C71     1.510   .     S
C62    H78     1.111   .     S
C62    H77     1.109   .     S
C62    H76     1.111   .     S
C63    O104    1.412   .     S
C63    H79     1.114   .     S
C63    H81     1.110   .     S
C63    H1016   1.111   1_554 S
C64    O99     1.289   .     A
C64    O97     1.292   .     A
C65    H84     1.109   .     S
C65    O96     1.412   .     S
C65    H83     1.114   .     S
C65    H550    1.111   .     S
C66    C68     1.435   .     S
C66    O102    1.290   .     A
C66    O100    1.286   .     A
C67    O103    1.290   .     A
C67    O101    1.286   .     A
C67    C69     1.435   .     S
C69    C120    1.336   .     S
C69    H137    1.087   .     S
C70    C384    1.390   1_545 S
C71    C210    1.390   .     S
C72    H86     1.085   .     S
C72    C226    1.390   .     S
Cu73   O100    1.956   .     S
Cu73   Cu74    2.681   .     S
Cu73   N93     2.015   .     S
Cu73   O103    1.959   .     S
Cu73   O95     1.956   .     S
Cu73   O99     1.960   .     S
Cu74   O102    1.959   .     S
Cu74   N94     2.015   .     S
Cu74   O98     1.960   .     S
Cu74   O97     1.956   .     S
Cu74   O101    1.956   .     S
H75    C120    1.087   .     S
H80    C531    1.111   .     S
H82    C1001   1.111   1_554 S
C105   C108    1.445   .     S
C105   O147    1.292   .     A
C105   O150    1.289   .     A
C106   H139    1.085   .     S
C106   C108    1.399   .     A
C106   C435    1.390   1_545 S
C107   C123    1.411   .     A
C107   C124    1.399   .     A
C107   C116    1.445   .     S
C108   C122    1.411   .     A
C109   N146    1.372   .     A
C109   O156    1.388   .     S
C109   C1047   1.430   1_554 S
C110   O148    1.388   .     S
C110   N145    1.372   .     A
C110   C580    1.430   .     S
C111   H140    1.081   .     S
C111   N145    1.364   .     A
C111   C577    1.430   .     S
C112   H141    1.081   .     S
C112   N146    1.364   .     A
C112   C1046   1.430   1_554 S
C113   C122    1.510   .     S
C113   H143    1.111   .     S
C113   H142    1.111   .     S
C113   H144    1.109   .     S
C114   C123    1.510   .     S
C114   H130    1.111   .     S
C114   H129    1.109   .     S
C114   H128    1.111   .     S
C115   O156    1.412   .     S
C115   H131    1.114   .     S
C115   H133    1.110   .     S
C115   H1068   1.111   1_554 S
C116   O151    1.289   .     A
C116   O149    1.292   .     A
C117   H136    1.109   .     S
C117   O148    1.412   .     S
C117   H135    1.114   .     S
C117   H602    1.111   .     S
C118   C120    1.435   .     S
C118   O154    1.290   .     A
C118   O152    1.286   .     A
C119   O155    1.290   .     A
C119   O153    1.286   .     A
C119   C121    1.435   .     S
C121   C16     1.336   1_655 S
C121   H33     1.087   1_655 S
C122   C436    1.390   1_545 S
C123   C262    1.390   .     S
C124   H138    1.085   .     S
C124   C278    1.390   .     S
Cu125  O152    1.956   .     S
Cu125  Cu126   2.681   .     S
Cu125  N145    2.015   .     S
Cu125  O155    1.959   .     S
Cu125  O147    1.956   .     S
Cu125  O151    1.960   .     S
Cu126  O154    1.959   .     S
Cu126  N146    2.015   .     S
Cu126  O150    1.960   .     S
Cu126  O149    1.956   .     S
Cu126  O153    1.956   .     S
H127   C16     1.087   1_655 S
H132   C583    1.111   .     S
H134   C1053   1.111   1_554 S
C157   C160    1.445   .     S
C157   O199    1.292   .     A
C157   O202    1.289   .     A
C158   H191    1.085   .     S
C158   C160    1.399   .     A
C159   C175    1.411   .     A
C159   C176    1.399   .     A
C159   C168    1.445   .     S
C160   C174    1.411   .     A
C161   N198    1.372   .     A
C161   O208    1.388   .     S
C161   C1099   1.430   1_554 S
C162   O200    1.388   .     S
C162   N197    1.372   .     A
C162   C632    1.430   .     S
C163   H192    1.081   .     S
C163   N197    1.364   .     A
C163   C629    1.430   .     S
C164   H193    1.081   .     S
C164   N198    1.364   .     A
C164   C1098   1.430   1_554 S
C165   C174    1.510   .     S
C165   H195    1.111   .     S
C165   H194    1.111   .     S
C165   H196    1.109   .     S
C166   C175    1.510   .     S
C166   H182    1.111   .     S
C166   H181    1.109   .     S
C166   H180    1.111   .     S
C167   O208    1.412   .     S
C167   H183    1.114   .     S
C167   H185    1.110   .     S
C167   H1120   1.111   1_554 S
C168   O203    1.289   .     A
C168   O201    1.292   .     A
C169   H188    1.109   .     S
C169   O200    1.412   .     S
C169   H187    1.114   .     S
C169   H654    1.111   .     S
C170   C172    1.435   .     S
C170   O206    1.290   .     A
C170   O204    1.286   .     A
C171   O207    1.290   .     A
C171   O205    1.286   .     A
C171   C173    1.435   .     S
C172   C277    1.336   1_455 S
C172   H283    1.087   1_455 S
C173   C224    1.336   .     S
C173   H241    1.087   .     S
C175   C314    1.390   .     S
C176   H190    1.085   .     S
C176   C330    1.390   .     S
Cu177  O204    1.956   .     S
Cu177  Cu178   2.681   .     S
Cu177  N197    2.015   .     S
Cu177  O207    1.959   .     S
Cu177  O199    1.956   .     S
Cu177  O203    1.960   .     S
Cu178  O206    1.959   .     S
Cu178  N198    2.015   .     S
Cu178  O202    1.960   .     S
Cu178  O201    1.956   .     S
Cu178  O205    1.956   .     S
H179   C224    1.087   .     S
H184   C635    1.111   .     S
H186   C1105   1.111   1_554 S
H189   C277    1.087   1_455 S
C209   C212    1.445   .     S
C209   O251    1.292   .     A
C209   O254    1.289   .     A
C210   H243    1.085   .     S
C210   C212    1.399   .     A
C211   C227    1.411   .     A
C211   C228    1.399   .     A
C211   C220    1.445   .     S
C212   C226    1.411   .     A
C213   N250    1.372   .     A
C213   O260    1.388   .     S
C213   C1151   1.430   1_554 S
C214   O252    1.388   .     S
C214   N249    1.372   .     A
C214   C684    1.430   .     S
C215   H244    1.081   .     S
C215   N249    1.364   .     A
C215   C681    1.430   .     S
C216   H245    1.081   .     S
C216   N250    1.364   .     A
C216   C1150   1.430   1_554 S
C217   C226    1.510   .     S
C217   H247    1.111   .     S
C217   H246    1.111   .     S
C217   H248    1.109   .     S
C218   C227    1.510   .     S
C218   H234    1.111   .     S
C218   H233    1.109   .     S
C218   H232    1.111   .     S
C219   O260    1.412   .     S
C219   H235    1.114   .     S
C219   H237    1.110   .     S
C219   H1172   1.111   1_554 S
C220   O255    1.289   .     A
C220   O253    1.292   .     A
C221   H240    1.109   .     S
C221   O252    1.412   .     S
C221   H239    1.114   .     S
C221   H706    1.111   .     S
C222   C224    1.435   .     S
C222   O258    1.290   .     A
C222   O256    1.286   .     A
C223   O259    1.290   .     A
C223   O257    1.286   .     A
C223   C225    1.435   .     S
C225   C276    1.336   .     S
C225   H293    1.087   .     S
C227   C366    1.390   .     S
C228   H242    1.085   .     S
C228   C382    1.390   .     S
Cu229  O256    1.956   .     S
Cu229  Cu230   2.681   .     S
Cu229  N249    2.015   .     S
Cu229  O259    1.959   .     S
Cu229  O251    1.956   .     S
Cu229  O255    1.960   .     S
Cu230  O258    1.959   .     S
Cu230  N250    2.015   .     S
Cu230  O254    1.960   .     S
Cu230  O253    1.956   .     S
Cu230  O257    1.956   .     S
H231   C276    1.087   .     S
H236   C687    1.111   .     S
H238   C1157   1.111   1_554 S
C261   C264    1.445   .     S
C261   O303    1.292   .     A
C261   O306    1.289   .     A
C262   H295    1.085   .     S
C262   C264    1.399   .     A
C263   C279    1.411   .     A
C263   C280    1.399   .     A
C263   C272    1.445   .     S
C264   C278    1.411   .     A
C265   N302    1.372   .     A
C265   O312    1.388   .     S
C265   C1203   1.430   1_554 S
C266   O304    1.388   .     S
C266   N301    1.372   .     A
C266   C736    1.430   .     S
C267   H296    1.081   .     S
C267   N301    1.364   .     A
C267   C733    1.430   .     S
C268   H297    1.081   .     S
C268   N302    1.364   .     A
C268   C1202   1.430   1_554 S
C269   C278    1.510   .     S
C269   H299    1.111   .     S
C269   H298    1.111   .     S
C269   H300    1.109   .     S
C270   C279    1.510   .     S
C270   H286    1.111   .     S
C270   H285    1.109   .     S
C270   H284    1.111   .     S
C271   O312    1.412   .     S
C271   H287    1.114   .     S
C271   H289    1.110   .     S
C271   H1224   1.111   1_554 S
C272   O307    1.289   .     A
C272   O305    1.292   .     A
C273   H292    1.109   .     S
C273   O304    1.412   .     S
C273   H291    1.114   .     S
C273   H758    1.111   .     S
C274   C276    1.435   .     S
C274   O310    1.290   .     A
C274   O308    1.286   .     A
C275   O311    1.290   .     A
C275   O309    1.286   .     A
C275   C277    1.435   .     S
C277   C172    1.336   1_655 S
C277   H189    1.087   1_655 S
C279   C418    1.390   .     S
C280   H294    1.085   .     S
C280   C434    1.390   .     S
Cu281  O308    1.956   .     S
Cu281  Cu282   2.681   .     S
Cu281  N301    2.015   .     S
Cu281  O311    1.959   .     S
Cu281  O303    1.956   .     S
Cu281  O307    1.960   .     S
Cu282  O310    1.959   .     S
Cu282  N302    2.015   .     S
Cu282  O306    1.960   .     S
Cu282  O305    1.956   .     S
Cu282  O309    1.956   .     S
H283   C172    1.087   1_655 S
H288   C739    1.111   .     S
H290   C1209   1.111   1_554 S
C313   C316    1.445   .     S
C313   O355    1.292   .     A
C313   O358    1.289   .     A
C314   H347    1.085   .     S
C314   C316    1.399   .     A
C315   C331    1.411   .     A
C315   C332    1.399   .     A
C315   C324    1.445   .     S
C316   C330    1.411   .     A
C317   N354    1.372   .     A
C317   O364    1.388   .     S
C317   C1255   1.430   1_554 S
C318   O356    1.388   .     S
C318   N353    1.372   .     A
C318   C788    1.430   .     S
C319   H348    1.081   .     S
C319   N353    1.364   .     A
C319   C785    1.430   .     S
C320   H349    1.081   .     S
C320   N354    1.364   .     A
C320   C1254   1.430   1_554 S
C321   C330    1.510   .     S
C321   H351    1.111   .     S
C321   H350    1.111   .     S
C321   H352    1.109   .     S
C322   C331    1.510   .     S
C322   H338    1.111   .     S
C322   H337    1.109   .     S
C322   H336    1.111   .     S
C323   O364    1.412   .     S
C323   H339    1.114   .     S
C323   H341    1.110   .     S
C323   H1276   1.111   1_554 S
C324   O359    1.289   .     A
C324   O357    1.292   .     A
C325   H344    1.109   .     S
C325   O356    1.412   .     S
C325   H343    1.114   .     S
C325   H810    1.111   .     S
C326   C328    1.435   .     S
C326   O362    1.290   .     A
C326   O360    1.286   .     A
C327   O363    1.290   .     A
C327   O361    1.286   .     A
C327   C329    1.435   .     S
C328   C433    1.336   1_455 S
C328   H439    1.087   1_455 S
C329   C380    1.336   .     S
C329   H397    1.087   .     S
C331   C2      1.390   1_565 S
C332   H346    1.085   .     S
C332   C18     1.390   1_565 S
Cu333  O360    1.956   .     S
Cu333  Cu334   2.681   .     S
Cu333  N353    2.015   .     S
Cu333  O363    1.959   .     S
Cu333  O355    1.956   .     S
Cu333  O359    1.960   .     S
Cu334  O362    1.959   .     S
Cu334  N354    2.015   .     S
Cu334  O358    1.960   .     S
Cu334  O357    1.956   .     S
Cu334  O361    1.956   .     S
H335   C380    1.087   .     S
H340   C791    1.111   .     S
H342   C1261   1.111   1_554 S
H345   C433    1.087   1_455 S
C365   C368    1.445   .     S
C365   O407    1.292   .     A
C365   O410    1.289   .     A
C366   H399    1.085   .     S
C366   C368    1.399   .     A
C367   C383    1.411   .     A
C367   C384    1.399   .     A
C367   C376    1.445   .     S
C368   C382    1.411   .     A
C369   N406    1.372   .     A
C369   O416    1.388   .     S
C369   C1307   1.430   1_554 S
C370   O408    1.388   .     S
C370   N405    1.372   .     A
C370   C840    1.430   .     S
C371   H400    1.081   .     S
C371   N405    1.364   .     A
C371   C837    1.430   .     S
C372   H401    1.081   .     S
C372   N406    1.364   .     A
C372   C1306   1.430   1_554 S
C373   C382    1.510   .     S
C373   H403    1.111   .     S
C373   H402    1.111   .     S
C373   H404    1.109   .     S
C374   C383    1.510   .     S
C374   H390    1.111   .     S
C374   H389    1.109   .     S
C374   H388    1.111   .     S
C375   O416    1.412   .     S
C375   H391    1.114   .     S
C375   H393    1.110   .     S
C375   H1328   1.111   1_554 S
C376   O411    1.289   .     A
C376   O409    1.292   .     A
C377   H396    1.109   .     S
C377   O408    1.412   .     S
C377   H395    1.114   .     S
C377   H862    1.111   .     S
C378   C380    1.435   .     S
C378   O414    1.290   .     A
C378   O412    1.286   .     A
C379   O415    1.290   .     A
C379   O413    1.286   .     A
C379   C381    1.435   .     S
C381   C432    1.336   .     S
C381   H449    1.087   .     S
C383   C54     1.390   1_565 S
C384   H398    1.085   .     S
C384   C70     1.390   1_565 S
Cu385  O412    1.956   .     S
Cu385  Cu386   2.681   .     S
Cu385  N405    2.015   .     S
Cu385  O415    1.959   .     S
Cu385  O407    1.956   .     S
Cu385  O411    1.960   .     S
Cu386  O414    1.959   .     S
Cu386  N406    2.015   .     S
Cu386  O410    1.960   .     S
Cu386  O409    1.956   .     S
Cu386  O413    1.956   .     S
H387   C432    1.087   .     S
H392   C843    1.111   .     S
H394   C1313   1.111   1_554 S
C417   C420    1.445   .     S
C417   O459    1.292   .     A
C417   O462    1.289   .     A
C418   H451    1.085   .     S
C418   C420    1.399   .     A
C419   C435    1.411   .     A
C419   C436    1.399   .     A
C419   C428    1.445   .     S
C420   C434    1.411   .     A
C421   N458    1.372   .     A
C421   O468    1.388   .     S
C421   C1359   1.430   1_554 S
C422   O460    1.388   .     S
C422   N457    1.372   .     A
C422   C892    1.430   .     S
C423   H452    1.081   .     S
C423   N457    1.364   .     A
C423   C889    1.430   .     S
C424   H453    1.081   .     S
C424   N458    1.364   .     A
C424   C1358   1.430   1_554 S
C425   C434    1.510   .     S
C425   H455    1.111   .     S
C425   H454    1.111   .     S
C425   H456    1.109   .     S
C426   C435    1.510   .     S
C426   H442    1.111   .     S
C426   H441    1.109   .     S
C426   H440    1.111   .     S
C427   O468    1.412   .     S
C427   H443    1.114   .     S
C427   H445    1.110   .     S
C427   H1380   1.111   1_554 S
C428   O463    1.289   .     A
C428   O461    1.292   .     A
C429   H448    1.109   .     S
C429   O460    1.412   .     S
C429   H447    1.114   .     S
C429   H914    1.111   .     S
C430   C432    1.435   .     S
C430   O466    1.290   .     A
C430   O464    1.286   .     A
C431   O467    1.290   .     A
C431   O465    1.286   .     A
C431   C433    1.435   .     S
C433   C328    1.336   1_655 S
C433   H345    1.087   1_655 S
C435   C106    1.390   1_565 S
C436   H450    1.085   .     S
C436   C122    1.390   1_565 S
Cu437  O464    1.956   .     S
Cu437  Cu438   2.681   .     S
Cu437  N457    2.015   .     S
Cu437  O467    1.959   .     S
Cu437  O459    1.956   .     S
Cu437  O463    1.960   .     S
Cu438  O466    1.959   .     S
Cu438  N458    2.015   .     S
Cu438  O462    1.960   .     S
Cu438  O461    1.956   .     S
Cu438  O465    1.956   .     S
H439   C328    1.087   1_655 S
H444   C895    1.111   .     S
H446   C1365   1.111   1_554 S
C469   C472    1.445   .     S
C469   O511    1.292   .     A
C469   O514    1.289   .     A
C470   H503    1.085   .     S
C470   C472    1.399   .     A
C470   C799    1.390   1_545 S
C471   C487    1.411   .     A
C471   C488    1.399   .     A
C471   C480    1.445   .     S
C472   C486    1.411   .     A
C473   N510    1.372   .     A
C473   O520    1.388   .     S
C474   O512    1.388   .     S
C474   N509    1.372   .     A
C474   C944    1.430   .     S
C475   H504    1.081   .     S
C475   N509    1.364   .     A
C475   C941    1.430   .     S
C476   H505    1.081   .     S
C476   N510    1.364   .     A
C477   C486    1.510   .     S
C477   H507    1.111   .     S
C477   H506    1.111   .     S
C477   H508    1.109   .     S
C478   C487    1.510   .     S
C478   H494    1.111   .     S
C478   H493    1.109   .     S
C478   H492    1.111   .     S
C479   O520    1.412   .     S
C479   H495    1.114   .     S
C479   H497    1.110   .     S
C480   O515    1.289   .     A
C480   O513    1.292   .     A
C481   H500    1.109   .     S
C481   O512    1.412   .     S
C481   H499    1.114   .     S
C481   H966    1.111   .     S
C482   C484    1.435   .     S
C482   O518    1.290   .     A
C482   O516    1.286   .     A
C483   O519    1.290   .     A
C483   O517    1.286   .     A
C483   C485    1.435   .     S
C484   C589    1.336   1_455 S
C484   H595    1.087   1_455 S
C485   C536    1.336   .     S
C485   H553    1.087   .     S
C486   C800    1.390   1_545 S
C487   C626    1.390   .     S
C488   H502    1.085   .     S
C488   C642    1.390   .     S
Cu489  O516    1.956   .     S
Cu489  Cu490   2.681   .     S
Cu489  N509    2.015   .     S
Cu489  O519    1.959   .     S
Cu489  O511    1.956   .     S
Cu489  O515    1.960   .     S
Cu490  O518    1.959   .     S
Cu490  N510    2.015   .     S
Cu490  O514    1.960   .     S
Cu490  O513    1.956   .     S
Cu490  O517    1.956   .     S
H491   C536    1.087   .     S
H496   C947    1.111   .     S
H501   C589    1.087   1_455 S
C521   C524    1.445   .     S
C521   O563    1.292   .     A
C521   O566    1.289   .     A
C522   H555    1.085   .     S
C522   C524    1.399   .     A
C522   C851    1.390   1_545 S
C523   C539    1.411   .     A
C523   C540    1.399   .     A
C523   C532    1.445   .     S
C524   C538    1.411   .     A
C525   N562    1.372   .     A
C525   O572    1.388   .     S
C526   O564    1.388   .     S
C526   N561    1.372   .     A
C526   C996    1.430   .     S
C527   H556    1.081   .     S
C527   N561    1.364   .     A
C527   C993    1.430   .     S
C528   H557    1.081   .     S
C528   N562    1.364   .     A
C529   C538    1.510   .     S
C529   H559    1.111   .     S
C529   H558    1.111   .     S
C529   H560    1.109   .     S
C530   C539    1.510   .     S
C530   H546    1.111   .     S
C530   H545    1.109   .     S
C530   H544    1.111   .     S
C531   O572    1.412   .     S
C531   H547    1.114   .     S
C531   H549    1.110   .     S
C532   O567    1.289   .     A
C532   O565    1.292   .     A
C533   H552    1.109   .     S
C533   O564    1.412   .     S
C533   H551    1.114   .     S
C533   H1018   1.111   .     S
C534   C536    1.435   .     S
C534   O570    1.290   .     A
C534   O568    1.286   .     A
C535   O571    1.290   .     A
C535   O569    1.286   .     A
C535   C537    1.435   .     S
C537   C588    1.336   .     S
C537   H605    1.087   .     S
C538   C852    1.390   1_545 S
C539   C678    1.390   .     S
C540   H554    1.085   .     S
C540   C694    1.390   .     S
Cu541  O568    1.956   .     S
Cu541  Cu542   2.681   .     S
Cu541  N561    2.015   .     S
Cu541  O571    1.959   .     S
Cu541  O563    1.956   .     S
Cu541  O567    1.960   .     S
Cu542  O570    1.959   .     S
Cu542  N562    2.015   .     S
Cu542  O566    1.960   .     S
Cu542  O565    1.956   .     S
Cu542  O569    1.956   .     S
H543   C588    1.087   .     S
H548   C999    1.111   .     S
C573   C576    1.445   .     S
C573   O615    1.292   .     A
C573   O618    1.289   .     A
C574   H607    1.085   .     S
C574   C576    1.399   .     A
C574   C903    1.390   1_545 S
C575   C591    1.411   .     A
C575   C592    1.399   .     A
C575   C584    1.445   .     S
C576   C590    1.411   .     A
C577   N614    1.372   .     A
C577   O624    1.388   .     S
C578   O616    1.388   .     S
C578   N613    1.372   .     A
C578   C1048   1.430   .     S
C579   H608    1.081   .     S
C579   N613    1.364   .     A
C579   C1045   1.430   .     S
C580   H609    1.081   .     S
C580   N614    1.364   .     A
C581   C590    1.510   .     S
C581   H611    1.111   .     S
C581   H610    1.111   .     S
C581   H612    1.109   .     S
C582   C591    1.510   .     S
C582   H598    1.111   .     S
C582   H597    1.109   .     S
C582   H596    1.111   .     S
C583   O624    1.412   .     S
C583   H599    1.114   .     S
C583   H601    1.110   .     S
C584   O619    1.289   .     A
C584   O617    1.292   .     A
C585   H604    1.109   .     S
C585   O616    1.412   .     S
C585   H603    1.114   .     S
C585   H1070   1.111   .     S
C586   C588    1.435   .     S
C586   O622    1.290   .     A
C586   O620    1.286   .     A
C587   O623    1.290   .     A
C587   O621    1.286   .     A
C587   C589    1.435   .     S
C589   C484    1.336   1_655 S
C589   H501    1.087   1_655 S
C590   C904    1.390   1_545 S
C591   C730    1.390   .     S
C592   H606    1.085   .     S
C592   C746    1.390   .     S
Cu593  O620    1.956   .     S
Cu593  Cu594   2.681   .     S
Cu593  N613    2.015   .     S
Cu593  O623    1.959   .     S
Cu593  O615    1.956   .     S
Cu593  O619    1.960   .     S
Cu594  O622    1.959   .     S
Cu594  N614    2.015   .     S
Cu594  O618    1.960   .     S
Cu594  O617    1.956   .     S
Cu594  O621    1.956   .     S
H595   C484    1.087   1_655 S
H600   C1051   1.111   .     S
C625   C628    1.445   .     S
C625   O667    1.292   .     A
C625   O670    1.289   .     A
C626   H659    1.085   .     S
C626   C628    1.399   .     A
C627   C643    1.411   .     A
C627   C644    1.399   .     A
C627   C636    1.445   .     S
C628   C642    1.411   .     A
C629   N666    1.372   .     A
C629   O676    1.388   .     S
C630   O668    1.388   .     S
C630   N665    1.372   .     A
C630   C1100   1.430   .     S
C631   H660    1.081   .     S
C631   N665    1.364   .     A
C631   C1097   1.430   .     S
C632   H661    1.081   .     S
C632   N666    1.364   .     A
C633   C642    1.510   .     S
C633   H663    1.111   .     S
C633   H662    1.111   .     S
C633   H664    1.109   .     S
C634   C643    1.510   .     S
C634   H650    1.111   .     S
C634   H649    1.109   .     S
C634   H648    1.111   .     S
C635   O676    1.412   .     S
C635   H651    1.114   .     S
C635   H653    1.110   .     S
C636   O671    1.289   .     A
C636   O669    1.292   .     A
C637   H656    1.109   .     S
C637   O668    1.412   .     S
C637   H655    1.114   .     S
C637   H1122   1.111   .     S
C638   C640    1.435   .     S
C638   O674    1.290   .     A
C638   O672    1.286   .     A
C639   O675    1.290   .     A
C639   O673    1.286   .     A
C639   C641    1.435   .     S
C640   C745    1.336   1_455 S
C640   H751    1.087   1_455 S
C641   C692    1.336   .     S
C641   H709    1.087   .     S
C643   C782    1.390   .     S
C644   H658    1.085   .     S
C644   C798    1.390   .     S
Cu645  O672    1.956   .     S
Cu645  Cu646   2.681   .     S
Cu645  N665    2.015   .     S
Cu645  O675    1.959   .     S
Cu645  O667    1.956   .     S
Cu645  O671    1.960   .     S
Cu646  O674    1.959   .     S
Cu646  N666    2.015   .     S
Cu646  O670    1.960   .     S
Cu646  O669    1.956   .     S
Cu646  O673    1.956   .     S
H647   C692    1.087   .     S
H652   C1103   1.111   .     S
H657   C745    1.087   1_455 S
C677   C680    1.445   .     S
C677   O719    1.292   .     A
C677   O722    1.289   .     A
C678   H711    1.085   .     S
C678   C680    1.399   .     A
C679   C695    1.411   .     A
C679   C696    1.399   .     A
C679   C688    1.445   .     S
C680   C694    1.411   .     A
C681   N718    1.372   .     A
C681   O728    1.388   .     S
C682   O720    1.388   .     S
C682   N717    1.372   .     A
C682   C1152   1.430   .     S
C683   H712    1.081   .     S
C683   N717    1.364   .     A
C683   C1149   1.430   .     S
C684   H713    1.081   .     S
C684   N718    1.364   .     A
C685   C694    1.510   .     S
C685   H715    1.111   .     S
C685   H714    1.111   .     S
C685   H716    1.109   .     S
C686   C695    1.510   .     S
C686   H702    1.111   .     S
C686   H701    1.109   .     S
C686   H700    1.111   .     S
C687   O728    1.412   .     S
C687   H703    1.114   .     S
C687   H705    1.110   .     S
C688   O723    1.289   .     A
C688   O721    1.292   .     A
C689   H708    1.109   .     S
C689   O720    1.412   .     S
C689   H707    1.114   .     S
C689   H1174   1.111   .     S
C690   C692    1.435   .     S
C690   O726    1.290   .     A
C690   O724    1.286   .     A
C691   O727    1.290   .     A
C691   O725    1.286   .     A
C691   C693    1.435   .     S
C693   C744    1.336   .     S
C693   H761    1.087   .     S
C695   C834    1.390   .     S
C696   H710    1.085   .     S
C696   C850    1.390   .     S
Cu697  O724    1.956   .     S
Cu697  Cu698   2.681   .     S
Cu697  N717    2.015   .     S
Cu697  O727    1.959   .     S
Cu697  O719    1.956   .     S
Cu697  O723    1.960   .     S
Cu698  O726    1.959   .     S
Cu698  N718    2.015   .     S
Cu698  O722    1.960   .     S
Cu698  O721    1.956   .     S
Cu698  O725    1.956   .     S
H699   C744    1.087   .     S
H704   C1155   1.111   .     S
C729   C732    1.445   .     S
C729   O771    1.292   .     A
C729   O774    1.289   .     A
C730   H763    1.085   .     S
C730   C732    1.399   .     A
C731   C747    1.411   .     A
C731   C748    1.399   .     A
C731   C740    1.445   .     S
C732   C746    1.411   .     A
C733   N770    1.372   .     A
C733   O780    1.388   .     S
C734   O772    1.388   .     S
C734   N769    1.372   .     A
C734   C1204   1.430   .     S
C735   H764    1.081   .     S
C735   N769    1.364   .     A
C735   C1201   1.430   .     S
C736   H765    1.081   .     S
C736   N770    1.364   .     A
C737   C746    1.510   .     S
C737   H767    1.111   .     S
C737   H766    1.111   .     S
C737   H768    1.109   .     S
C738   C747    1.510   .     S
C738   H754    1.111   .     S
C738   H753    1.109   .     S
C738   H752    1.111   .     S
C739   O780    1.412   .     S
C739   H755    1.114   .     S
C739   H757    1.110   .     S
C740   O775    1.289   .     A
C740   O773    1.292   .     A
C741   H760    1.109   .     S
C741   O772    1.412   .     S
C741   H759    1.114   .     S
C741   H1226   1.111   .     S
C742   C744    1.435   .     S
C742   O778    1.290   .     A
C742   O776    1.286   .     A
C743   O779    1.290   .     A
C743   O777    1.286   .     A
C743   C745    1.435   .     S
C745   C640    1.336   1_655 S
C745   H657    1.087   1_655 S
C747   C886    1.390   .     S
C748   H762    1.085   .     S
C748   C902    1.390   .     S
Cu749  O776    1.956   .     S
Cu749  Cu750   2.681   .     S
Cu749  N769    2.015   .     S
Cu749  O779    1.959   .     S
Cu749  O771    1.956   .     S
Cu749  O775    1.960   .     S
Cu750  O778    1.959   .     S
Cu750  N770    2.015   .     S
Cu750  O774    1.960   .     S
Cu750  O773    1.956   .     S
Cu750  O777    1.956   .     S
H751   C640    1.087   1_655 S
H756   C1207   1.111   .     S
C781   C784    1.445   .     S
C781   O823    1.292   .     A
C781   O826    1.289   .     A
C782   H815    1.085   .     S
C782   C784    1.399   .     A
C783   C799    1.411   .     A
C783   C800    1.399   .     A
C783   C792    1.445   .     S
C784   C798    1.411   .     A
C785   N822    1.372   .     A
C785   O832    1.388   .     S
C786   O824    1.388   .     S
C786   N821    1.372   .     A
C786   C1256   1.430   .     S
C787   H816    1.081   .     S
C787   N821    1.364   .     A
C787   C1253   1.430   .     S
C788   H817    1.081   .     S
C788   N822    1.364   .     A
C789   C798    1.510   .     S
C789   H819    1.111   .     S
C789   H818    1.111   .     S
C789   H820    1.109   .     S
C790   C799    1.510   .     S
C790   H806    1.111   .     S
C790   H805    1.109   .     S
C790   H804    1.111   .     S
C791   O832    1.412   .     S
C791   H807    1.114   .     S
C791   H809    1.110   .     S
C792   O827    1.289   .     A
C792   O825    1.292   .     A
C793   H812    1.109   .     S
C793   O824    1.412   .     S
C793   H811    1.114   .     S
C793   H1278   1.111   .     S
C794   C796    1.435   .     S
C794   O830    1.290   .     A
C794   O828    1.286   .     A
C795   O831    1.290   .     A
C795   O829    1.286   .     A
C795   C797    1.435   .     S
C796   C901    1.336   1_455 S
C796   H907    1.087   1_455 S
C797   C848    1.336   .     S
C797   H865    1.087   .     S
C799   C470    1.390   1_565 S
C800   H814    1.085   .     S
C800   C486    1.390   1_565 S
Cu801  O828    1.956   .     S
Cu801  Cu802   2.681   .     S
Cu801  N821    2.015   .     S
Cu801  O831    1.959   .     S
Cu801  O823    1.956   .     S
Cu801  O827    1.960   .     S
Cu802  O830    1.959   .     S
Cu802  N822    2.015   .     S
Cu802  O826    1.960   .     S
Cu802  O825    1.956   .     S
Cu802  O829    1.956   .     S
H803   C848    1.087   .     S
H808   C1259   1.111   .     S
H813   C901    1.087   1_455 S
C833   C836    1.445   .     S
C833   O875    1.292   .     A
C833   O878    1.289   .     A
C834   H867    1.085   .     S
C834   C836    1.399   .     A
C835   C851    1.411   .     A
C835   C852    1.399   .     A
C835   C844    1.445   .     S
C836   C850    1.411   .     A
C837   N874    1.372   .     A
C837   O884    1.388   .     S
C838   O876    1.388   .     S
C838   N873    1.372   .     A
C838   C1308   1.430   .     S
C839   H868    1.081   .     S
C839   N873    1.364   .     A
C839   C1305   1.430   .     S
C840   H869    1.081   .     S
C840   N874    1.364   .     A
C841   C850    1.510   .     S
C841   H871    1.111   .     S
C841   H870    1.111   .     S
C841   H872    1.109   .     S
C842   C851    1.510   .     S
C842   H858    1.111   .     S
C842   H857    1.109   .     S
C842   H856    1.111   .     S
C843   O884    1.412   .     S
C843   H859    1.114   .     S
C843   H861    1.110   .     S
C844   O879    1.289   .     A
C844   O877    1.292   .     A
C845   H864    1.109   .     S
C845   O876    1.412   .     S
C845   H863    1.114   .     S
C845   H1330   1.111   .     S
C846   C848    1.435   .     S
C846   O882    1.290   .     A
C846   O880    1.286   .     A
C847   O883    1.290   .     A
C847   O881    1.286   .     A
C847   C849    1.435   .     S
C849   C900    1.336   .     S
C849   H917    1.087   .     S
C851   C522    1.390   1_565 S
C852   H866    1.085   .     S
C852   C538    1.390   1_565 S
Cu853  O880    1.956   .     S
Cu853  Cu854   2.681   .     S
Cu853  N873    2.015   .     S
Cu853  O883    1.959   .     S
Cu853  O875    1.956   .     S
Cu853  O879    1.960   .     S
Cu854  O882    1.959   .     S
Cu854  N874    2.015   .     S
Cu854  O878    1.960   .     S
Cu854  O877    1.956   .     S
Cu854  O881    1.956   .     S
H855   C900    1.087   .     S
H860   C1311   1.111   .     S
C885   C888    1.445   .     S
C885   O927    1.292   .     A
C885   O930    1.289   .     A
C886   H919    1.085   .     S
C886   C888    1.399   .     A
C887   C903    1.411   .     A
C887   C904    1.399   .     A
C887   C896    1.445   .     S
C888   C902    1.411   .     A
C889   N926    1.372   .     A
C889   O936    1.388   .     S
C890   O928    1.388   .     S
C890   N925    1.372   .     A
C890   C1360   1.430   .     S
C891   H920    1.081   .     S
C891   N925    1.364   .     A
C891   C1357   1.430   .     S
C892   H921    1.081   .     S
C892   N926    1.364   .     A
C893   C902    1.510   .     S
C893   H923    1.111   .     S
C893   H922    1.111   .     S
C893   H924    1.109   .     S
C894   C903    1.510   .     S
C894   H910    1.111   .     S
C894   H909    1.109   .     S
C894   H908    1.111   .     S
C895   O936    1.412   .     S
C895   H911    1.114   .     S
C895   H913    1.110   .     S
C896   O931    1.289   .     A
C896   O929    1.292   .     A
C897   H916    1.109   .     S
C897   O928    1.412   .     S
C897   H915    1.114   .     S
C897   H1382   1.111   .     S
C898   C900    1.435   .     S
C898   O934    1.290   .     A
C898   O932    1.286   .     A
C899   O935    1.290   .     A
C899   O933    1.286   .     A
C899   C901    1.435   .     S
C901   C796    1.336   1_655 S
C901   H813    1.087   1_655 S
C903   C574    1.390   1_565 S
C904   H918    1.085   .     S
C904   C590    1.390   1_565 S
Cu905  O932    1.956   .     S
Cu905  Cu906   2.681   .     S
Cu905  N925    2.015   .     S
Cu905  O935    1.959   .     S
Cu905  O927    1.956   .     S
Cu905  O931    1.960   .     S
Cu906  O934    1.959   .     S
Cu906  N926    2.015   .     S
Cu906  O930    1.960   .     S
Cu906  O929    1.956   .     S
Cu906  O933    1.956   .     S
H907   C796    1.087   1_655 S
H912   C1363   1.111   .     S
C937   C940    1.445   .     S
C937   O979    1.292   .     A
C937   O982    1.289   .     A
C938   H971    1.085   .     S
C938   C940    1.399   .     A
C938   C1267   1.390   1_545 S
C939   C955    1.411   .     A
C939   C956    1.399   .     A
C939   C948    1.445   .     S
C940   C954    1.411   .     A
C941   N978    1.372   .     A
C941   O988    1.388   .     S
C942   O980    1.388   .     S
C942   N977    1.372   .     A
C942   C8      1.430   1_556 S
C943   H972    1.081   .     S
C943   N977    1.364   .     A
C943   C5      1.430   1_556 S
C944   H973    1.081   .     S
C944   N978    1.364   .     A
C945   C954    1.510   .     S
C945   H975    1.111   .     S
C945   H974    1.111   .     S
C945   H976    1.109   .     S
C946   C955    1.510   .     S
C946   H962    1.111   .     S
C946   H961    1.109   .     S
C946   H960    1.111   .     S
C947   O988    1.412   .     S
C947   H963    1.114   .     S
C947   H965    1.110   .     S
C948   O983    1.289   .     A
C948   O981    1.292   .     A
C949   H968    1.109   .     S
C949   O980    1.412   .     S
C949   H967    1.114   .     S
C949   H30     1.111   1_556 S
C950   C952    1.435   .     S
C950   O986    1.290   .     A
C950   O984    1.286   .     A
C951   O987    1.290   .     A
C951   O985    1.286   .     A
C951   C953    1.435   .     S
C952   C1057   1.336   1_455 S
C952   H1063   1.087   1_455 S
C953   C1004   1.336   .     S
C953   H1021   1.087   .     S
C954   C1268   1.390   1_545 S
C955   C1094   1.390   .     S
C956   H970    1.085   .     S
C956   C1110   1.390   .     S
Cu957  O984    1.956   .     S
Cu957  Cu958   2.681   .     S
Cu957  N977    2.015   .     S
Cu957  O987    1.959   .     S
Cu957  O979    1.956   .     S
Cu957  O983    1.960   .     S
Cu958  O986    1.959   .     S
Cu958  N978    2.015   .     S
Cu958  O982    1.960   .     S
Cu958  O981    1.956   .     S
Cu958  O985    1.956   .     S
H959   C1004   1.087   .     S
H964   C11     1.111   1_556 S
H969   C1057   1.087   1_455 S
C989   C992    1.445   .     S
C989   O1031   1.292   .     A
C989   O1034   1.289   .     A
C990   H1023   1.085   .     S
C990   C992    1.399   .     A
C990   C1319   1.390   1_545 S
C991   C1007   1.411   .     A
C991   C1008   1.399   .     A
C991   C1000   1.445   .     S
C992   C1006   1.411   .     A
C993   N1030   1.372   .     A
C993   O1040   1.388   .     S
C994   O1032   1.388   .     S
C994   N1029   1.372   .     A
C994   C60     1.430   1_556 S
C995   H1024   1.081   .     S
C995   N1029   1.364   .     A
C995   C57     1.430   1_556 S
C996   H1025   1.081   .     S
C996   N1030   1.364   .     A
C997   C1006   1.510   .     S
C997   H1027   1.111   .     S
C997   H1026   1.111   .     S
C997   H1028   1.109   .     S
C998   C1007   1.510   .     S
C998   H1014   1.111   .     S
C998   H1013   1.109   .     S
C998   H1012   1.111   .     S
C999   O1040   1.412   .     S
C999   H1015   1.114   .     S
C999   H1017   1.110   .     S
C1000  O1035   1.289   .     A
C1000  O1033   1.292   .     A
C1001  H1020   1.109   .     S
C1001  O1032   1.412   .     S
C1001  H1019   1.114   .     S
C1001  H82     1.111   1_556 S
C1002  C1004   1.435   .     S
C1002  O1038   1.290   .     A
C1002  O1036   1.286   .     A
C1003  O1039   1.290   .     A
C1003  O1037   1.286   .     A
C1003  C1005   1.435   .     S
C1005  C1056   1.336   .     S
C1005  H1073   1.087   .     S
C1006  C1320   1.390   1_545 S
C1007  C1146   1.390   .     S
C1008  H1022   1.085   .     S
C1008  C1162   1.390   .     S
Cu1009 O1036   1.956   .     S
Cu1009 Cu1010  2.681   .     S
Cu1009 N1029   2.015   .     S
Cu1009 O1039   1.959   .     S
Cu1009 O1031   1.956   .     S
Cu1009 O1035   1.960   .     S
Cu1010 O1038   1.959   .     S
Cu1010 N1030   2.015   .     S
Cu1010 O1034   1.960   .     S
Cu1010 O1033   1.956   .     S
Cu1010 O1037   1.956   .     S
H1011  C1056   1.087   .     S
H1016  C63     1.111   1_556 S
C1041  C1044   1.445   .     S
C1041  O1083   1.292   .     A
C1041  O1086   1.289   .     A
C1042  H1075   1.085   .     S
C1042  C1044   1.399   .     A
C1042  C1371   1.390   1_545 S
C1043  C1059   1.411   .     A
C1043  C1060   1.399   .     A
C1043  C1052   1.445   .     S
C1044  C1058   1.411   .     A
C1045  N1082   1.372   .     A
C1045  O1092   1.388   .     S
C1046  O1084   1.388   .     S
C1046  N1081   1.372   .     A
C1046  C112    1.430   1_556 S
C1047  H1076   1.081   .     S
C1047  N1081   1.364   .     A
C1047  C109    1.430   1_556 S
C1048  H1077   1.081   .     S
C1048  N1082   1.364   .     A
C1049  C1058   1.510   .     S
C1049  H1079   1.111   .     S
C1049  H1078   1.111   .     S
C1049  H1080   1.109   .     S
C1050  C1059   1.510   .     S
C1050  H1066   1.111   .     S
C1050  H1065   1.109   .     S
C1050  H1064   1.111   .     S
C1051  O1092   1.412   .     S
C1051  H1067   1.114   .     S
C1051  H1069   1.110   .     S
C1052  O1087   1.289   .     A
C1052  O1085   1.292   .     A
C1053  H1072   1.109   .     S
C1053  O1084   1.412   .     S
C1053  H1071   1.114   .     S
C1053  H134    1.111   1_556 S
C1054  C1056   1.435   .     S
C1054  O1090   1.290   .     A
C1054  O1088   1.286   .     A
C1055  O1091   1.290   .     A
C1055  O1089   1.286   .     A
C1055  C1057   1.435   .     S
C1057  C952    1.336   1_655 S
C1057  H969    1.087   1_655 S
C1058  C1372   1.390   1_545 S
C1059  C1198   1.390   .     S
C1060  H1074   1.085   .     S
C1060  C1214   1.390   .     S
Cu1061 O1088   1.956   .     S
Cu1061 Cu1062  2.681   .     S
Cu1061 N1081   2.015   .     S
Cu1061 O1091   1.959   .     S
Cu1061 O1083   1.956   .     S
Cu1061 O1087   1.960   .     S
Cu1062 O1090   1.959   .     S
Cu1062 N1082   2.015   .     S
Cu1062 O1086   1.960   .     S
Cu1062 O1085   1.956   .     S
Cu1062 O1089   1.956   .     S
H1063  C952    1.087   1_655 S
H1068  C115    1.111   1_556 S
C1093  C1096   1.445   .     S
C1093  O1135   1.292   .     A
C1093  O1138   1.289   .     A
C1094  H1127   1.085   .     S
C1094  C1096   1.399   .     A
C1095  C1111   1.411   .     A
C1095  C1112   1.399   .     A
C1095  C1104   1.445   .     S
C1096  C1110   1.411   .     A
C1097  N1134   1.372   .     A
C1097  O1144   1.388   .     S
C1098  O1136   1.388   .     S
C1098  N1133   1.372   .     A
C1098  C164    1.430   1_556 S
C1099  H1128   1.081   .     S
C1099  N1133   1.364   .     A
C1099  C161    1.430   1_556 S
C1100  H1129   1.081   .     S
C1100  N1134   1.364   .     A
C1101  C1110   1.510   .     S
C1101  H1131   1.111   .     S
C1101  H1130   1.111   .     S
C1101  H1132   1.109   .     S
C1102  C1111   1.510   .     S
C1102  H1118   1.111   .     S
C1102  H1117   1.109   .     S
C1102  H1116   1.111   .     S
C1103  O1144   1.412   .     S
C1103  H1119   1.114   .     S
C1103  H1121   1.110   .     S
C1104  O1139   1.289   .     A
C1104  O1137   1.292   .     A
C1105  H1124   1.109   .     S
C1105  O1136   1.412   .     S
C1105  H1123   1.114   .     S
C1105  H186    1.111   1_556 S
C1106  C1108   1.435   .     S
C1106  O1142   1.290   .     A
C1106  O1140   1.286   .     A
C1107  O1143   1.290   .     A
C1107  O1141   1.286   .     A
C1107  C1109   1.435   .     S
C1108  C1213   1.336   1_455 S
C1108  H1219   1.087   1_455 S
C1109  C1160   1.336   .     S
C1109  H1177   1.087   .     S
C1111  C1250   1.390   .     S
C1112  H1126   1.085   .     S
C1112  C1266   1.390   .     S
Cu1113 O1140   1.956   .     S
Cu1113 Cu1114  2.681   .     S
Cu1113 N1133   2.015   .     S
Cu1113 O1143   1.959   .     S
Cu1113 O1135   1.956   .     S
Cu1113 O1139   1.960   .     S
Cu1114 O1142   1.959   .     S
Cu1114 N1134   2.015   .     S
Cu1114 O1138   1.960   .     S
Cu1114 O1137   1.956   .     S
Cu1114 O1141   1.956   .     S
H1115  C1160   1.087   .     S
H1120  C167    1.111   1_556 S
H1125  C1213   1.087   1_455 S
C1145  C1148   1.445   .     S
C1145  O1187   1.292   .     A
C1145  O1190   1.289   .     A
C1146  H1179   1.085   .     S
C1146  C1148   1.399   .     A
C1147  C1163   1.411   .     A
C1147  C1164   1.399   .     A
C1147  C1156   1.445   .     S
C1148  C1162   1.411   .     A
C1149  N1186   1.372   .     A
C1149  O1196   1.388   .     S
C1150  O1188   1.388   .     S
C1150  N1185   1.372   .     A
C1150  C216    1.430   1_556 S
C1151  H1180   1.081   .     S
C1151  N1185   1.364   .     A
C1151  C213    1.430   1_556 S
C1152  H1181   1.081   .     S
C1152  N1186   1.364   .     A
C1153  C1162   1.510   .     S
C1153  H1183   1.111   .     S
C1153  H1182   1.111   .     S
C1153  H1184   1.109   .     S
C1154  C1163   1.510   .     S
C1154  H1170   1.111   .     S
C1154  H1169   1.109   .     S
C1154  H1168   1.111   .     S
C1155  O1196   1.412   .     S
C1155  H1171   1.114   .     S
C1155  H1173   1.110   .     S
C1156  O1191   1.289   .     A
C1156  O1189   1.292   .     A
C1157  H1176   1.109   .     S
C1157  O1188   1.412   .     S
C1157  H1175   1.114   .     S
C1157  H238    1.111   1_556 S
C1158  C1160   1.435   .     S
C1158  O1194   1.290   .     A
C1158  O1192   1.286   .     A
C1159  O1195   1.290   .     A
C1159  O1193   1.286   .     A
C1159  C1161   1.435   .     S
C1161  C1212   1.336   .     S
C1161  H1229   1.087   .     S
C1163  C1302   1.390   .     S
C1164  H1178   1.085   .     S
C1164  C1318   1.390   .     S
Cu1165 O1192   1.956   .     S
Cu1165 Cu1166  2.681   .     S
Cu1165 N1185   2.015   .     S
Cu1165 O1195   1.959   .     S
Cu1165 O1187   1.956   .     S
Cu1165 O1191   1.960   .     S
Cu1166 O1194   1.959   .     S
Cu1166 N1186   2.015   .     S
Cu1166 O1190   1.960   .     S
Cu1166 O1189   1.956   .     S
Cu1166 O1193   1.956   .     S
H1167  C1212   1.087   .     S
H1172  C219    1.111   1_556 S
C1197  C1200   1.445   .     S
C1197  O1239   1.292   .     A
C1197  O1242   1.289   .     A
C1198  H1231   1.085   .     S
C1198  C1200   1.399   .     A
C1199  C1215   1.411   .     A
C1199  C1216   1.399   .     A
C1199  C1208   1.445   .     S
C1200  C1214   1.411   .     A
C1201  N1238   1.372   .     A
C1201  O1248   1.388   .     S
C1202  O1240   1.388   .     S
C1202  N1237   1.372   .     A
C1202  C268    1.430   1_556 S
C1203  H1232   1.081   .     S
C1203  N1237   1.364   .     A
C1203  C265    1.430   1_556 S
C1204  H1233   1.081   .     S
C1204  N1238   1.364   .     A
C1205  C1214   1.510   .     S
C1205  H1235   1.111   .     S
C1205  H1234   1.111   .     S
C1205  H1236   1.109   .     S
C1206  C1215   1.510   .     S
C1206  H1222   1.111   .     S
C1206  H1221   1.109   .     S
C1206  H1220   1.111   .     S
C1207  O1248   1.412   .     S
C1207  H1223   1.114   .     S
C1207  H1225   1.110   .     S
C1208  O1243   1.289   .     A
C1208  O1241   1.292   .     A
C1209  H1228   1.109   .     S
C1209  O1240   1.412   .     S
C1209  H1227   1.114   .     S
C1209  H290    1.111   1_556 S
C1210  C1212   1.435   .     S
C1210  O1246   1.290   .     A
C1210  O1244   1.286   .     A
C1211  O1247   1.290   .     A
C1211  O1245   1.286   .     A
C1211  C1213   1.435   .     S
C1213  C1108   1.336   1_655 S
C1213  H1125   1.087   1_655 S
C1215  C1354   1.390   .     S
C1216  H1230   1.085   .     S
C1216  C1370   1.390   .     S
Cu1217 O1244   1.956   .     S
Cu1217 Cu1218  2.681   .     S
Cu1217 N1237   2.015   .     S
Cu1217 O1247   1.959   .     S
Cu1217 O1239   1.956   .     S
Cu1217 O1243   1.960   .     S
Cu1218 O1246   1.959   .     S
Cu1218 N1238   2.015   .     S
Cu1218 O1242   1.960   .     S
Cu1218 O1241   1.956   .     S
Cu1218 O1245   1.956   .     S
H1219  C1108   1.087   1_655 S
H1224  C271    1.111   1_556 S
C1249  C1252   1.445   .     S
C1249  O1291   1.292   .     A
C1249  O1294   1.289   .     A
C1250  H1283   1.085   .     S
C1250  C1252   1.399   .     A
C1251  C1267   1.411   .     A
C1251  C1268   1.399   .     A
C1251  C1260   1.445   .     S
C1252  C1266   1.411   .     A
C1253  N1290   1.372   .     A
C1253  O1300   1.388   .     S
C1254  O1292   1.388   .     S
C1254  N1289   1.372   .     A
C1254  C320    1.430   1_556 S
C1255  H1284   1.081   .     S
C1255  N1289   1.364   .     A
C1255  C317    1.430   1_556 S
C1256  H1285   1.081   .     S
C1256  N1290   1.364   .     A
C1257  C1266   1.510   .     S
C1257  H1287   1.111   .     S
C1257  H1286   1.111   .     S
C1257  H1288   1.109   .     S
C1258  C1267   1.510   .     S
C1258  H1274   1.111   .     S
C1258  H1273   1.109   .     S
C1258  H1272   1.111   .     S
C1259  O1300   1.412   .     S
C1259  H1275   1.114   .     S
C1259  H1277   1.110   .     S
C1260  O1295   1.289   .     A
C1260  O1293   1.292   .     A
C1261  H1280   1.109   .     S
C1261  O1292   1.412   .     S
C1261  H1279   1.114   .     S
C1261  H342    1.111   1_556 S
C1262  C1264   1.435   .     S
C1262  O1298   1.290   .     A
C1262  O1296   1.286   .     A
C1263  O1299   1.290   .     A
C1263  O1297   1.286   .     A
C1263  C1265   1.435   .     S
C1264  C1369   1.336   1_455 S
C1264  H1375   1.087   1_455 S
C1265  C1316   1.336   .     S
C1265  H1333   1.087   .     S
C1267  C938    1.390   1_565 S
C1268  H1282   1.085   .     S
C1268  C954    1.390   1_565 S
Cu1269 O1296   1.956   .     S
Cu1269 Cu1270  2.681   .     S
Cu1269 N1289   2.015   .     S
Cu1269 O1299   1.959   .     S
Cu1269 O1291   1.956   .     S
Cu1269 O1295   1.960   .     S
Cu1270 O1298   1.959   .     S
Cu1270 N1290   2.015   .     S
Cu1270 O1294   1.960   .     S
Cu1270 O1293   1.956   .     S
Cu1270 O1297   1.956   .     S
H1271  C1316   1.087   .     S
H1276  C323    1.111   1_556 S
H1281  C1369   1.087   1_455 S
C1301  C1304   1.445   .     S
C1301  O1343   1.292   .     A
C1301  O1346   1.289   .     A
C1302  H1335   1.085   .     S
C1302  C1304   1.399   .     A
C1303  C1319   1.411   .     A
C1303  C1320   1.399   .     A
C1303  C1312   1.445   .     S
C1304  C1318   1.411   .     A
C1305  N1342   1.372   .     A
C1305  O1352   1.388   .     S
C1306  O1344   1.388   .     S
C1306  N1341   1.372   .     A
C1306  C372    1.430   1_556 S
C1307  H1336   1.081   .     S
C1307  N1341   1.364   .     A
C1307  C369    1.430   1_556 S
C1308  H1337   1.081   .     S
C1308  N1342   1.364   .     A
C1309  C1318   1.510   .     S
C1309  H1339   1.111   .     S
C1309  H1338   1.111   .     S
C1309  H1340   1.109   .     S
C1310  C1319   1.510   .     S
C1310  H1326   1.111   .     S
C1310  H1325   1.109   .     S
C1310  H1324   1.111   .     S
C1311  O1352   1.412   .     S
C1311  H1327   1.114   .     S
C1311  H1329   1.110   .     S
C1312  O1347   1.289   .     A
C1312  O1345   1.292   .     A
C1313  H1332   1.109   .     S
C1313  O1344   1.412   .     S
C1313  H1331   1.114   .     S
C1313  H394    1.111   1_556 S
C1314  C1316   1.435   .     S
C1314  O1350   1.290   .     A
C1314  O1348   1.286   .     A
C1315  O1351   1.290   .     A
C1315  O1349   1.286   .     A
C1315  C1317   1.435   .     S
C1317  C1368   1.336   .     S
C1317  H1385   1.087   .     S
C1319  C990    1.390   1_565 S
C1320  H1334   1.085   .     S
C1320  C1006   1.390   1_565 S
Cu1321 O1348   1.956   .     S
Cu1321 Cu1322  2.681   .     S
Cu1321 N1341   2.015   .     S
Cu1321 O1351   1.959   .     S
Cu1321 O1343   1.956   .     S
Cu1321 O1347   1.960   .     S
Cu1322 O1350   1.959   .     S
Cu1322 N1342   2.015   .     S
Cu1322 O1346   1.960   .     S
Cu1322 O1345   1.956   .     S
Cu1322 O1349   1.956   .     S
H1323  C1368   1.087   .     S
H1328  C375    1.111   1_556 S
C1353  C1356   1.445   .     S
C1353  O1395   1.292   .     A
C1353  O1398   1.289   .     A
C1354  H1387   1.085   .     S
C1354  C1356   1.399   .     A
C1355  C1371   1.411   .     A
C1355  C1372   1.399   .     A
C1355  C1364   1.445   .     S
C1356  C1370   1.411   .     A
C1357  N1394   1.372   .     A
C1357  O1404   1.388   .     S
C1358  O1396   1.388   .     S
C1358  N1393   1.372   .     A
C1358  C424    1.430   1_556 S
C1359  H1388   1.081   .     S
C1359  N1393   1.364   .     A
C1359  C421    1.430   1_556 S
C1360  H1389   1.081   .     S
C1360  N1394   1.364   .     A
C1361  C1370   1.510   .     S
C1361  H1391   1.111   .     S
C1361  H1390   1.111   .     S
C1361  H1392   1.109   .     S
C1362  C1371   1.510   .     S
C1362  H1378   1.111   .     S
C1362  H1377   1.109   .     S
C1362  H1376   1.111   .     S
C1363  O1404   1.412   .     S
C1363  H1379   1.114   .     S
C1363  H1381   1.110   .     S
C1364  O1399   1.289   .     A
C1364  O1397   1.292   .     A
C1365  H1384   1.109   .     S
C1365  O1396   1.412   .     S
C1365  H1383   1.114   .     S
C1365  H446    1.111   1_556 S
C1366  C1368   1.435   .     S
C1366  O1402   1.290   .     A
C1366  O1400   1.286   .     A
C1367  O1403   1.290   .     A
C1367  O1401   1.286   .     A
C1367  C1369   1.435   .     S
C1369  C1264   1.336   1_655 S
C1369  H1281   1.087   1_655 S
C1371  C1042   1.390   1_565 S
C1372  H1386   1.085   .     S
C1372  C1058   1.390   1_565 S
Cu1373 O1400   1.956   .     S
Cu1373 Cu1374  2.681   .     S
Cu1373 N1393   2.015   .     S
Cu1373 O1403   1.959   .     S
Cu1373 O1395   1.956   .     S
Cu1373 O1399   1.960   .     S
Cu1374 O1402   1.959   .     S
Cu1374 N1394   2.015   .     S
Cu1374 O1398   1.960   .     S
Cu1374 O1397   1.956   .     S
Cu1374 O1401   1.956   .     S
H1375  C1264   1.087   1_655 S
H1380  C427    1.111   1_556 S
