data_str_m2_o2_o10_pcu_sym.75
_audit_creation_date              2020-01-03
_audit_creation_method            'Materials Studio'
_symmetry_space_group_name_H-M    'P1'
_symmetry_Int_Tables_number       1
_symmetry_cell_setting            triclinic
loop_
_symmetry_equiv_pos_as_xyz
  x,y,z
_cell_length_a                    26.2051
_cell_length_b                    30.2779
_cell_length_c                    27.7328
_cell_angle_alpha                 89.9982
_cell_angle_beta                  97.9330
_cell_angle_gamma                 90.1467
loop_
_atom_site_label
_atom_site_type_symbol
_atom_site_fract_x
_atom_site_fract_y
_atom_site_fract_z
_atom_site_U_iso_or_equiv
_atom_site_adp_type
_atom_site_occupancy
C1     C     0.16663   0.16494   0.24999   0.00000  Uiso   1.00
C2     C     0.19033   0.28418   0.44913   0.00000  Uiso   1.00
C3     C     0.16665   0.24999   0.02734   0.00000  Uiso   1.00
C4     C     0.16664   0.24999   0.47266   0.00000  Uiso   1.00
C5     C     0.06789   0.24999   0.23755   0.00000  Uiso   1.00
C6     C     0.26544   0.25002   0.26244   0.00000  Uiso   1.00
C7     C     0.01263   0.25001   0.23067   0.00000  Uiso   1.00
C8     C     0.32070   0.25000   0.26931   0.00000  Uiso   1.00
C9     C     0.18221   0.04765   0.29330   0.00000  Uiso   1.00
C10    C     0.18256   0.45244   0.21096   0.00000  Uiso   1.00
C11    C     0.18184   0.09355   0.29335   0.00000  Uiso   1.00
C12    C     0.16671   0.33506   0.25001   0.00000  Uiso   1.00
C13    C     0.18224   0.40653   0.21080   0.00000  Uiso   1.00
C14    C     0.16659   0.11671   0.25001   0.00000  Uiso   1.00
C15    C     0.16674   0.38329   0.25004   0.00000  Uiso   1.00
C16    C     0.15132   0.09346   0.20669   0.00000  Uiso   1.00
C17    C     0.15127   0.40644   0.28930   0.00000  Uiso   1.00
C18    C     0.15100   0.04756   0.20676   0.00000  Uiso   1.00
C19    C     0.15089   0.45234   0.28914   0.00000  Uiso   1.00
C20    C     0.16664   0.02427   0.25004   0.00000  Uiso   1.00
C21    C     0.16670   0.47572   0.25005   0.00000  Uiso   1.00
C22    C     0.20614   0.27087   0.05910   0.00000  Uiso   1.00
C23    C     0.14293   0.21582   0.44295   0.00000  Uiso   1.00
C24    C     0.20521   0.27077   0.10971   0.00000  Uiso   1.00
C25    C     0.14306   0.21662   0.39223   0.00000  Uiso   1.00
C26    C     0.12812   0.22924   0.09968   0.00000  Uiso   1.00
C27    C     0.19023   0.28337   0.39839   0.00000  Uiso   1.00
C28    C     0.12717   0.22912   0.04883   0.00000  Uiso   1.00
Cu29   Cu    0.16667   0.25000   0.29821   0.00000  Uiso   1.00
Cu30   Cu    0.16667   0.25001   0.20178   0.00000  Uiso   1.00
H31    H     0.32599   0.25005   0.19360   0.00000  Uiso   1.00
H32    H     0.12487   0.18812   0.45856   0.00000  Uiso   1.00
H33    H     0.23567   0.28730   0.13329   0.00000  Uiso   1.00
H34    H     0.12429   0.19024   0.37018   0.00000  Uiso   1.00
H35    H     0.09766   0.21273   0.11535   0.00000  Uiso   1.00
H36    H     0.20898   0.30977   0.38123   0.00000  Uiso   1.00
H37    H     0.09515   0.21319   0.02668   0.00000  Uiso   1.00
H38    H     0.20837   0.31189   0.46946   0.00000  Uiso   1.00
H39    H     0.13794   0.03030   0.17310   0.00000  Uiso   1.00
H40    H     0.13763   0.46951   0.31932   0.00000  Uiso   1.00
H41    H     0.00734   0.24997   0.30638   0.00000  Uiso   1.00
H42    H     0.19529   0.03048   0.32698   0.00000  Uiso   1.00
H43    H     0.19581   0.46969   0.18079   0.00000  Uiso   1.00
H44    H     0.19416   0.11090   0.32714   0.00000  Uiso   1.00
H45    H     0.19479   0.38925   0.18033   0.00000  Uiso   1.00
H46    H     0.13896   0.11074   0.17290   0.00000  Uiso   1.00
H47    H     0.13876   0.38908   0.31978   0.00000  Uiso   1.00
H48    H     0.23816   0.28678   0.04530   0.00000  Uiso   1.00
N49    N     0.16667   0.25001   0.12934   0.00000  Uiso   1.00
N50    N     0.16667   0.24999   0.37065   0.00000  Uiso   1.00
O51    O     0.16667   0.18573   0.29071   0.00000  Uiso   1.00
O52    O     0.16666   0.31428   0.20928   0.00000  Uiso   1.00
O53    O     0.16667   0.18573   0.20928   0.00000  Uiso   1.00
O54    O     0.16666   0.31427   0.29072   0.00000  Uiso   1.00
O55    O     0.09161   0.25000   0.28132   0.00000  Uiso   1.00
O56    O     0.24172   0.25001   0.21868   0.00000  Uiso   1.00
O57    O     0.09161   0.25000   0.19988   0.00000  Uiso   1.00
O58    O     0.24172   0.25000   0.30011   0.00000  Uiso   1.00
C59    C     0.49996   0.16494   0.24999   0.00000  Uiso   1.00
C60    C     0.52366   0.28418   0.44913   0.00000  Uiso   1.00
C61    C     0.49998   0.24999   0.02734   0.00000  Uiso   1.00
C62    C     0.49997   0.24999   0.47266   0.00000  Uiso   1.00
C63    C     0.40123   0.24999   0.23755   0.00000  Uiso   1.00
C64    C     0.59877   0.25002   0.26244   0.00000  Uiso   1.00
C65    C     0.34597   0.25001   0.23067   0.00000  Uiso   1.00
C66    C     0.65403   0.25000   0.26931   0.00000  Uiso   1.00
C67    C     0.51555   0.04765   0.29330   0.00000  Uiso   1.00
C68    C     0.51590   0.45244   0.21096   0.00000  Uiso   1.00
C69    C     0.51517   0.09355   0.29335   0.00000  Uiso   1.00
C70    C     0.50004   0.33506   0.25001   0.00000  Uiso   1.00
C71    C     0.51558   0.40653   0.21080   0.00000  Uiso   1.00
C72    C     0.49993   0.11671   0.25001   0.00000  Uiso   1.00
C73    C     0.50008   0.38329   0.25004   0.00000  Uiso   1.00
C74    C     0.48466   0.09346   0.20669   0.00000  Uiso   1.00
C75    C     0.48460   0.40644   0.28930   0.00000  Uiso   1.00
C76    C     0.48434   0.04756   0.20676   0.00000  Uiso   1.00
C77    C     0.48422   0.45234   0.28914   0.00000  Uiso   1.00
C78    C     0.49997   0.02427   0.25004   0.00000  Uiso   1.00
C79    C     0.50003   0.47572   0.25005   0.00000  Uiso   1.00
C80    C     0.53948   0.27087   0.05910   0.00000  Uiso   1.00
C81    C     0.47627   0.21582   0.44295   0.00000  Uiso   1.00
C82    C     0.53854   0.27077   0.10971   0.00000  Uiso   1.00
C83    C     0.47639   0.21662   0.39223   0.00000  Uiso   1.00
C84    C     0.46146   0.22924   0.09968   0.00000  Uiso   1.00
C85    C     0.52356   0.28337   0.39839   0.00000  Uiso   1.00
C86    C     0.46050   0.22912   0.04883   0.00000  Uiso   1.00
Cu87   Cu    0.50000   0.25000   0.29821   0.00000  Uiso   1.00
Cu88   Cu    0.50000   0.25001   0.20178   0.00000  Uiso   1.00
H89    H     0.65933   0.25005   0.19360   0.00000  Uiso   1.00
H90    H     0.45821   0.18812   0.45856   0.00000  Uiso   1.00
H91    H     0.56901   0.28730   0.13329   0.00000  Uiso   1.00
H92    H     0.45762   0.19024   0.37018   0.00000  Uiso   1.00
H93    H     0.43100   0.21273   0.11535   0.00000  Uiso   1.00
H94    H     0.54231   0.30977   0.38123   0.00000  Uiso   1.00
H95    H     0.42848   0.21319   0.02668   0.00000  Uiso   1.00
H96    H     0.54170   0.31189   0.46946   0.00000  Uiso   1.00
H97    H     0.47128   0.03030   0.17310   0.00000  Uiso   1.00
H98    H     0.47096   0.46951   0.31932   0.00000  Uiso   1.00
H99    H     0.34067   0.24997   0.30638   0.00000  Uiso   1.00
H100   H     0.52862   0.03048   0.32698   0.00000  Uiso   1.00
H101   H     0.52914   0.46969   0.18079   0.00000  Uiso   1.00
H102   H     0.52749   0.11090   0.32714   0.00000  Uiso   1.00
H103   H     0.52812   0.38925   0.18033   0.00000  Uiso   1.00
H104   H     0.47229   0.11074   0.17290   0.00000  Uiso   1.00
H105   H     0.47209   0.38908   0.31978   0.00000  Uiso   1.00
H106   H     0.57150   0.28678   0.04530   0.00000  Uiso   1.00
N107   N     0.50000   0.25001   0.12934   0.00000  Uiso   1.00
N108   N     0.50000   0.24999   0.37065   0.00000  Uiso   1.00
O109   O     0.50000   0.18573   0.29071   0.00000  Uiso   1.00
O110   O     0.50000   0.31428   0.20928   0.00000  Uiso   1.00
O111   O     0.50000   0.18573   0.20928   0.00000  Uiso   1.00
O112   O     0.50000   0.31427   0.29072   0.00000  Uiso   1.00
O113   O     0.42495   0.25000   0.28132   0.00000  Uiso   1.00
O114   O     0.57505   0.25001   0.21868   0.00000  Uiso   1.00
O115   O     0.42495   0.25000   0.19988   0.00000  Uiso   1.00
O116   O     0.57505   0.25000   0.30011   0.00000  Uiso   1.00
C117   C     0.83329   0.16494   0.24999   0.00000  Uiso   1.00
C118   C     0.85700   0.28418   0.44913   0.00000  Uiso   1.00
C119   C     0.83332   0.24999   0.02734   0.00000  Uiso   1.00
C120   C     0.83330   0.24999   0.47266   0.00000  Uiso   1.00
C121   C     0.73456   0.24999   0.23755   0.00000  Uiso   1.00
C122   C     0.93210   0.25002   0.26244   0.00000  Uiso   1.00
C123   C     0.67930   0.25001   0.23067   0.00000  Uiso   1.00
C124   C     0.98736   0.25000   0.26931   0.00000  Uiso   1.00
C125   C     0.84888   0.04765   0.29330   0.00000  Uiso   1.00
C126   C     0.84923   0.45244   0.21096   0.00000  Uiso   1.00
C127   C     0.84850   0.09355   0.29335   0.00000  Uiso   1.00
C128   C     0.83337   0.33506   0.25001   0.00000  Uiso   1.00
C129   C     0.84891   0.40653   0.21080   0.00000  Uiso   1.00
C130   C     0.83326   0.11671   0.25001   0.00000  Uiso   1.00
C131   C     0.83341   0.38329   0.25004   0.00000  Uiso   1.00
C132   C     0.81799   0.09346   0.20669   0.00000  Uiso   1.00
C133   C     0.81793   0.40644   0.28930   0.00000  Uiso   1.00
C134   C     0.81767   0.04756   0.20676   0.00000  Uiso   1.00
C135   C     0.81756   0.45234   0.28914   0.00000  Uiso   1.00
C136   C     0.83330   0.02427   0.25004   0.00000  Uiso   1.00
C137   C     0.83336   0.47572   0.25005   0.00000  Uiso   1.00
C138   C     0.87281   0.27087   0.05910   0.00000  Uiso   1.00
C139   C     0.80960   0.21582   0.44295   0.00000  Uiso   1.00
C140   C     0.87187   0.27077   0.10971   0.00000  Uiso   1.00
C141   C     0.80973   0.21662   0.39223   0.00000  Uiso   1.00
C142   C     0.79479   0.22924   0.09968   0.00000  Uiso   1.00
C143   C     0.85689   0.28337   0.39839   0.00000  Uiso   1.00
C144   C     0.79384   0.22912   0.04883   0.00000  Uiso   1.00
Cu145  Cu    0.83333   0.25000   0.29821   0.00000  Uiso   1.00
Cu146  Cu    0.83333   0.25001   0.20178   0.00000  Uiso   1.00
H147   H     0.99266   0.25005   0.19360   0.00000  Uiso   1.00
H148   H     0.79154   0.18812   0.45856   0.00000  Uiso   1.00
H149   H     0.90234   0.28730   0.13329   0.00000  Uiso   1.00
H150   H     0.79096   0.19024   0.37018   0.00000  Uiso   1.00
H151   H     0.76433   0.21273   0.11535   0.00000  Uiso   1.00
H152   H     0.87564   0.30977   0.38123   0.00000  Uiso   1.00
H153   H     0.76181   0.21319   0.02668   0.00000  Uiso   1.00
H154   H     0.87503   0.31189   0.46946   0.00000  Uiso   1.00
H155   H     0.80461   0.03030   0.17310   0.00000  Uiso   1.00
H156   H     0.80429   0.46951   0.31932   0.00000  Uiso   1.00
H157   H     0.67401   0.24997   0.30638   0.00000  Uiso   1.00
H158   H     0.86196   0.03048   0.32698   0.00000  Uiso   1.00
H159   H     0.86247   0.46969   0.18079   0.00000  Uiso   1.00
H160   H     0.86082   0.11090   0.32714   0.00000  Uiso   1.00
H161   H     0.86146   0.38925   0.18033   0.00000  Uiso   1.00
H162   H     0.80563   0.11074   0.17290   0.00000  Uiso   1.00
H163   H     0.80542   0.38908   0.31978   0.00000  Uiso   1.00
H164   H     0.90483   0.28678   0.04530   0.00000  Uiso   1.00
N165   N     0.83333   0.25001   0.12934   0.00000  Uiso   1.00
N166   N     0.83333   0.24999   0.37065   0.00000  Uiso   1.00
O167   O     0.83334   0.18573   0.29071   0.00000  Uiso   1.00
O168   O     0.83333   0.31428   0.20928   0.00000  Uiso   1.00
O169   O     0.83334   0.18573   0.20928   0.00000  Uiso   1.00
O170   O     0.83333   0.31427   0.29072   0.00000  Uiso   1.00
O171   O     0.75828   0.25000   0.28132   0.00000  Uiso   1.00
O172   O     0.90839   0.25001   0.21868   0.00000  Uiso   1.00
O173   O     0.75828   0.25000   0.19988   0.00000  Uiso   1.00
O174   O     0.90839   0.25000   0.30011   0.00000  Uiso   1.00
C175   C     0.16663   0.66494   0.24999   0.00000  Uiso   1.00
C176   C     0.19033   0.78418   0.44913   0.00000  Uiso   1.00
C177   C     0.16665   0.74999   0.02734   0.00000  Uiso   1.00
C178   C     0.16664   0.74999   0.47266   0.00000  Uiso   1.00
C179   C     0.06789   0.74999   0.23755   0.00000  Uiso   1.00
C180   C     0.26544   0.75002   0.26244   0.00000  Uiso   1.00
C181   C     0.01263   0.75001   0.23067   0.00000  Uiso   1.00
C182   C     0.32070   0.75000   0.26931   0.00000  Uiso   1.00
C183   C     0.18221   0.54765   0.29330   0.00000  Uiso   1.00
C184   C     0.18256   0.95244   0.21096   0.00000  Uiso   1.00
C185   C     0.18184   0.59355   0.29335   0.00000  Uiso   1.00
C186   C     0.16671   0.83506   0.25001   0.00000  Uiso   1.00
C187   C     0.18224   0.90653   0.21080   0.00000  Uiso   1.00
C188   C     0.16659   0.61671   0.25001   0.00000  Uiso   1.00
C189   C     0.16674   0.88329   0.25004   0.00000  Uiso   1.00
C190   C     0.15132   0.59346   0.20669   0.00000  Uiso   1.00
C191   C     0.15127   0.90644   0.28930   0.00000  Uiso   1.00
C192   C     0.15100   0.54756   0.20676   0.00000  Uiso   1.00
C193   C     0.15089   0.95234   0.28914   0.00000  Uiso   1.00
C194   C     0.16664   0.52427   0.25004   0.00000  Uiso   1.00
C195   C     0.16670   0.97572   0.25005   0.00000  Uiso   1.00
C196   C     0.20614   0.77087   0.05910   0.00000  Uiso   1.00
C197   C     0.14293   0.71582   0.44295   0.00000  Uiso   1.00
C198   C     0.20521   0.77077   0.10971   0.00000  Uiso   1.00
C199   C     0.14306   0.71662   0.39223   0.00000  Uiso   1.00
C200   C     0.12812   0.72924   0.09968   0.00000  Uiso   1.00
C201   C     0.19023   0.78337   0.39839   0.00000  Uiso   1.00
C202   C     0.12717   0.72912   0.04883   0.00000  Uiso   1.00
Cu203  Cu    0.16667   0.75000   0.29821   0.00000  Uiso   1.00
Cu204  Cu    0.16667   0.75001   0.20178   0.00000  Uiso   1.00
H205   H     0.32599   0.75005   0.19360   0.00000  Uiso   1.00
H206   H     0.12487   0.68812   0.45856   0.00000  Uiso   1.00
H207   H     0.23567   0.78730   0.13329   0.00000  Uiso   1.00
H208   H     0.12429   0.69024   0.37018   0.00000  Uiso   1.00
H209   H     0.09766   0.71273   0.11535   0.00000  Uiso   1.00
H210   H     0.20898   0.80977   0.38123   0.00000  Uiso   1.00
H211   H     0.09515   0.71319   0.02668   0.00000  Uiso   1.00
H212   H     0.20837   0.81189   0.46946   0.00000  Uiso   1.00
H213   H     0.13794   0.53030   0.17310   0.00000  Uiso   1.00
H214   H     0.13763   0.96951   0.31932   0.00000  Uiso   1.00
H215   H     0.00734   0.74997   0.30638   0.00000  Uiso   1.00
H216   H     0.19529   0.53048   0.32698   0.00000  Uiso   1.00
H217   H     0.19581   0.96969   0.18079   0.00000  Uiso   1.00
H218   H     0.19416   0.61090   0.32714   0.00000  Uiso   1.00
H219   H     0.19479   0.88925   0.18033   0.00000  Uiso   1.00
H220   H     0.13896   0.61074   0.17290   0.00000  Uiso   1.00
H221   H     0.13876   0.88908   0.31978   0.00000  Uiso   1.00
H222   H     0.23816   0.78678   0.04530   0.00000  Uiso   1.00
N223   N     0.16667   0.75001   0.12934   0.00000  Uiso   1.00
N224   N     0.16667   0.74999   0.37065   0.00000  Uiso   1.00
O225   O     0.16667   0.68573   0.29071   0.00000  Uiso   1.00
O226   O     0.16666   0.81428   0.20928   0.00000  Uiso   1.00
O227   O     0.16667   0.68573   0.20928   0.00000  Uiso   1.00
O228   O     0.16666   0.81427   0.29072   0.00000  Uiso   1.00
O229   O     0.09161   0.75000   0.28132   0.00000  Uiso   1.00
O230   O     0.24172   0.75001   0.21868   0.00000  Uiso   1.00
O231   O     0.09161   0.75000   0.19988   0.00000  Uiso   1.00
O232   O     0.24172   0.75000   0.30011   0.00000  Uiso   1.00
C233   C     0.49996   0.66494   0.24999   0.00000  Uiso   1.00
C234   C     0.52366   0.78418   0.44913   0.00000  Uiso   1.00
C235   C     0.49998   0.74999   0.02734   0.00000  Uiso   1.00
C236   C     0.49997   0.74999   0.47266   0.00000  Uiso   1.00
C237   C     0.40123   0.74999   0.23755   0.00000  Uiso   1.00
C238   C     0.59877   0.75002   0.26244   0.00000  Uiso   1.00
C239   C     0.34597   0.75001   0.23067   0.00000  Uiso   1.00
C240   C     0.65403   0.75000   0.26931   0.00000  Uiso   1.00
C241   C     0.51555   0.54765   0.29330   0.00000  Uiso   1.00
C242   C     0.51590   0.95244   0.21096   0.00000  Uiso   1.00
C243   C     0.51517   0.59355   0.29335   0.00000  Uiso   1.00
C244   C     0.50004   0.83506   0.25001   0.00000  Uiso   1.00
C245   C     0.51558   0.90653   0.21080   0.00000  Uiso   1.00
C246   C     0.49993   0.61671   0.25001   0.00000  Uiso   1.00
C247   C     0.50008   0.88329   0.25004   0.00000  Uiso   1.00
C248   C     0.48466   0.59346   0.20669   0.00000  Uiso   1.00
C249   C     0.48460   0.90644   0.28930   0.00000  Uiso   1.00
C250   C     0.48434   0.54756   0.20676   0.00000  Uiso   1.00
C251   C     0.48422   0.95234   0.28914   0.00000  Uiso   1.00
C252   C     0.49997   0.52427   0.25004   0.00000  Uiso   1.00
C253   C     0.50003   0.97572   0.25005   0.00000  Uiso   1.00
C254   C     0.53948   0.77087   0.05910   0.00000  Uiso   1.00
C255   C     0.47627   0.71582   0.44295   0.00000  Uiso   1.00
C256   C     0.53854   0.77077   0.10971   0.00000  Uiso   1.00
C257   C     0.47639   0.71662   0.39223   0.00000  Uiso   1.00
C258   C     0.46146   0.72924   0.09968   0.00000  Uiso   1.00
C259   C     0.52356   0.78337   0.39839   0.00000  Uiso   1.00
C260   C     0.46050   0.72912   0.04883   0.00000  Uiso   1.00
Cu261  Cu    0.50000   0.75000   0.29821   0.00000  Uiso   1.00
Cu262  Cu    0.50000   0.75001   0.20178   0.00000  Uiso   1.00
H263   H     0.65933   0.75005   0.19360   0.00000  Uiso   1.00
H264   H     0.45821   0.68812   0.45856   0.00000  Uiso   1.00
H265   H     0.56901   0.78730   0.13329   0.00000  Uiso   1.00
H266   H     0.45762   0.69024   0.37018   0.00000  Uiso   1.00
H267   H     0.43100   0.71273   0.11535   0.00000  Uiso   1.00
H268   H     0.54231   0.80977   0.38123   0.00000  Uiso   1.00
H269   H     0.42848   0.71319   0.02668   0.00000  Uiso   1.00
H270   H     0.54170   0.81189   0.46946   0.00000  Uiso   1.00
H271   H     0.47128   0.53030   0.17310   0.00000  Uiso   1.00
H272   H     0.47096   0.96951   0.31932   0.00000  Uiso   1.00
H273   H     0.34067   0.74997   0.30638   0.00000  Uiso   1.00
H274   H     0.52862   0.53048   0.32698   0.00000  Uiso   1.00
H275   H     0.52914   0.96969   0.18079   0.00000  Uiso   1.00
H276   H     0.52749   0.61090   0.32714   0.00000  Uiso   1.00
H277   H     0.52812   0.88925   0.18033   0.00000  Uiso   1.00
H278   H     0.47229   0.61074   0.17290   0.00000  Uiso   1.00
H279   H     0.47209   0.88908   0.31978   0.00000  Uiso   1.00
H280   H     0.57150   0.78678   0.04530   0.00000  Uiso   1.00
N281   N     0.50000   0.75001   0.12934   0.00000  Uiso   1.00
N282   N     0.50000   0.74999   0.37065   0.00000  Uiso   1.00
O283   O     0.50000   0.68573   0.29071   0.00000  Uiso   1.00
O284   O     0.50000   0.81428   0.20928   0.00000  Uiso   1.00
O285   O     0.50000   0.68573   0.20928   0.00000  Uiso   1.00
O286   O     0.50000   0.81427   0.29072   0.00000  Uiso   1.00
O287   O     0.42495   0.75000   0.28132   0.00000  Uiso   1.00
O288   O     0.57505   0.75001   0.21868   0.00000  Uiso   1.00
O289   O     0.42495   0.75000   0.19988   0.00000  Uiso   1.00
O290   O     0.57505   0.75000   0.30011   0.00000  Uiso   1.00
C291   C     0.83329   0.66494   0.24999   0.00000  Uiso   1.00
C292   C     0.85700   0.78418   0.44913   0.00000  Uiso   1.00
C293   C     0.83332   0.74999   0.02734   0.00000  Uiso   1.00
C294   C     0.83330   0.74999   0.47266   0.00000  Uiso   1.00
C295   C     0.73456   0.74999   0.23755   0.00000  Uiso   1.00
C296   C     0.93210   0.75002   0.26244   0.00000  Uiso   1.00
C297   C     0.67930   0.75001   0.23067   0.00000  Uiso   1.00
C298   C     0.98736   0.75000   0.26931   0.00000  Uiso   1.00
C299   C     0.84888   0.54765   0.29330   0.00000  Uiso   1.00
C300   C     0.84923   0.95244   0.21096   0.00000  Uiso   1.00
C301   C     0.84850   0.59355   0.29335   0.00000  Uiso   1.00
C302   C     0.83337   0.83506   0.25001   0.00000  Uiso   1.00
C303   C     0.84891   0.90653   0.21080   0.00000  Uiso   1.00
C304   C     0.83326   0.61671   0.25001   0.00000  Uiso   1.00
C305   C     0.83341   0.88329   0.25004   0.00000  Uiso   1.00
C306   C     0.81799   0.59346   0.20669   0.00000  Uiso   1.00
C307   C     0.81793   0.90644   0.28930   0.00000  Uiso   1.00
C308   C     0.81767   0.54756   0.20676   0.00000  Uiso   1.00
C309   C     0.81756   0.95234   0.28914   0.00000  Uiso   1.00
C310   C     0.83330   0.52427   0.25004   0.00000  Uiso   1.00
C311   C     0.83336   0.97572   0.25005   0.00000  Uiso   1.00
C312   C     0.87281   0.77087   0.05910   0.00000  Uiso   1.00
C313   C     0.80960   0.71582   0.44295   0.00000  Uiso   1.00
C314   C     0.87187   0.77077   0.10971   0.00000  Uiso   1.00
C315   C     0.80973   0.71662   0.39223   0.00000  Uiso   1.00
C316   C     0.79479   0.72924   0.09968   0.00000  Uiso   1.00
C317   C     0.85689   0.78337   0.39839   0.00000  Uiso   1.00
C318   C     0.79384   0.72912   0.04883   0.00000  Uiso   1.00
Cu319  Cu    0.83333   0.75000   0.29821   0.00000  Uiso   1.00
Cu320  Cu    0.83333   0.75001   0.20178   0.00000  Uiso   1.00
H321   H     0.99266   0.75005   0.19360   0.00000  Uiso   1.00
H322   H     0.79154   0.68812   0.45856   0.00000  Uiso   1.00
H323   H     0.90234   0.78730   0.13329   0.00000  Uiso   1.00
H324   H     0.79096   0.69024   0.37018   0.00000  Uiso   1.00
H325   H     0.76433   0.71273   0.11535   0.00000  Uiso   1.00
H326   H     0.87564   0.80977   0.38123   0.00000  Uiso   1.00
H327   H     0.76181   0.71319   0.02668   0.00000  Uiso   1.00
H328   H     0.87503   0.81189   0.46946   0.00000  Uiso   1.00
H329   H     0.80461   0.53030   0.17310   0.00000  Uiso   1.00
H330   H     0.80429   0.96951   0.31932   0.00000  Uiso   1.00
H331   H     0.67401   0.74997   0.30638   0.00000  Uiso   1.00
H332   H     0.86196   0.53048   0.32698   0.00000  Uiso   1.00
H333   H     0.86247   0.96969   0.18079   0.00000  Uiso   1.00
H334   H     0.86082   0.61090   0.32714   0.00000  Uiso   1.00
H335   H     0.86146   0.88925   0.18033   0.00000  Uiso   1.00
H336   H     0.80563   0.61074   0.17290   0.00000  Uiso   1.00
H337   H     0.80542   0.88908   0.31978   0.00000  Uiso   1.00
H338   H     0.90483   0.78678   0.04530   0.00000  Uiso   1.00
N339   N     0.83333   0.75001   0.12934   0.00000  Uiso   1.00
N340   N     0.83333   0.74999   0.37065   0.00000  Uiso   1.00
O341   O     0.83334   0.68573   0.29071   0.00000  Uiso   1.00
O342   O     0.83333   0.81428   0.20928   0.00000  Uiso   1.00
O343   O     0.83334   0.68573   0.20928   0.00000  Uiso   1.00
O344   O     0.83333   0.81427   0.29072   0.00000  Uiso   1.00
O345   O     0.75828   0.75000   0.28132   0.00000  Uiso   1.00
O346   O     0.90839   0.75001   0.21868   0.00000  Uiso   1.00
O347   O     0.75828   0.75000   0.19988   0.00000  Uiso   1.00
O348   O     0.90839   0.75000   0.30011   0.00000  Uiso   1.00
C349   C     0.16663   0.16494   0.74999   0.00000  Uiso   1.00
C350   C     0.19033   0.28418   0.94913   0.00000  Uiso   1.00
C351   C     0.16665   0.24999   0.52734   0.00000  Uiso   1.00
C352   C     0.16664   0.24999   0.97266   0.00000  Uiso   1.00
C353   C     0.06789   0.24999   0.73755   0.00000  Uiso   1.00
C354   C     0.26544   0.25002   0.76244   0.00000  Uiso   1.00
C355   C     0.01263   0.25001   0.73067   0.00000  Uiso   1.00
C356   C     0.32070   0.25000   0.76931   0.00000  Uiso   1.00
C357   C     0.18221   0.04765   0.79330   0.00000  Uiso   1.00
C358   C     0.18256   0.45244   0.71096   0.00000  Uiso   1.00
C359   C     0.18184   0.09355   0.79335   0.00000  Uiso   1.00
C360   C     0.16671   0.33506   0.75001   0.00000  Uiso   1.00
C361   C     0.18224   0.40653   0.71080   0.00000  Uiso   1.00
C362   C     0.16659   0.11671   0.75001   0.00000  Uiso   1.00
C363   C     0.16674   0.38329   0.75004   0.00000  Uiso   1.00
C364   C     0.15132   0.09346   0.70669   0.00000  Uiso   1.00
C365   C     0.15127   0.40644   0.78930   0.00000  Uiso   1.00
C366   C     0.15100   0.04756   0.70676   0.00000  Uiso   1.00
C367   C     0.15089   0.45234   0.78914   0.00000  Uiso   1.00
C368   C     0.16664   0.02427   0.75004   0.00000  Uiso   1.00
C369   C     0.16670   0.47572   0.75005   0.00000  Uiso   1.00
C370   C     0.20614   0.27087   0.55910   0.00000  Uiso   1.00
C371   C     0.14293   0.21582   0.94295   0.00000  Uiso   1.00
C372   C     0.20521   0.27077   0.60971   0.00000  Uiso   1.00
C373   C     0.14306   0.21662   0.89223   0.00000  Uiso   1.00
C374   C     0.12812   0.22924   0.59968   0.00000  Uiso   1.00
C375   C     0.19023   0.28337   0.89839   0.00000  Uiso   1.00
C376   C     0.12717   0.22912   0.54883   0.00000  Uiso   1.00
Cu377  Cu    0.16667   0.25000   0.79821   0.00000  Uiso   1.00
Cu378  Cu    0.16667   0.25001   0.70178   0.00000  Uiso   1.00
H379   H     0.32599   0.25005   0.69360   0.00000  Uiso   1.00
H380   H     0.12487   0.18812   0.95856   0.00000  Uiso   1.00
H381   H     0.23567   0.28730   0.63329   0.00000  Uiso   1.00
H382   H     0.12429   0.19024   0.87018   0.00000  Uiso   1.00
H383   H     0.09766   0.21273   0.61535   0.00000  Uiso   1.00
H384   H     0.20898   0.30977   0.88123   0.00000  Uiso   1.00
H385   H     0.09515   0.21319   0.52668   0.00000  Uiso   1.00
H386   H     0.20837   0.31189   0.96946   0.00000  Uiso   1.00
H387   H     0.13794   0.03030   0.67310   0.00000  Uiso   1.00
H388   H     0.13763   0.46951   0.81932   0.00000  Uiso   1.00
H389   H     0.00734   0.24997   0.80638   0.00000  Uiso   1.00
H390   H     0.19529   0.03048   0.82698   0.00000  Uiso   1.00
H391   H     0.19581   0.46969   0.68079   0.00000  Uiso   1.00
H392   H     0.19416   0.11090   0.82714   0.00000  Uiso   1.00
H393   H     0.19479   0.38925   0.68033   0.00000  Uiso   1.00
H394   H     0.13896   0.11074   0.67290   0.00000  Uiso   1.00
H395   H     0.13876   0.38908   0.81978   0.00000  Uiso   1.00
H396   H     0.23816   0.28678   0.54530   0.00000  Uiso   1.00
N397   N     0.16667   0.25001   0.62934   0.00000  Uiso   1.00
N398   N     0.16667   0.24999   0.87065   0.00000  Uiso   1.00
O399   O     0.16667   0.18573   0.79071   0.00000  Uiso   1.00
O400   O     0.16666   0.31428   0.70928   0.00000  Uiso   1.00
O401   O     0.16667   0.18573   0.70928   0.00000  Uiso   1.00
O402   O     0.16666   0.31427   0.79072   0.00000  Uiso   1.00
O403   O     0.09161   0.25000   0.78132   0.00000  Uiso   1.00
O404   O     0.24172   0.25001   0.71868   0.00000  Uiso   1.00
O405   O     0.09161   0.25000   0.69988   0.00000  Uiso   1.00
O406   O     0.24172   0.25000   0.80011   0.00000  Uiso   1.00
C407   C     0.49996   0.16494   0.74999   0.00000  Uiso   1.00
C408   C     0.52366   0.28418   0.94913   0.00000  Uiso   1.00
C409   C     0.49998   0.24999   0.52734   0.00000  Uiso   1.00
C410   C     0.49997   0.24999   0.97266   0.00000  Uiso   1.00
C411   C     0.40123   0.24999   0.73755   0.00000  Uiso   1.00
C412   C     0.59877   0.25002   0.76244   0.00000  Uiso   1.00
C413   C     0.34597   0.25001   0.73067   0.00000  Uiso   1.00
C414   C     0.65403   0.25000   0.76931   0.00000  Uiso   1.00
C415   C     0.51555   0.04765   0.79330   0.00000  Uiso   1.00
C416   C     0.51590   0.45244   0.71096   0.00000  Uiso   1.00
C417   C     0.51517   0.09355   0.79335   0.00000  Uiso   1.00
C418   C     0.50004   0.33506   0.75001   0.00000  Uiso   1.00
C419   C     0.51558   0.40653   0.71080   0.00000  Uiso   1.00
C420   C     0.49993   0.11671   0.75001   0.00000  Uiso   1.00
C421   C     0.50008   0.38329   0.75004   0.00000  Uiso   1.00
C422   C     0.48466   0.09346   0.70669   0.00000  Uiso   1.00
C423   C     0.48460   0.40644   0.78930   0.00000  Uiso   1.00
C424   C     0.48434   0.04756   0.70676   0.00000  Uiso   1.00
C425   C     0.48422   0.45234   0.78914   0.00000  Uiso   1.00
C426   C     0.49997   0.02427   0.75004   0.00000  Uiso   1.00
C427   C     0.50003   0.47572   0.75005   0.00000  Uiso   1.00
C428   C     0.53948   0.27087   0.55910   0.00000  Uiso   1.00
C429   C     0.47627   0.21582   0.94295   0.00000  Uiso   1.00
C430   C     0.53854   0.27077   0.60971   0.00000  Uiso   1.00
C431   C     0.47639   0.21662   0.89223   0.00000  Uiso   1.00
C432   C     0.46146   0.22924   0.59968   0.00000  Uiso   1.00
C433   C     0.52356   0.28337   0.89839   0.00000  Uiso   1.00
C434   C     0.46050   0.22912   0.54883   0.00000  Uiso   1.00
Cu435  Cu    0.50000   0.25000   0.79821   0.00000  Uiso   1.00
Cu436  Cu    0.50000   0.25001   0.70178   0.00000  Uiso   1.00
H437   H     0.65933   0.25005   0.69360   0.00000  Uiso   1.00
H438   H     0.45821   0.18812   0.95856   0.00000  Uiso   1.00
H439   H     0.56901   0.28730   0.63329   0.00000  Uiso   1.00
H440   H     0.45762   0.19024   0.87018   0.00000  Uiso   1.00
H441   H     0.43100   0.21273   0.61535   0.00000  Uiso   1.00
H442   H     0.54231   0.30977   0.88123   0.00000  Uiso   1.00
H443   H     0.42848   0.21319   0.52668   0.00000  Uiso   1.00
H444   H     0.54170   0.31189   0.96946   0.00000  Uiso   1.00
H445   H     0.47128   0.03030   0.67310   0.00000  Uiso   1.00
H446   H     0.47096   0.46951   0.81932   0.00000  Uiso   1.00
H447   H     0.34067   0.24997   0.80638   0.00000  Uiso   1.00
H448   H     0.52862   0.03048   0.82698   0.00000  Uiso   1.00
H449   H     0.52914   0.46969   0.68079   0.00000  Uiso   1.00
H450   H     0.52749   0.11090   0.82714   0.00000  Uiso   1.00
H451   H     0.52812   0.38925   0.68033   0.00000  Uiso   1.00
H452   H     0.47229   0.11074   0.67290   0.00000  Uiso   1.00
H453   H     0.47209   0.38908   0.81978   0.00000  Uiso   1.00
H454   H     0.57150   0.28678   0.54530   0.00000  Uiso   1.00
N455   N     0.50000   0.25001   0.62934   0.00000  Uiso   1.00
N456   N     0.50000   0.24999   0.87065   0.00000  Uiso   1.00
O457   O     0.50000   0.18573   0.79071   0.00000  Uiso   1.00
O458   O     0.50000   0.31428   0.70928   0.00000  Uiso   1.00
O459   O     0.50000   0.18573   0.70928   0.00000  Uiso   1.00
O460   O     0.50000   0.31427   0.79072   0.00000  Uiso   1.00
O461   O     0.42495   0.25000   0.78132   0.00000  Uiso   1.00
O462   O     0.57505   0.25001   0.71868   0.00000  Uiso   1.00
O463   O     0.42495   0.25000   0.69988   0.00000  Uiso   1.00
O464   O     0.57505   0.25000   0.80011   0.00000  Uiso   1.00
C465   C     0.83329   0.16494   0.74999   0.00000  Uiso   1.00
C466   C     0.85700   0.28418   0.94913   0.00000  Uiso   1.00
C467   C     0.83332   0.24999   0.52734   0.00000  Uiso   1.00
C468   C     0.83330   0.24999   0.97266   0.00000  Uiso   1.00
C469   C     0.73456   0.24999   0.73755   0.00000  Uiso   1.00
C470   C     0.93210   0.25002   0.76244   0.00000  Uiso   1.00
C471   C     0.67930   0.25001   0.73067   0.00000  Uiso   1.00
C472   C     0.98736   0.25000   0.76931   0.00000  Uiso   1.00
C473   C     0.84888   0.04765   0.79330   0.00000  Uiso   1.00
C474   C     0.84923   0.45244   0.71096   0.00000  Uiso   1.00
C475   C     0.84850   0.09355   0.79335   0.00000  Uiso   1.00
C476   C     0.83337   0.33506   0.75001   0.00000  Uiso   1.00
C477   C     0.84891   0.40653   0.71080   0.00000  Uiso   1.00
C478   C     0.83326   0.11671   0.75001   0.00000  Uiso   1.00
C479   C     0.83341   0.38329   0.75004   0.00000  Uiso   1.00
C480   C     0.81799   0.09346   0.70669   0.00000  Uiso   1.00
C481   C     0.81793   0.40644   0.78930   0.00000  Uiso   1.00
C482   C     0.81767   0.04756   0.70676   0.00000  Uiso   1.00
C483   C     0.81756   0.45234   0.78914   0.00000  Uiso   1.00
C484   C     0.83330   0.02427   0.75004   0.00000  Uiso   1.00
C485   C     0.83336   0.47572   0.75005   0.00000  Uiso   1.00
C486   C     0.87281   0.27087   0.55910   0.00000  Uiso   1.00
C487   C     0.80960   0.21582   0.94295   0.00000  Uiso   1.00
C488   C     0.87187   0.27077   0.60971   0.00000  Uiso   1.00
C489   C     0.80973   0.21662   0.89223   0.00000  Uiso   1.00
C490   C     0.79479   0.22924   0.59968   0.00000  Uiso   1.00
C491   C     0.85689   0.28337   0.89839   0.00000  Uiso   1.00
C492   C     0.79384   0.22912   0.54883   0.00000  Uiso   1.00
Cu493  Cu    0.83333   0.25000   0.79821   0.00000  Uiso   1.00
Cu494  Cu    0.83333   0.25001   0.70178   0.00000  Uiso   1.00
H495   H     0.99266   0.25005   0.69360   0.00000  Uiso   1.00
H496   H     0.79154   0.18812   0.95856   0.00000  Uiso   1.00
H497   H     0.90234   0.28730   0.63329   0.00000  Uiso   1.00
H498   H     0.79096   0.19024   0.87018   0.00000  Uiso   1.00
H499   H     0.76433   0.21273   0.61535   0.00000  Uiso   1.00
H500   H     0.87564   0.30977   0.88123   0.00000  Uiso   1.00
H501   H     0.76181   0.21319   0.52668   0.00000  Uiso   1.00
H502   H     0.87503   0.31189   0.96946   0.00000  Uiso   1.00
H503   H     0.80461   0.03030   0.67310   0.00000  Uiso   1.00
H504   H     0.80429   0.46951   0.81932   0.00000  Uiso   1.00
H505   H     0.67401   0.24997   0.80638   0.00000  Uiso   1.00
H506   H     0.86196   0.03048   0.82698   0.00000  Uiso   1.00
H507   H     0.86247   0.46969   0.68079   0.00000  Uiso   1.00
H508   H     0.86082   0.11090   0.82714   0.00000  Uiso   1.00
H509   H     0.86146   0.38925   0.68033   0.00000  Uiso   1.00
H510   H     0.80563   0.11074   0.67290   0.00000  Uiso   1.00
H511   H     0.80542   0.38908   0.81978   0.00000  Uiso   1.00
H512   H     0.90483   0.28678   0.54530   0.00000  Uiso   1.00
N513   N     0.83333   0.25001   0.62934   0.00000  Uiso   1.00
N514   N     0.83333   0.24999   0.87065   0.00000  Uiso   1.00
O515   O     0.83334   0.18573   0.79071   0.00000  Uiso   1.00
O516   O     0.83333   0.31428   0.70928   0.00000  Uiso   1.00
O517   O     0.83334   0.18573   0.70928   0.00000  Uiso   1.00
O518   O     0.83333   0.31427   0.79072   0.00000  Uiso   1.00
O519   O     0.75828   0.25000   0.78132   0.00000  Uiso   1.00
O520   O     0.90839   0.25001   0.71868   0.00000  Uiso   1.00
O521   O     0.75828   0.25000   0.69988   0.00000  Uiso   1.00
O522   O     0.90839   0.25000   0.80011   0.00000  Uiso   1.00
C523   C     0.16663   0.66494   0.74999   0.00000  Uiso   1.00
C524   C     0.19033   0.78418   0.94913   0.00000  Uiso   1.00
C525   C     0.16665   0.74999   0.52734   0.00000  Uiso   1.00
C526   C     0.16664   0.74999   0.97266   0.00000  Uiso   1.00
C527   C     0.06789   0.74999   0.73755   0.00000  Uiso   1.00
C528   C     0.26544   0.75002   0.76244   0.00000  Uiso   1.00
C529   C     0.01263   0.75001   0.73067   0.00000  Uiso   1.00
C530   C     0.32070   0.75000   0.76931   0.00000  Uiso   1.00
C531   C     0.18221   0.54765   0.79330   0.00000  Uiso   1.00
C532   C     0.18256   0.95244   0.71096   0.00000  Uiso   1.00
C533   C     0.18184   0.59355   0.79335   0.00000  Uiso   1.00
C534   C     0.16671   0.83506   0.75001   0.00000  Uiso   1.00
C535   C     0.18224   0.90653   0.71080   0.00000  Uiso   1.00
C536   C     0.16659   0.61671   0.75001   0.00000  Uiso   1.00
C537   C     0.16674   0.88329   0.75004   0.00000  Uiso   1.00
C538   C     0.15132   0.59346   0.70669   0.00000  Uiso   1.00
C539   C     0.15127   0.90644   0.78930   0.00000  Uiso   1.00
C540   C     0.15100   0.54756   0.70676   0.00000  Uiso   1.00
C541   C     0.15089   0.95234   0.78914   0.00000  Uiso   1.00
C542   C     0.16664   0.52427   0.75004   0.00000  Uiso   1.00
C543   C     0.16670   0.97572   0.75005   0.00000  Uiso   1.00
C544   C     0.20614   0.77087   0.55910   0.00000  Uiso   1.00
C545   C     0.14293   0.71582   0.94295   0.00000  Uiso   1.00
C546   C     0.20521   0.77077   0.60971   0.00000  Uiso   1.00
C547   C     0.14306   0.71662   0.89223   0.00000  Uiso   1.00
C548   C     0.12812   0.72924   0.59968   0.00000  Uiso   1.00
C549   C     0.19023   0.78337   0.89839   0.00000  Uiso   1.00
C550   C     0.12717   0.72912   0.54883   0.00000  Uiso   1.00
Cu551  Cu    0.16667   0.75000   0.79821   0.00000  Uiso   1.00
Cu552  Cu    0.16667   0.75001   0.70178   0.00000  Uiso   1.00
H553   H     0.32599   0.75005   0.69360   0.00000  Uiso   1.00
H554   H     0.12487   0.68812   0.95856   0.00000  Uiso   1.00
H555   H     0.23567   0.78730   0.63329   0.00000  Uiso   1.00
H556   H     0.12429   0.69024   0.87018   0.00000  Uiso   1.00
H557   H     0.09766   0.71273   0.61535   0.00000  Uiso   1.00
H558   H     0.20898   0.80977   0.88123   0.00000  Uiso   1.00
H559   H     0.09515   0.71319   0.52668   0.00000  Uiso   1.00
H560   H     0.20837   0.81189   0.96946   0.00000  Uiso   1.00
H561   H     0.13794   0.53030   0.67310   0.00000  Uiso   1.00
H562   H     0.13763   0.96951   0.81932   0.00000  Uiso   1.00
H563   H     0.00734   0.74997   0.80638   0.00000  Uiso   1.00
H564   H     0.19529   0.53048   0.82698   0.00000  Uiso   1.00
H565   H     0.19581   0.96969   0.68079   0.00000  Uiso   1.00
H566   H     0.19416   0.61090   0.82714   0.00000  Uiso   1.00
H567   H     0.19479   0.88925   0.68033   0.00000  Uiso   1.00
H568   H     0.13896   0.61074   0.67290   0.00000  Uiso   1.00
H569   H     0.13876   0.88908   0.81978   0.00000  Uiso   1.00
H570   H     0.23816   0.78678   0.54530   0.00000  Uiso   1.00
N571   N     0.16667   0.75001   0.62934   0.00000  Uiso   1.00
N572   N     0.16667   0.74999   0.87065   0.00000  Uiso   1.00
O573   O     0.16667   0.68573   0.79071   0.00000  Uiso   1.00
O574   O     0.16666   0.81428   0.70928   0.00000  Uiso   1.00
O575   O     0.16667   0.68573   0.70928   0.00000  Uiso   1.00
O576   O     0.16666   0.81427   0.79072   0.00000  Uiso   1.00
O577   O     0.09161   0.75000   0.78132   0.00000  Uiso   1.00
O578   O     0.24172   0.75001   0.71868   0.00000  Uiso   1.00
O579   O     0.09161   0.75000   0.69988   0.00000  Uiso   1.00
O580   O     0.24172   0.75000   0.80011   0.00000  Uiso   1.00
C581   C     0.49996   0.66494   0.74999   0.00000  Uiso   1.00
C582   C     0.52366   0.78418   0.94913   0.00000  Uiso   1.00
C583   C     0.49998   0.74999   0.52734   0.00000  Uiso   1.00
C584   C     0.49997   0.74999   0.97266   0.00000  Uiso   1.00
C585   C     0.40123   0.74999   0.73755   0.00000  Uiso   1.00
C586   C     0.59877   0.75002   0.76244   0.00000  Uiso   1.00
C587   C     0.34597   0.75001   0.73067   0.00000  Uiso   1.00
C588   C     0.65403   0.75000   0.76931   0.00000  Uiso   1.00
C589   C     0.51555   0.54765   0.79330   0.00000  Uiso   1.00
C590   C     0.51590   0.95244   0.71096   0.00000  Uiso   1.00
C591   C     0.51517   0.59355   0.79335   0.00000  Uiso   1.00
C592   C     0.50004   0.83506   0.75001   0.00000  Uiso   1.00
C593   C     0.51558   0.90653   0.71080   0.00000  Uiso   1.00
C594   C     0.49993   0.61671   0.75001   0.00000  Uiso   1.00
C595   C     0.50008   0.88329   0.75004   0.00000  Uiso   1.00
C596   C     0.48466   0.59346   0.70669   0.00000  Uiso   1.00
C597   C     0.48460   0.90644   0.78930   0.00000  Uiso   1.00
C598   C     0.48434   0.54756   0.70676   0.00000  Uiso   1.00
C599   C     0.48422   0.95234   0.78914   0.00000  Uiso   1.00
C600   C     0.49997   0.52427   0.75004   0.00000  Uiso   1.00
C601   C     0.50003   0.97572   0.75005   0.00000  Uiso   1.00
C602   C     0.53948   0.77087   0.55910   0.00000  Uiso   1.00
C603   C     0.47627   0.71582   0.94295   0.00000  Uiso   1.00
C604   C     0.53854   0.77077   0.60971   0.00000  Uiso   1.00
C605   C     0.47639   0.71662   0.89223   0.00000  Uiso   1.00
C606   C     0.46146   0.72924   0.59968   0.00000  Uiso   1.00
C607   C     0.52356   0.78337   0.89839   0.00000  Uiso   1.00
C608   C     0.46050   0.72912   0.54883   0.00000  Uiso   1.00
Cu609  Cu    0.50000   0.75000   0.79821   0.00000  Uiso   1.00
Cu610  Cu    0.50000   0.75001   0.70178   0.00000  Uiso   1.00
H611   H     0.65933   0.75005   0.69360   0.00000  Uiso   1.00
H612   H     0.45821   0.68812   0.95856   0.00000  Uiso   1.00
H613   H     0.56901   0.78730   0.63329   0.00000  Uiso   1.00
H614   H     0.45762   0.69024   0.87018   0.00000  Uiso   1.00
H615   H     0.43100   0.71273   0.61535   0.00000  Uiso   1.00
H616   H     0.54231   0.80977   0.88123   0.00000  Uiso   1.00
H617   H     0.42848   0.71319   0.52668   0.00000  Uiso   1.00
H618   H     0.54170   0.81189   0.96946   0.00000  Uiso   1.00
H619   H     0.47128   0.53030   0.67310   0.00000  Uiso   1.00
H620   H     0.47096   0.96951   0.81932   0.00000  Uiso   1.00
H621   H     0.34067   0.74997   0.80638   0.00000  Uiso   1.00
H622   H     0.52862   0.53048   0.82698   0.00000  Uiso   1.00
H623   H     0.52914   0.96969   0.68079   0.00000  Uiso   1.00
H624   H     0.52749   0.61090   0.82714   0.00000  Uiso   1.00
H625   H     0.52812   0.88925   0.68033   0.00000  Uiso   1.00
H626   H     0.47229   0.61074   0.67290   0.00000  Uiso   1.00
H627   H     0.47209   0.88908   0.81978   0.00000  Uiso   1.00
H628   H     0.57150   0.78678   0.54530   0.00000  Uiso   1.00
N629   N     0.50000   0.75001   0.62934   0.00000  Uiso   1.00
N630   N     0.50000   0.74999   0.87065   0.00000  Uiso   1.00
O631   O     0.50000   0.68573   0.79071   0.00000  Uiso   1.00
O632   O     0.50000   0.81428   0.70928   0.00000  Uiso   1.00
O633   O     0.50000   0.68573   0.70928   0.00000  Uiso   1.00
O634   O     0.50000   0.81427   0.79072   0.00000  Uiso   1.00
O635   O     0.42495   0.75000   0.78132   0.00000  Uiso   1.00
O636   O     0.57505   0.75001   0.71868   0.00000  Uiso   1.00
O637   O     0.42495   0.75000   0.69988   0.00000  Uiso   1.00
O638   O     0.57505   0.75000   0.80011   0.00000  Uiso   1.00
C639   C     0.83329   0.66494   0.74999   0.00000  Uiso   1.00
C640   C     0.85700   0.78418   0.94913   0.00000  Uiso   1.00
C641   C     0.83332   0.74999   0.52734   0.00000  Uiso   1.00
C642   C     0.83330   0.74999   0.97266   0.00000  Uiso   1.00
C643   C     0.73456   0.74999   0.73755   0.00000  Uiso   1.00
C644   C     0.93210   0.75002   0.76244   0.00000  Uiso   1.00
C645   C     0.67930   0.75001   0.73067   0.00000  Uiso   1.00
C646   C     0.98736   0.75000   0.76931   0.00000  Uiso   1.00
C647   C     0.84888   0.54765   0.79330   0.00000  Uiso   1.00
C648   C     0.84923   0.95244   0.71096   0.00000  Uiso   1.00
C649   C     0.84850   0.59355   0.79335   0.00000  Uiso   1.00
C650   C     0.83337   0.83506   0.75001   0.00000  Uiso   1.00
C651   C     0.84891   0.90653   0.71080   0.00000  Uiso   1.00
C652   C     0.83326   0.61671   0.75001   0.00000  Uiso   1.00
C653   C     0.83341   0.88329   0.75004   0.00000  Uiso   1.00
C654   C     0.81799   0.59346   0.70669   0.00000  Uiso   1.00
C655   C     0.81793   0.90644   0.78930   0.00000  Uiso   1.00
C656   C     0.81767   0.54756   0.70676   0.00000  Uiso   1.00
C657   C     0.81756   0.95234   0.78914   0.00000  Uiso   1.00
C658   C     0.83330   0.52427   0.75004   0.00000  Uiso   1.00
C659   C     0.83336   0.97572   0.75005   0.00000  Uiso   1.00
C660   C     0.87281   0.77087   0.55910   0.00000  Uiso   1.00
C661   C     0.80960   0.71582   0.94295   0.00000  Uiso   1.00
C662   C     0.87187   0.77077   0.60971   0.00000  Uiso   1.00
C663   C     0.80973   0.71662   0.89223   0.00000  Uiso   1.00
C664   C     0.79479   0.72924   0.59968   0.00000  Uiso   1.00
C665   C     0.85689   0.78337   0.89839   0.00000  Uiso   1.00
C666   C     0.79384   0.72912   0.54883   0.00000  Uiso   1.00
Cu667  Cu    0.83333   0.75000   0.79821   0.00000  Uiso   1.00
Cu668  Cu    0.83333   0.75001   0.70178   0.00000  Uiso   1.00
H669   H     0.99266   0.75005   0.69360   0.00000  Uiso   1.00
H670   H     0.79154   0.68812   0.95856   0.00000  Uiso   1.00
H671   H     0.90234   0.78730   0.63329   0.00000  Uiso   1.00
H672   H     0.79096   0.69024   0.87018   0.00000  Uiso   1.00
H673   H     0.76433   0.71273   0.61535   0.00000  Uiso   1.00
H674   H     0.87564   0.80977   0.88123   0.00000  Uiso   1.00
H675   H     0.76181   0.71319   0.52668   0.00000  Uiso   1.00
H676   H     0.87503   0.81189   0.96946   0.00000  Uiso   1.00
H677   H     0.80461   0.53030   0.67310   0.00000  Uiso   1.00
H678   H     0.80429   0.96951   0.81932   0.00000  Uiso   1.00
H679   H     0.67401   0.74997   0.80638   0.00000  Uiso   1.00
H680   H     0.86196   0.53048   0.82698   0.00000  Uiso   1.00
H681   H     0.86247   0.96969   0.68079   0.00000  Uiso   1.00
H682   H     0.86082   0.61090   0.82714   0.00000  Uiso   1.00
H683   H     0.86146   0.88925   0.68033   0.00000  Uiso   1.00
H684   H     0.80563   0.61074   0.67290   0.00000  Uiso   1.00
H685   H     0.80542   0.88908   0.81978   0.00000  Uiso   1.00
H686   H     0.90483   0.78678   0.54530   0.00000  Uiso   1.00
N687   N     0.83333   0.75001   0.62934   0.00000  Uiso   1.00
N688   N     0.83333   0.74999   0.87065   0.00000  Uiso   1.00
O689   O     0.83334   0.68573   0.79071   0.00000  Uiso   1.00
O690   O     0.83333   0.81428   0.70928   0.00000  Uiso   1.00
O691   O     0.83334   0.68573   0.70928   0.00000  Uiso   1.00
O692   O     0.83333   0.81427   0.79072   0.00000  Uiso   1.00
O693   O     0.75828   0.75000   0.78132   0.00000  Uiso   1.00
O694   O     0.90839   0.75001   0.71868   0.00000  Uiso   1.00
O695   O     0.75828   0.75000   0.69988   0.00000  Uiso   1.00
O696   O     0.90839   0.75000   0.80011   0.00000  Uiso   1.00
loop_
_geom_bond_atom_site_label_1
_geom_bond_atom_site_label_2
_geom_bond_distance
_geom_bond_site_symmetry_2
_ccdc_geom_bond_type
C1     O51     1.293   .     A
C1     O53     1.293   .     A
C1     C14     1.460   .     S
C2     C4      1.411   .     A
C2     C27     1.407   .     A
C2     H38     1.081   .     S
C3     C28     1.411   .     A
C3     C22     1.411   .     A
C3     C352    1.516   1_554 S
C4     C23     1.411   .     A
C4     C351    1.516   .     S
C5     O57     1.287   .     A
C5     C7      1.434   .     S
C5     O55     1.285   .     A
C6     O58     1.287   .     A
C6     C8      1.434   .     S
C6     O56     1.285   .     A
C7     C124    1.335   1_455 S
C7     H147    1.087   1_455 S
C8     C65     1.335   .     S
C8     H99     1.087   .     S
C9     C11     1.390   .     A
C9     C20     1.404   .     A
C9     H42     1.083   .     S
C10    C21     1.404   .     A
C10    H43     1.083   .     S
C10    C13     1.390   .     A
C11    H44     1.083   .     S
C11    C14     1.402   .     A
C12    C15     1.460   .     S
C12    O52     1.293   .     A
C12    O54     1.293   .     A
C13    H45     1.083   .     S
C13    C15     1.402   .     A
C14    C16     1.402   .     A
C15    C17     1.402   .     A
C16    C18     1.390   .     A
C16    H46     1.083   .     S
C17    C19     1.390   .     A
C17    H47     1.083   .     S
C18    H39     1.083   .     S
C18    C20     1.404   .     A
C19    H40     1.083   .     S
C19    C21     1.404   .     A
C20    C195    1.470   1_545 S
C21    C194    1.470   .     S
C22    C24     1.407   .     A
C22    H48     1.081   .     S
C23    H32     1.081   .     S
C23    C25     1.407   .     A
C24    H33     1.081   .     S
C24    N49     1.364   .     A
C25    H34     1.081   .     S
C25    N50     1.364   .     A
C26    C28     1.407   .     A
C26    H35     1.081   .     S
C26    N49     1.364   .     A
C27    N50     1.364   .     A
C27    H36     1.081   .     S
C28    H37     1.081   .     S
Cu29   Cu30    2.674   .     S
Cu29   O58     1.960   .     S
Cu29   N50     2.009   .     S
Cu29   O51     1.957   .     S
Cu29   O54     1.957   .     S
Cu29   O55     1.958   .     S
Cu30   N49     2.009   .     S
Cu30   O53     1.957   .     S
Cu30   O57     1.960   .     S
Cu30   O52     1.957   .     S
Cu30   O56     1.958   .     S
H31    C65     1.087   .     S
H41    C124    1.087   1_455 S
C59    O109    1.293   .     A
C59    O111    1.293   .     A
C59    C72     1.460   .     S
C60    C62     1.411   .     A
C60    C85     1.407   .     A
C60    H96     1.081   .     S
C61    C86     1.411   .     A
C61    C80     1.411   .     A
C61    C410    1.516   1_554 S
C62    C81     1.411   .     A
C62    C409    1.516   .     S
C63    O115    1.287   .     A
C63    C65     1.434   .     S
C63    O113    1.285   .     A
C64    O116    1.287   .     A
C64    C66     1.434   .     S
C64    O114    1.285   .     A
C66    C123    1.335   .     S
C66    H157    1.087   .     S
C67    C69     1.390   .     A
C67    C78     1.404   .     A
C67    H100    1.083   .     S
C68    C79     1.404   .     A
C68    H101    1.083   .     S
C68    C71     1.390   .     A
C69    H102    1.083   .     S
C69    C72     1.402   .     A
C70    C73     1.460   .     S
C70    O110    1.293   .     A
C70    O112    1.293   .     A
C71    H103    1.083   .     S
C71    C73     1.402   .     A
C72    C74     1.402   .     A
C73    C75     1.402   .     A
C74    C76     1.390   .     A
C74    H104    1.083   .     S
C75    C77     1.390   .     A
C75    H105    1.083   .     S
C76    H97     1.083   .     S
C76    C78     1.404   .     A
C77    H98     1.083   .     S
C77    C79     1.404   .     A
C78    C253    1.470   1_545 S
C79    C252    1.470   .     S
C80    C82     1.407   .     A
C80    H106    1.081   .     S
C81    H90     1.081   .     S
C81    C83     1.407   .     A
C82    H91     1.081   .     S
C82    N107    1.364   .     A
C83    H92     1.081   .     S
C83    N108    1.364   .     A
C84    C86     1.407   .     A
C84    H93     1.081   .     S
C84    N107    1.364   .     A
C85    N108    1.364   .     A
C85    H94     1.081   .     S
C86    H95     1.081   .     S
Cu87   Cu88    2.674   .     S
Cu87   O116    1.960   .     S
Cu87   N108    2.009   .     S
Cu87   O109    1.957   .     S
Cu87   O112    1.957   .     S
Cu87   O113    1.958   .     S
Cu88   N107    2.009   .     S
Cu88   O111    1.957   .     S
Cu88   O115    1.960   .     S
Cu88   O110    1.957   .     S
Cu88   O114    1.958   .     S
H89    C123    1.087   .     S
C117   O167    1.293   .     A
C117   O169    1.293   .     A
C117   C130    1.460   .     S
C118   C120    1.411   .     A
C118   C143    1.407   .     A
C118   H154    1.081   .     S
C119   C144    1.411   .     A
C119   C138    1.411   .     A
C119   C468    1.516   1_554 S
C120   C139    1.411   .     A
C120   C467    1.516   .     S
C121   O173    1.287   .     A
C121   C123    1.434   .     S
C121   O171    1.285   .     A
C122   O174    1.287   .     A
C122   C124    1.434   .     S
C122   O172    1.285   .     A
C124   C7      1.335   1_655 S
C124   H41     1.087   1_655 S
C125   C127    1.390   .     A
C125   C136    1.404   .     A
C125   H158    1.083   .     S
C126   C137    1.404   .     A
C126   H159    1.083   .     S
C126   C129    1.390   .     A
C127   H160    1.083   .     S
C127   C130    1.402   .     A
C128   C131    1.460   .     S
C128   O168    1.293   .     A
C128   O170    1.293   .     A
C129   H161    1.083   .     S
C129   C131    1.402   .     A
C130   C132    1.402   .     A
C131   C133    1.402   .     A
C132   C134    1.390   .     A
C132   H162    1.083   .     S
C133   C135    1.390   .     A
C133   H163    1.083   .     S
C134   H155    1.083   .     S
C134   C136    1.404   .     A
C135   H156    1.083   .     S
C135   C137    1.404   .     A
C136   C311    1.470   1_545 S
C137   C310    1.470   .     S
C138   C140    1.407   .     A
C138   H164    1.081   .     S
C139   H148    1.081   .     S
C139   C141    1.407   .     A
C140   H149    1.081   .     S
C140   N165    1.364   .     A
C141   H150    1.081   .     S
C141   N166    1.364   .     A
C142   C144    1.407   .     A
C142   H151    1.081   .     S
C142   N165    1.364   .     A
C143   N166    1.364   .     A
C143   H152    1.081   .     S
C144   H153    1.081   .     S
Cu145  Cu146   2.674   .     S
Cu145  O174    1.960   .     S
Cu145  N166    2.009   .     S
Cu145  O167    1.957   .     S
Cu145  O170    1.957   .     S
Cu145  O171    1.958   .     S
Cu146  N165    2.009   .     S
Cu146  O169    1.957   .     S
Cu146  O173    1.960   .     S
Cu146  O168    1.957   .     S
Cu146  O172    1.958   .     S
H147   C7      1.087   1_655 S
C175   O225    1.293   .     A
C175   O227    1.293   .     A
C175   C188    1.460   .     S
C176   C178    1.411   .     A
C176   C201    1.407   .     A
C176   H212    1.081   .     S
C177   C202    1.411   .     A
C177   C196    1.411   .     A
C177   C526    1.516   1_554 S
C178   C197    1.411   .     A
C178   C525    1.516   .     S
C179   O231    1.287   .     A
C179   C181    1.434   .     S
C179   O229    1.285   .     A
C180   O232    1.287   .     A
C180   C182    1.434   .     S
C180   O230    1.285   .     A
C181   C298    1.335   1_455 S
C181   H321    1.087   1_455 S
C182   C239    1.335   .     S
C182   H273    1.087   .     S
C183   C185    1.390   .     A
C183   C194    1.404   .     A
C183   H216    1.083   .     S
C184   C195    1.404   .     A
C184   H217    1.083   .     S
C184   C187    1.390   .     A
C185   H218    1.083   .     S
C185   C188    1.402   .     A
C186   C189    1.460   .     S
C186   O226    1.293   .     A
C186   O228    1.293   .     A
C187   H219    1.083   .     S
C187   C189    1.402   .     A
C188   C190    1.402   .     A
C189   C191    1.402   .     A
C190   C192    1.390   .     A
C190   H220    1.083   .     S
C191   C193    1.390   .     A
C191   H221    1.083   .     S
C192   H213    1.083   .     S
C192   C194    1.404   .     A
C193   H214    1.083   .     S
C193   C195    1.404   .     A
C195   C20     1.470   1_565 S
C196   C198    1.407   .     A
C196   H222    1.081   .     S
C197   H206    1.081   .     S
C197   C199    1.407   .     A
C198   H207    1.081   .     S
C198   N223    1.364   .     A
C199   H208    1.081   .     S
C199   N224    1.364   .     A
C200   C202    1.407   .     A
C200   H209    1.081   .     S
C200   N223    1.364   .     A
C201   N224    1.364   .     A
C201   H210    1.081   .     S
C202   H211    1.081   .     S
Cu203  Cu204   2.674   .     S
Cu203  O232    1.960   .     S
Cu203  N224    2.009   .     S
Cu203  O225    1.957   .     S
Cu203  O228    1.957   .     S
Cu203  O229    1.958   .     S
Cu204  N223    2.009   .     S
Cu204  O227    1.957   .     S
Cu204  O231    1.960   .     S
Cu204  O226    1.957   .     S
Cu204  O230    1.958   .     S
H205   C239    1.087   .     S
H215   C298    1.087   1_455 S
C233   O283    1.293   .     A
C233   O285    1.293   .     A
C233   C246    1.460   .     S
C234   C236    1.411   .     A
C234   C259    1.407   .     A
C234   H270    1.081   .     S
C235   C260    1.411   .     A
C235   C254    1.411   .     A
C235   C584    1.516   1_554 S
C236   C255    1.411   .     A
C236   C583    1.516   .     S
C237   O289    1.287   .     A
C237   C239    1.434   .     S
C237   O287    1.285   .     A
C238   O290    1.287   .     A
C238   C240    1.434   .     S
C238   O288    1.285   .     A
C240   C297    1.335   .     S
C240   H331    1.087   .     S
C241   C243    1.390   .     A
C241   C252    1.404   .     A
C241   H274    1.083   .     S
C242   C253    1.404   .     A
C242   H275    1.083   .     S
C242   C245    1.390   .     A
C243   H276    1.083   .     S
C243   C246    1.402   .     A
C244   C247    1.460   .     S
C244   O284    1.293   .     A
C244   O286    1.293   .     A
C245   H277    1.083   .     S
C245   C247    1.402   .     A
C246   C248    1.402   .     A
C247   C249    1.402   .     A
C248   C250    1.390   .     A
C248   H278    1.083   .     S
C249   C251    1.390   .     A
C249   H279    1.083   .     S
C250   H271    1.083   .     S
C250   C252    1.404   .     A
C251   H272    1.083   .     S
C251   C253    1.404   .     A
C253   C78     1.470   1_565 S
C254   C256    1.407   .     A
C254   H280    1.081   .     S
C255   H264    1.081   .     S
C255   C257    1.407   .     A
C256   H265    1.081   .     S
C256   N281    1.364   .     A
C257   H266    1.081   .     S
C257   N282    1.364   .     A
C258   C260    1.407   .     A
C258   H267    1.081   .     S
C258   N281    1.364   .     A
C259   N282    1.364   .     A
C259   H268    1.081   .     S
C260   H269    1.081   .     S
Cu261  Cu262   2.674   .     S
Cu261  O290    1.960   .     S
Cu261  N282    2.009   .     S
Cu261  O283    1.957   .     S
Cu261  O286    1.957   .     S
Cu261  O287    1.958   .     S
Cu262  N281    2.009   .     S
Cu262  O285    1.957   .     S
Cu262  O289    1.960   .     S
Cu262  O284    1.957   .     S
Cu262  O288    1.958   .     S
H263   C297    1.087   .     S
C291   O341    1.293   .     A
C291   O343    1.293   .     A
C291   C304    1.460   .     S
C292   C294    1.411   .     A
C292   C317    1.407   .     A
C292   H328    1.081   .     S
C293   C318    1.411   .     A
C293   C312    1.411   .     A
C293   C642    1.516   1_554 S
C294   C313    1.411   .     A
C294   C641    1.516   .     S
C295   O347    1.287   .     A
C295   C297    1.434   .     S
C295   O345    1.285   .     A
C296   O348    1.287   .     A
C296   C298    1.434   .     S
C296   O346    1.285   .     A
C298   C181    1.335   1_655 S
C298   H215    1.087   1_655 S
C299   C301    1.390   .     A
C299   C310    1.404   .     A
C299   H332    1.083   .     S
C300   C311    1.404   .     A
C300   H333    1.083   .     S
C300   C303    1.390   .     A
C301   H334    1.083   .     S
C301   C304    1.402   .     A
C302   C305    1.460   .     S
C302   O342    1.293   .     A
C302   O344    1.293   .     A
C303   H335    1.083   .     S
C303   C305    1.402   .     A
C304   C306    1.402   .     A
C305   C307    1.402   .     A
C306   C308    1.390   .     A
C306   H336    1.083   .     S
C307   C309    1.390   .     A
C307   H337    1.083   .     S
C308   H329    1.083   .     S
C308   C310    1.404   .     A
C309   H330    1.083   .     S
C309   C311    1.404   .     A
C311   C136    1.470   1_565 S
C312   C314    1.407   .     A
C312   H338    1.081   .     S
C313   H322    1.081   .     S
C313   C315    1.407   .     A
C314   H323    1.081   .     S
C314   N339    1.364   .     A
C315   H324    1.081   .     S
C315   N340    1.364   .     A
C316   C318    1.407   .     A
C316   H325    1.081   .     S
C316   N339    1.364   .     A
C317   N340    1.364   .     A
C317   H326    1.081   .     S
C318   H327    1.081   .     S
Cu319  Cu320   2.674   .     S
Cu319  O348    1.960   .     S
Cu319  N340    2.009   .     S
Cu319  O341    1.957   .     S
Cu319  O344    1.957   .     S
Cu319  O345    1.958   .     S
Cu320  N339    2.009   .     S
Cu320  O343    1.957   .     S
Cu320  O347    1.960   .     S
Cu320  O342    1.957   .     S
Cu320  O346    1.958   .     S
H321   C181    1.087   1_655 S
C349   O399    1.293   .     A
C349   O401    1.293   .     A
C349   C362    1.460   .     S
C350   C352    1.411   .     A
C350   C375    1.407   .     A
C350   H386    1.081   .     S
C351   C376    1.411   .     A
C351   C370    1.411   .     A
C352   C371    1.411   .     A
C352   C3      1.516   1_556 S
C353   O405    1.287   .     A
C353   C355    1.434   .     S
C353   O403    1.285   .     A
C354   O406    1.287   .     A
C354   C356    1.434   .     S
C354   O404    1.285   .     A
C355   C472    1.335   1_455 S
C355   H495    1.087   1_455 S
C356   C413    1.335   .     S
C356   H447    1.087   .     S
C357   C359    1.390   .     A
C357   C368    1.404   .     A
C357   H390    1.083   .     S
C358   C369    1.404   .     A
C358   H391    1.083   .     S
C358   C361    1.390   .     A
C359   H392    1.083   .     S
C359   C362    1.402   .     A
C360   C363    1.460   .     S
C360   O400    1.293   .     A
C360   O402    1.293   .     A
C361   H393    1.083   .     S
C361   C363    1.402   .     A
C362   C364    1.402   .     A
C363   C365    1.402   .     A
C364   C366    1.390   .     A
C364   H394    1.083   .     S
C365   C367    1.390   .     A
C365   H395    1.083   .     S
C366   H387    1.083   .     S
C366   C368    1.404   .     A
C367   H388    1.083   .     S
C367   C369    1.404   .     A
C368   C543    1.470   1_545 S
C369   C542    1.470   .     S
C370   C372    1.407   .     A
C370   H396    1.081   .     S
C371   H380    1.081   .     S
C371   C373    1.407   .     A
C372   H381    1.081   .     S
C372   N397    1.364   .     A
C373   H382    1.081   .     S
C373   N398    1.364   .     A
C374   C376    1.407   .     A
C374   H383    1.081   .     S
C374   N397    1.364   .     A
C375   N398    1.364   .     A
C375   H384    1.081   .     S
C376   H385    1.081   .     S
Cu377  Cu378   2.674   .     S
Cu377  O406    1.960   .     S
Cu377  N398    2.009   .     S
Cu377  O399    1.957   .     S
Cu377  O402    1.957   .     S
Cu377  O403    1.958   .     S
Cu378  N397    2.009   .     S
Cu378  O401    1.957   .     S
Cu378  O405    1.960   .     S
Cu378  O400    1.957   .     S
Cu378  O404    1.958   .     S
H379   C413    1.087   .     S
H389   C472    1.087   1_455 S
C407   O457    1.293   .     A
C407   O459    1.293   .     A
C407   C420    1.460   .     S
C408   C410    1.411   .     A
C408   C433    1.407   .     A
C408   H444    1.081   .     S
C409   C434    1.411   .     A
C409   C428    1.411   .     A
C410   C429    1.411   .     A
C410   C61     1.516   1_556 S
C411   O463    1.287   .     A
C411   C413    1.434   .     S
C411   O461    1.285   .     A
C412   O464    1.287   .     A
C412   C414    1.434   .     S
C412   O462    1.285   .     A
C414   C471    1.335   .     S
C414   H505    1.087   .     S
C415   C417    1.390   .     A
C415   C426    1.404   .     A
C415   H448    1.083   .     S
C416   C427    1.404   .     A
C416   H449    1.083   .     S
C416   C419    1.390   .     A
C417   H450    1.083   .     S
C417   C420    1.402   .     A
C418   C421    1.460   .     S
C418   O458    1.293   .     A
C418   O460    1.293   .     A
C419   H451    1.083   .     S
C419   C421    1.402   .     A
C420   C422    1.402   .     A
C421   C423    1.402   .     A
C422   C424    1.390   .     A
C422   H452    1.083   .     S
C423   C425    1.390   .     A
C423   H453    1.083   .     S
C424   H445    1.083   .     S
C424   C426    1.404   .     A
C425   H446    1.083   .     S
C425   C427    1.404   .     A
C426   C601    1.470   1_545 S
C427   C600    1.470   .     S
C428   C430    1.407   .     A
C428   H454    1.081   .     S
C429   H438    1.081   .     S
C429   C431    1.407   .     A
C430   H439    1.081   .     S
C430   N455    1.364   .     A
C431   H440    1.081   .     S
C431   N456    1.364   .     A
C432   C434    1.407   .     A
C432   H441    1.081   .     S
C432   N455    1.364   .     A
C433   N456    1.364   .     A
C433   H442    1.081   .     S
C434   H443    1.081   .     S
Cu435  Cu436   2.674   .     S
Cu435  O464    1.960   .     S
Cu435  N456    2.009   .     S
Cu435  O457    1.957   .     S
Cu435  O460    1.957   .     S
Cu435  O461    1.958   .     S
Cu436  N455    2.009   .     S
Cu436  O459    1.957   .     S
Cu436  O463    1.960   .     S
Cu436  O458    1.957   .     S
Cu436  O462    1.958   .     S
H437   C471    1.087   .     S
C465   O515    1.293   .     A
C465   O517    1.293   .     A
C465   C478    1.460   .     S
C466   C468    1.411   .     A
C466   C491    1.407   .     A
C466   H502    1.081   .     S
C467   C492    1.411   .     A
C467   C486    1.411   .     A
C468   C487    1.411   .     A
C468   C119    1.516   1_556 S
C469   O521    1.287   .     A
C469   C471    1.434   .     S
C469   O519    1.285   .     A
C470   O522    1.287   .     A
C470   C472    1.434   .     S
C470   O520    1.285   .     A
C472   C355    1.335   1_655 S
C472   H389    1.087   1_655 S
C473   C475    1.390   .     A
C473   C484    1.404   .     A
C473   H506    1.083   .     S
C474   C485    1.404   .     A
C474   H507    1.083   .     S
C474   C477    1.390   .     A
C475   H508    1.083   .     S
C475   C478    1.402   .     A
C476   C479    1.460   .     S
C476   O516    1.293   .     A
C476   O518    1.293   .     A
C477   H509    1.083   .     S
C477   C479    1.402   .     A
C478   C480    1.402   .     A
C479   C481    1.402   .     A
C480   C482    1.390   .     A
C480   H510    1.083   .     S
C481   C483    1.390   .     A
C481   H511    1.083   .     S
C482   H503    1.083   .     S
C482   C484    1.404   .     A
C483   H504    1.083   .     S
C483   C485    1.404   .     A
C484   C659    1.470   1_545 S
C485   C658    1.470   .     S
C486   C488    1.407   .     A
C486   H512    1.081   .     S
C487   H496    1.081   .     S
C487   C489    1.407   .     A
C488   H497    1.081   .     S
C488   N513    1.364   .     A
C489   H498    1.081   .     S
C489   N514    1.364   .     A
C490   C492    1.407   .     A
C490   H499    1.081   .     S
C490   N513    1.364   .     A
C491   N514    1.364   .     A
C491   H500    1.081   .     S
C492   H501    1.081   .     S
Cu493  Cu494   2.674   .     S
Cu493  O522    1.960   .     S
Cu493  N514    2.009   .     S
Cu493  O515    1.957   .     S
Cu493  O518    1.957   .     S
Cu493  O519    1.958   .     S
Cu494  N513    2.009   .     S
Cu494  O517    1.957   .     S
Cu494  O521    1.960   .     S
Cu494  O516    1.957   .     S
Cu494  O520    1.958   .     S
H495   C355    1.087   1_655 S
C523   O573    1.293   .     A
C523   O575    1.293   .     A
C523   C536    1.460   .     S
C524   C526    1.411   .     A
C524   C549    1.407   .     A
C524   H560    1.081   .     S
C525   C550    1.411   .     A
C525   C544    1.411   .     A
C526   C545    1.411   .     A
C526   C177    1.516   1_556 S
C527   O579    1.287   .     A
C527   C529    1.434   .     S
C527   O577    1.285   .     A
C528   O580    1.287   .     A
C528   C530    1.434   .     S
C528   O578    1.285   .     A
C529   C646    1.335   1_455 S
C529   H669    1.087   1_455 S
C530   C587    1.335   .     S
C530   H621    1.087   .     S
C531   C533    1.390   .     A
C531   C542    1.404   .     A
C531   H564    1.083   .     S
C532   C543    1.404   .     A
C532   H565    1.083   .     S
C532   C535    1.390   .     A
C533   H566    1.083   .     S
C533   C536    1.402   .     A
C534   C537    1.460   .     S
C534   O574    1.293   .     A
C534   O576    1.293   .     A
C535   H567    1.083   .     S
C535   C537    1.402   .     A
C536   C538    1.402   .     A
C537   C539    1.402   .     A
C538   C540    1.390   .     A
C538   H568    1.083   .     S
C539   C541    1.390   .     A
C539   H569    1.083   .     S
C540   H561    1.083   .     S
C540   C542    1.404   .     A
C541   H562    1.083   .     S
C541   C543    1.404   .     A
C543   C368    1.470   1_565 S
C544   C546    1.407   .     A
C544   H570    1.081   .     S
C545   H554    1.081   .     S
C545   C547    1.407   .     A
C546   H555    1.081   .     S
C546   N571    1.364   .     A
C547   H556    1.081   .     S
C547   N572    1.364   .     A
C548   C550    1.407   .     A
C548   H557    1.081   .     S
C548   N571    1.364   .     A
C549   N572    1.364   .     A
C549   H558    1.081   .     S
C550   H559    1.081   .     S
Cu551  Cu552   2.674   .     S
Cu551  O580    1.960   .     S
Cu551  N572    2.009   .     S
Cu551  O573    1.957   .     S
Cu551  O576    1.957   .     S
Cu551  O577    1.958   .     S
Cu552  N571    2.009   .     S
Cu552  O575    1.957   .     S
Cu552  O579    1.960   .     S
Cu552  O574    1.957   .     S
Cu552  O578    1.958   .     S
H553   C587    1.087   .     S
H563   C646    1.087   1_455 S
C581   O631    1.293   .     A
C581   O633    1.293   .     A
C581   C594    1.460   .     S
C582   C584    1.411   .     A
C582   C607    1.407   .     A
C582   H618    1.081   .     S
C583   C608    1.411   .     A
C583   C602    1.411   .     A
C584   C603    1.411   .     A
C584   C235    1.516   1_556 S
C585   O637    1.287   .     A
C585   C587    1.434   .     S
C585   O635    1.285   .     A
C586   O638    1.287   .     A
C586   C588    1.434   .     S
C586   O636    1.285   .     A
C588   C645    1.335   .     S
C588   H679    1.087   .     S
C589   C591    1.390   .     A
C589   C600    1.404   .     A
C589   H622    1.083   .     S
C590   C601    1.404   .     A
C590   H623    1.083   .     S
C590   C593    1.390   .     A
C591   H624    1.083   .     S
C591   C594    1.402   .     A
C592   C595    1.460   .     S
C592   O632    1.293   .     A
C592   O634    1.293   .     A
C593   H625    1.083   .     S
C593   C595    1.402   .     A
C594   C596    1.402   .     A
C595   C597    1.402   .     A
C596   C598    1.390   .     A
C596   H626    1.083   .     S
C597   C599    1.390   .     A
C597   H627    1.083   .     S
C598   H619    1.083   .     S
C598   C600    1.404   .     A
C599   H620    1.083   .     S
C599   C601    1.404   .     A
C601   C426    1.470   1_565 S
C602   C604    1.407   .     A
C602   H628    1.081   .     S
C603   H612    1.081   .     S
C603   C605    1.407   .     A
C604   H613    1.081   .     S
C604   N629    1.364   .     A
C605   H614    1.081   .     S
C605   N630    1.364   .     A
C606   C608    1.407   .     A
C606   H615    1.081   .     S
C606   N629    1.364   .     A
C607   N630    1.364   .     A
C607   H616    1.081   .     S
C608   H617    1.081   .     S
Cu609  Cu610   2.674   .     S
Cu609  O638    1.960   .     S
Cu609  N630    2.009   .     S
Cu609  O631    1.957   .     S
Cu609  O634    1.957   .     S
Cu609  O635    1.958   .     S
Cu610  N629    2.009   .     S
Cu610  O633    1.957   .     S
Cu610  O637    1.960   .     S
Cu610  O632    1.957   .     S
Cu610  O636    1.958   .     S
H611   C645    1.087   .     S
C639   O689    1.293   .     A
C639   O691    1.293   .     A
C639   C652    1.460   .     S
C640   C642    1.411   .     A
C640   C665    1.407   .     A
C640   H676    1.081   .     S
C641   C666    1.411   .     A
C641   C660    1.411   .     A
C642   C661    1.411   .     A
C642   C293    1.516   1_556 S
C643   O695    1.287   .     A
C643   C645    1.434   .     S
C643   O693    1.285   .     A
C644   O696    1.287   .     A
C644   C646    1.434   .     S
C644   O694    1.285   .     A
C646   C529    1.335   1_655 S
C646   H563    1.087   1_655 S
C647   C649    1.390   .     A
C647   C658    1.404   .     A
C647   H680    1.083   .     S
C648   C659    1.404   .     A
C648   H681    1.083   .     S
C648   C651    1.390   .     A
C649   H682    1.083   .     S
C649   C652    1.402   .     A
C650   C653    1.460   .     S
C650   O690    1.293   .     A
C650   O692    1.293   .     A
C651   H683    1.083   .     S
C651   C653    1.402   .     A
C652   C654    1.402   .     A
C653   C655    1.402   .     A
C654   C656    1.390   .     A
C654   H684    1.083   .     S
C655   C657    1.390   .     A
C655   H685    1.083   .     S
C656   H677    1.083   .     S
C656   C658    1.404   .     A
C657   H678    1.083   .     S
C657   C659    1.404   .     A
C659   C484    1.470   1_565 S
C660   C662    1.407   .     A
C660   H686    1.081   .     S
C661   H670    1.081   .     S
C661   C663    1.407   .     A
C662   H671    1.081   .     S
C662   N687    1.364   .     A
C663   H672    1.081   .     S
C663   N688    1.364   .     A
C664   C666    1.407   .     A
C664   H673    1.081   .     S
C664   N687    1.364   .     A
C665   N688    1.364   .     A
C665   H674    1.081   .     S
C666   H675    1.081   .     S
Cu667  Cu668   2.674   .     S
Cu667  O696    1.960   .     S
Cu667  N688    2.009   .     S
Cu667  O689    1.957   .     S
Cu667  O692    1.957   .     S
Cu667  O693    1.958   .     S
Cu668  N687    2.009   .     S
Cu668  O691    1.957   .     S
Cu668  O695    1.960   .     S
Cu668  O690    1.957   .     S
Cu668  O694    1.958   .     S
H669   C529    1.087   1_655 S
