data_str_m2_o10_o17_pcu_sym.137
_audit_creation_date              2020-01-03
_audit_creation_method            'Materials Studio'
_symmetry_space_group_name_H-M    'P1'
_symmetry_Int_Tables_number       1
_symmetry_cell_setting            triclinic
loop_
_symmetry_equiv_pos_as_xyz
  x,y,z
_cell_length_a                    30.1334
_cell_length_b                    26.0441
_cell_length_c                    22.2997
_cell_angle_alpha                 102.9860
_cell_angle_beta                  93.9070
_cell_angle_gamma                 92.4144
loop_
_atom_site_label
_atom_site_type_symbol
_atom_site_fract_x
_atom_site_fract_y
_atom_site_fract_z
_atom_site_U_iso_or_equiv
_atom_site_adp_type
_atom_site_occupancy
C1     C     0.24866   0.06655   0.15107   0.00000  Uiso   1.00
C2     C     0.25134   0.26678   0.18226   0.00000  Uiso   1.00
C3     C     0.02389   0.12781   0.25755   0.00000  Uiso   1.00
C4     C     0.47611   0.20552   0.07578   0.00000  Uiso   1.00
C5     C     0.24808   0.01059   0.14227   0.00000  Uiso   1.00
C6     C     0.25192   0.32274   0.19106   0.00000  Uiso   1.00
C7     C     0.16442   0.16602   0.16759   0.00000  Uiso   1.00
C8     C     0.33558   0.16732   0.16574   0.00000  Uiso   1.00
C9     C     0.40568   0.18657   0.11852   0.00000  Uiso   1.00
C10    C     0.09432   0.14676   0.21481   0.00000  Uiso   1.00
C11    C     0.38387   0.16762   0.16402   0.00000  Uiso   1.00
C12    C     0.11612   0.16571   0.16931   0.00000  Uiso   1.00
C13    C     0.40813   0.14875   0.20942   0.00000  Uiso   1.00
C14    C     0.09187   0.18458   0.12391   0.00000  Uiso   1.00
C15    C     0.45411   0.14805   0.21051   0.00000  Uiso   1.00
C16    C     0.04589   0.18529   0.12282   0.00000  Uiso   1.00
C17    C     0.47663   0.16686   0.16572   0.00000  Uiso   1.00
C18    C     0.02337   0.16647   0.16761   0.00000  Uiso   1.00
C19    C     0.45256   0.18622   0.11931   0.00000  Uiso   1.00
C20    C     0.04744   0.14711   0.21402   0.00000  Uiso   1.00
C21    C     0.47777   0.12854   0.25587   0.00000  Uiso   1.00
C22    C     0.02223   0.20479   0.07746   0.00000  Uiso   1.00
Cu23   Cu    0.25500   0.17246   0.22813   0.00000  Uiso   1.00
Cu24   Cu    0.24499   0.16087   0.10521   0.00000  Uiso   1.00
H25    H     0.39097   0.13390   0.24387   0.00000  Uiso   1.00
H26    H     0.10902   0.19943   0.08946   0.00000  Uiso   1.00
H27    H     0.46053   0.11371   0.29021   0.00000  Uiso   1.00
H28    H     0.03947   0.21962   0.04312   0.00000  Uiso   1.00
H29    H     0.04052   0.11179   0.29314   0.00000  Uiso   1.00
H30    H     0.45947   0.22154   0.04019   0.00000  Uiso   1.00
H31    H     0.24454   0.32004   0.09527   0.00000  Uiso   1.00
H32    H     0.25546   0.01329   0.23807   0.00000  Uiso   1.00
H33    H     0.21533   0.12583   0.31608   0.00000  Uiso   1.00
H34    H     0.28467   0.20751   0.01726   0.00000  Uiso   1.00
N35    N     0.23744   0.15214   0.01284   0.00000  Uiso   1.00
N36    N     0.26255   0.18119   0.32049   0.00000  Uiso   1.00
O37    O     0.25325   0.09538   0.20659   0.00000  Uiso   1.00
O38    O     0.24674   0.23796   0.12674   0.00000  Uiso   1.00
O39    O     0.24480   0.08559   0.10279   0.00000  Uiso   1.00
O40    O     0.25520   0.24774   0.23055   0.00000  Uiso   1.00
O41    O     0.18935   0.17155   0.21857   0.00000  Uiso   1.00
O42    O     0.31064   0.16179   0.11476   0.00000  Uiso   1.00
O43    O     0.18090   0.16176   0.11477   0.00000  Uiso   1.00
O44    O     0.31910   0.17157   0.21857   0.00000  Uiso   1.00
N45    N     0.38022   0.20660   0.07345   0.00000  Uiso   1.00
H46    H     0.38863   0.19411   0.02869   0.00000  Uiso   1.00
C47    C     0.37337   0.26245   0.09124   0.00000  Uiso   1.00
H48    H     0.40569   0.28583   0.09693   0.00000  Uiso   1.00
H49    H     0.35690   0.27169   0.13520   0.00000  Uiso   1.00
H50    H     0.35149   0.27395   0.05494   0.00000  Uiso   1.00
N51    N     0.11978   0.12673   0.25987   0.00000  Uiso   1.00
H52    H     0.11136   0.13922   0.30464   0.00000  Uiso   1.00
C53    C     0.12664   0.07088   0.24208   0.00000  Uiso   1.00
H54    H     0.09431   0.04750   0.23639   0.00000  Uiso   1.00
H55    H     0.14851   0.05938   0.27838   0.00000  Uiso   1.00
H56    H     0.14310   0.06165   0.19813   0.00000  Uiso   1.00
C57    C     0.74866   0.06655   0.15107   0.00000  Uiso   1.00
C58    C     0.75134   0.26678   0.18226   0.00000  Uiso   1.00
C59    C     0.52389   0.12781   0.25755   0.00000  Uiso   1.00
C60    C     0.97611   0.20552   0.07578   0.00000  Uiso   1.00
C61    C     0.74808   0.01059   0.14227   0.00000  Uiso   1.00
C62    C     0.75192   0.32274   0.19106   0.00000  Uiso   1.00
C63    C     0.66442   0.16602   0.16759   0.00000  Uiso   1.00
C64    C     0.83558   0.16732   0.16574   0.00000  Uiso   1.00
C65    C     0.90568   0.18657   0.11852   0.00000  Uiso   1.00
C66    C     0.59432   0.14676   0.21481   0.00000  Uiso   1.00
C67    C     0.88387   0.16762   0.16402   0.00000  Uiso   1.00
C68    C     0.61612   0.16571   0.16931   0.00000  Uiso   1.00
C69    C     0.90813   0.14875   0.20942   0.00000  Uiso   1.00
C70    C     0.59187   0.18458   0.12391   0.00000  Uiso   1.00
C71    C     0.95411   0.14805   0.21051   0.00000  Uiso   1.00
C72    C     0.54589   0.18529   0.12282   0.00000  Uiso   1.00
C73    C     0.97663   0.16686   0.16572   0.00000  Uiso   1.00
C74    C     0.52337   0.16647   0.16761   0.00000  Uiso   1.00
C75    C     0.95256   0.18622   0.11931   0.00000  Uiso   1.00
C76    C     0.54744   0.14711   0.21402   0.00000  Uiso   1.00
C77    C     0.97777   0.12854   0.25587   0.00000  Uiso   1.00
C78    C     0.52223   0.20479   0.07746   0.00000  Uiso   1.00
Cu79   Cu    0.75500   0.17246   0.22813   0.00000  Uiso   1.00
Cu80   Cu    0.74499   0.16087   0.10521   0.00000  Uiso   1.00
H81    H     0.89097   0.13390   0.24387   0.00000  Uiso   1.00
H82    H     0.60902   0.19943   0.08946   0.00000  Uiso   1.00
H83    H     0.96053   0.11371   0.29021   0.00000  Uiso   1.00
H84    H     0.53947   0.21962   0.04312   0.00000  Uiso   1.00
H85    H     0.54052   0.11179   0.29314   0.00000  Uiso   1.00
H86    H     0.95947   0.22154   0.04019   0.00000  Uiso   1.00
H87    H     0.74454   0.32004   0.09527   0.00000  Uiso   1.00
H88    H     0.75546   0.01329   0.23807   0.00000  Uiso   1.00
H89    H     0.71533   0.12583   0.31608   0.00000  Uiso   1.00
H90    H     0.78467   0.20751   0.01726   0.00000  Uiso   1.00
N91    N     0.73744   0.15214   0.01284   0.00000  Uiso   1.00
N92    N     0.76255   0.18119   0.32049   0.00000  Uiso   1.00
O93    O     0.75325   0.09538   0.20659   0.00000  Uiso   1.00
O94    O     0.74674   0.23796   0.12674   0.00000  Uiso   1.00
O95    O     0.74480   0.08559   0.10279   0.00000  Uiso   1.00
O96    O     0.75520   0.24774   0.23055   0.00000  Uiso   1.00
O97    O     0.68935   0.17155   0.21857   0.00000  Uiso   1.00
O98    O     0.81064   0.16179   0.11476   0.00000  Uiso   1.00
O99    O     0.68090   0.16176   0.11477   0.00000  Uiso   1.00
O100   O     0.81910   0.17157   0.21857   0.00000  Uiso   1.00
N101   N     0.88022   0.20660   0.07345   0.00000  Uiso   1.00
H102   H     0.88863   0.19411   0.02869   0.00000  Uiso   1.00
C103   C     0.87337   0.26245   0.09124   0.00000  Uiso   1.00
H104   H     0.90569   0.28583   0.09693   0.00000  Uiso   1.00
H105   H     0.85690   0.27169   0.13520   0.00000  Uiso   1.00
H106   H     0.85149   0.27395   0.05494   0.00000  Uiso   1.00
N107   N     0.61978   0.12673   0.25987   0.00000  Uiso   1.00
H108   H     0.61136   0.13922   0.30464   0.00000  Uiso   1.00
C109   C     0.62664   0.07088   0.24208   0.00000  Uiso   1.00
H110   H     0.59431   0.04750   0.23639   0.00000  Uiso   1.00
H111   H     0.64851   0.05938   0.27838   0.00000  Uiso   1.00
H112   H     0.64310   0.06165   0.19813   0.00000  Uiso   1.00
C113   C     0.24866   0.39989   0.15107   0.00000  Uiso   1.00
C114   C     0.25134   0.60011   0.18226   0.00000  Uiso   1.00
C115   C     0.02389   0.46115   0.25755   0.00000  Uiso   1.00
C116   C     0.47611   0.53885   0.07578   0.00000  Uiso   1.00
C117   C     0.24808   0.34392   0.14227   0.00000  Uiso   1.00
C118   C     0.25192   0.65608   0.19106   0.00000  Uiso   1.00
C119   C     0.16442   0.49935   0.16759   0.00000  Uiso   1.00
C120   C     0.33558   0.50065   0.16574   0.00000  Uiso   1.00
C121   C     0.40568   0.51990   0.11852   0.00000  Uiso   1.00
C122   C     0.09432   0.48010   0.21481   0.00000  Uiso   1.00
C123   C     0.38387   0.50096   0.16402   0.00000  Uiso   1.00
C124   C     0.11612   0.49904   0.16931   0.00000  Uiso   1.00
C125   C     0.40813   0.48209   0.20942   0.00000  Uiso   1.00
C126   C     0.09187   0.51791   0.12391   0.00000  Uiso   1.00
C127   C     0.45411   0.48138   0.21051   0.00000  Uiso   1.00
C128   C     0.04589   0.51862   0.12282   0.00000  Uiso   1.00
C129   C     0.47663   0.50020   0.16572   0.00000  Uiso   1.00
C130   C     0.02337   0.49980   0.16761   0.00000  Uiso   1.00
C131   C     0.45256   0.51955   0.11931   0.00000  Uiso   1.00
C132   C     0.04744   0.48045   0.21402   0.00000  Uiso   1.00
C133   C     0.47777   0.46187   0.25587   0.00000  Uiso   1.00
C134   C     0.02223   0.53813   0.07746   0.00000  Uiso   1.00
Cu135  Cu    0.25500   0.50579   0.22813   0.00000  Uiso   1.00
Cu136  Cu    0.24499   0.49421   0.10521   0.00000  Uiso   1.00
H137   H     0.39097   0.46723   0.24387   0.00000  Uiso   1.00
H138   H     0.10902   0.53277   0.08946   0.00000  Uiso   1.00
H139   H     0.46053   0.44704   0.29021   0.00000  Uiso   1.00
H140   H     0.03947   0.55295   0.04312   0.00000  Uiso   1.00
H141   H     0.04052   0.44512   0.29314   0.00000  Uiso   1.00
H142   H     0.45947   0.55487   0.04019   0.00000  Uiso   1.00
H143   H     0.24454   0.65338   0.09527   0.00000  Uiso   1.00
H144   H     0.25546   0.34663   0.23807   0.00000  Uiso   1.00
H145   H     0.21533   0.45916   0.31608   0.00000  Uiso   1.00
H146   H     0.28467   0.54084   0.01726   0.00000  Uiso   1.00
N147   N     0.23744   0.48547   0.01284   0.00000  Uiso   1.00
N148   N     0.26255   0.51453   0.32049   0.00000  Uiso   1.00
O149   O     0.25325   0.42871   0.20659   0.00000  Uiso   1.00
O150   O     0.24674   0.57129   0.12674   0.00000  Uiso   1.00
O151   O     0.24480   0.41892   0.10279   0.00000  Uiso   1.00
O152   O     0.25520   0.58108   0.23055   0.00000  Uiso   1.00
O153   O     0.18935   0.50488   0.21857   0.00000  Uiso   1.00
O154   O     0.31064   0.49512   0.11476   0.00000  Uiso   1.00
O155   O     0.18090   0.49510   0.11477   0.00000  Uiso   1.00
O156   O     0.31910   0.50490   0.21857   0.00000  Uiso   1.00
N157   N     0.38022   0.53994   0.07345   0.00000  Uiso   1.00
H158   H     0.38863   0.52744   0.02869   0.00000  Uiso   1.00
C159   C     0.37337   0.59578   0.09124   0.00000  Uiso   1.00
H160   H     0.40569   0.61916   0.09693   0.00000  Uiso   1.00
H161   H     0.35690   0.60502   0.13520   0.00000  Uiso   1.00
H162   H     0.35149   0.60728   0.05494   0.00000  Uiso   1.00
N163   N     0.11978   0.46006   0.25987   0.00000  Uiso   1.00
H164   H     0.11136   0.47255   0.30464   0.00000  Uiso   1.00
C165   C     0.12664   0.40421   0.24208   0.00000  Uiso   1.00
H166   H     0.09431   0.38083   0.23639   0.00000  Uiso   1.00
H167   H     0.14851   0.39271   0.27838   0.00000  Uiso   1.00
H168   H     0.14310   0.39498   0.19813   0.00000  Uiso   1.00
C169   C     0.74866   0.39989   0.15107   0.00000  Uiso   1.00
C170   C     0.75134   0.60011   0.18226   0.00000  Uiso   1.00
C171   C     0.52389   0.46115   0.25755   0.00000  Uiso   1.00
C172   C     0.97611   0.53885   0.07578   0.00000  Uiso   1.00
C173   C     0.74808   0.34392   0.14227   0.00000  Uiso   1.00
C174   C     0.75192   0.65608   0.19106   0.00000  Uiso   1.00
C175   C     0.66442   0.49935   0.16759   0.00000  Uiso   1.00
C176   C     0.83558   0.50065   0.16574   0.00000  Uiso   1.00
C177   C     0.90568   0.51990   0.11852   0.00000  Uiso   1.00
C178   C     0.59432   0.48010   0.21481   0.00000  Uiso   1.00
C179   C     0.88387   0.50096   0.16402   0.00000  Uiso   1.00
C180   C     0.61612   0.49904   0.16931   0.00000  Uiso   1.00
C181   C     0.90813   0.48209   0.20942   0.00000  Uiso   1.00
C182   C     0.59187   0.51791   0.12391   0.00000  Uiso   1.00
C183   C     0.95411   0.48138   0.21051   0.00000  Uiso   1.00
C184   C     0.54589   0.51862   0.12282   0.00000  Uiso   1.00
C185   C     0.97663   0.50020   0.16572   0.00000  Uiso   1.00
C186   C     0.52337   0.49980   0.16761   0.00000  Uiso   1.00
C187   C     0.95256   0.51955   0.11931   0.00000  Uiso   1.00
C188   C     0.54744   0.48045   0.21402   0.00000  Uiso   1.00
C189   C     0.97777   0.46187   0.25587   0.00000  Uiso   1.00
C190   C     0.52223   0.53813   0.07746   0.00000  Uiso   1.00
Cu191  Cu    0.75500   0.50579   0.22813   0.00000  Uiso   1.00
Cu192  Cu    0.74499   0.49421   0.10521   0.00000  Uiso   1.00
H193   H     0.89097   0.46723   0.24387   0.00000  Uiso   1.00
H194   H     0.60902   0.53277   0.08946   0.00000  Uiso   1.00
H195   H     0.96053   0.44704   0.29021   0.00000  Uiso   1.00
H196   H     0.53947   0.55295   0.04312   0.00000  Uiso   1.00
H197   H     0.54052   0.44512   0.29314   0.00000  Uiso   1.00
H198   H     0.95947   0.55487   0.04019   0.00000  Uiso   1.00
H199   H     0.74454   0.65338   0.09527   0.00000  Uiso   1.00
H200   H     0.75546   0.34663   0.23807   0.00000  Uiso   1.00
H201   H     0.71533   0.45916   0.31608   0.00000  Uiso   1.00
H202   H     0.78467   0.54084   0.01726   0.00000  Uiso   1.00
N203   N     0.73744   0.48547   0.01284   0.00000  Uiso   1.00
N204   N     0.76255   0.51453   0.32049   0.00000  Uiso   1.00
O205   O     0.75325   0.42871   0.20659   0.00000  Uiso   1.00
O206   O     0.74674   0.57129   0.12674   0.00000  Uiso   1.00
O207   O     0.74480   0.41892   0.10279   0.00000  Uiso   1.00
O208   O     0.75520   0.58108   0.23055   0.00000  Uiso   1.00
O209   O     0.68935   0.50488   0.21857   0.00000  Uiso   1.00
O210   O     0.81064   0.49512   0.11476   0.00000  Uiso   1.00
O211   O     0.68090   0.49510   0.11477   0.00000  Uiso   1.00
O212   O     0.81910   0.50490   0.21857   0.00000  Uiso   1.00
N213   N     0.88022   0.53994   0.07345   0.00000  Uiso   1.00
H214   H     0.88863   0.52744   0.02869   0.00000  Uiso   1.00
C215   C     0.87337   0.59578   0.09124   0.00000  Uiso   1.00
H216   H     0.90569   0.61916   0.09693   0.00000  Uiso   1.00
H217   H     0.85690   0.60502   0.13520   0.00000  Uiso   1.00
H218   H     0.85149   0.60728   0.05494   0.00000  Uiso   1.00
N219   N     0.61978   0.46006   0.25987   0.00000  Uiso   1.00
H220   H     0.61136   0.47255   0.30464   0.00000  Uiso   1.00
C221   C     0.62664   0.40421   0.24208   0.00000  Uiso   1.00
H222   H     0.59431   0.38083   0.23639   0.00000  Uiso   1.00
H223   H     0.64851   0.39271   0.27838   0.00000  Uiso   1.00
H224   H     0.64310   0.39498   0.19813   0.00000  Uiso   1.00
C225   C     0.24866   0.73322   0.15107   0.00000  Uiso   1.00
C226   C     0.25134   0.93345   0.18226   0.00000  Uiso   1.00
C227   C     0.02389   0.79448   0.25755   0.00000  Uiso   1.00
C228   C     0.47611   0.87218   0.07578   0.00000  Uiso   1.00
C229   C     0.24808   0.67726   0.14227   0.00000  Uiso   1.00
C230   C     0.25192   0.98941   0.19106   0.00000  Uiso   1.00
C231   C     0.16442   0.83268   0.16759   0.00000  Uiso   1.00
C232   C     0.33558   0.83398   0.16574   0.00000  Uiso   1.00
C233   C     0.40568   0.85324   0.11852   0.00000  Uiso   1.00
C234   C     0.09432   0.81343   0.21481   0.00000  Uiso   1.00
C235   C     0.38387   0.83429   0.16402   0.00000  Uiso   1.00
C236   C     0.11612   0.83238   0.16931   0.00000  Uiso   1.00
C237   C     0.40813   0.81542   0.20942   0.00000  Uiso   1.00
C238   C     0.09187   0.85125   0.12391   0.00000  Uiso   1.00
C239   C     0.45411   0.81471   0.21051   0.00000  Uiso   1.00
C240   C     0.04589   0.85195   0.12282   0.00000  Uiso   1.00
C241   C     0.47663   0.83353   0.16572   0.00000  Uiso   1.00
C242   C     0.02337   0.83314   0.16761   0.00000  Uiso   1.00
C243   C     0.45256   0.85289   0.11931   0.00000  Uiso   1.00
C244   C     0.04744   0.81378   0.21402   0.00000  Uiso   1.00
C245   C     0.47777   0.79520   0.25587   0.00000  Uiso   1.00
C246   C     0.02223   0.87146   0.07746   0.00000  Uiso   1.00
Cu247  Cu    0.25500   0.83913   0.22813   0.00000  Uiso   1.00
Cu248  Cu    0.24499   0.82754   0.10521   0.00000  Uiso   1.00
H249   H     0.39097   0.80057   0.24387   0.00000  Uiso   1.00
H250   H     0.10902   0.86610   0.08946   0.00000  Uiso   1.00
H251   H     0.46053   0.78037   0.29021   0.00000  Uiso   1.00
H252   H     0.03947   0.88629   0.04312   0.00000  Uiso   1.00
H253   H     0.04052   0.77845   0.29314   0.00000  Uiso   1.00
H254   H     0.45947   0.88821   0.04019   0.00000  Uiso   1.00
H255   H     0.24454   0.98671   0.09527   0.00000  Uiso   1.00
H256   H     0.25546   0.67996   0.23807   0.00000  Uiso   1.00
H257   H     0.21533   0.79249   0.31608   0.00000  Uiso   1.00
H258   H     0.28467   0.87417   0.01726   0.00000  Uiso   1.00
N259   N     0.23744   0.81881   0.01284   0.00000  Uiso   1.00
N260   N     0.26255   0.84786   0.32049   0.00000  Uiso   1.00
O261   O     0.25325   0.76204   0.20659   0.00000  Uiso   1.00
O262   O     0.24674   0.90462   0.12674   0.00000  Uiso   1.00
O263   O     0.24480   0.75226   0.10279   0.00000  Uiso   1.00
O264   O     0.25520   0.91441   0.23055   0.00000  Uiso   1.00
O265   O     0.18935   0.83821   0.21857   0.00000  Uiso   1.00
O266   O     0.31064   0.82845   0.11476   0.00000  Uiso   1.00
O267   O     0.18090   0.82843   0.11477   0.00000  Uiso   1.00
O268   O     0.31910   0.83824   0.21857   0.00000  Uiso   1.00
N269   N     0.38022   0.87327   0.07345   0.00000  Uiso   1.00
H270   H     0.38863   0.86077   0.02869   0.00000  Uiso   1.00
C271   C     0.37337   0.92912   0.09124   0.00000  Uiso   1.00
H272   H     0.40569   0.95250   0.09693   0.00000  Uiso   1.00
H273   H     0.35690   0.93836   0.13520   0.00000  Uiso   1.00
H274   H     0.35149   0.94061   0.05494   0.00000  Uiso   1.00
N275   N     0.11978   0.79339   0.25987   0.00000  Uiso   1.00
H276   H     0.11136   0.80588   0.30464   0.00000  Uiso   1.00
C277   C     0.12664   0.73755   0.24208   0.00000  Uiso   1.00
H278   H     0.09431   0.71416   0.23639   0.00000  Uiso   1.00
H279   H     0.14851   0.72605   0.27838   0.00000  Uiso   1.00
H280   H     0.14310   0.72831   0.19813   0.00000  Uiso   1.00
C281   C     0.74866   0.73322   0.15107   0.00000  Uiso   1.00
C282   C     0.75134   0.93345   0.18226   0.00000  Uiso   1.00
C283   C     0.52389   0.79448   0.25755   0.00000  Uiso   1.00
C284   C     0.97611   0.87218   0.07578   0.00000  Uiso   1.00
C285   C     0.74808   0.67726   0.14227   0.00000  Uiso   1.00
C286   C     0.75192   0.98941   0.19106   0.00000  Uiso   1.00
C287   C     0.66442   0.83268   0.16759   0.00000  Uiso   1.00
C288   C     0.83558   0.83398   0.16574   0.00000  Uiso   1.00
C289   C     0.90568   0.85324   0.11852   0.00000  Uiso   1.00
C290   C     0.59432   0.81343   0.21481   0.00000  Uiso   1.00
C291   C     0.88387   0.83429   0.16402   0.00000  Uiso   1.00
C292   C     0.61612   0.83238   0.16931   0.00000  Uiso   1.00
C293   C     0.90813   0.81542   0.20942   0.00000  Uiso   1.00
C294   C     0.59187   0.85125   0.12391   0.00000  Uiso   1.00
C295   C     0.95411   0.81471   0.21051   0.00000  Uiso   1.00
C296   C     0.54589   0.85195   0.12282   0.00000  Uiso   1.00
C297   C     0.97663   0.83353   0.16572   0.00000  Uiso   1.00
C298   C     0.52337   0.83314   0.16761   0.00000  Uiso   1.00
C299   C     0.95256   0.85289   0.11931   0.00000  Uiso   1.00
C300   C     0.54744   0.81378   0.21402   0.00000  Uiso   1.00
C301   C     0.97777   0.79520   0.25587   0.00000  Uiso   1.00
C302   C     0.52223   0.87146   0.07746   0.00000  Uiso   1.00
Cu303  Cu    0.75500   0.83913   0.22813   0.00000  Uiso   1.00
Cu304  Cu    0.74499   0.82754   0.10521   0.00000  Uiso   1.00
H305   H     0.89097   0.80057   0.24387   0.00000  Uiso   1.00
H306   H     0.60902   0.86610   0.08946   0.00000  Uiso   1.00
H307   H     0.96053   0.78037   0.29021   0.00000  Uiso   1.00
H308   H     0.53947   0.88629   0.04312   0.00000  Uiso   1.00
H309   H     0.54052   0.77845   0.29314   0.00000  Uiso   1.00
H310   H     0.95947   0.88821   0.04019   0.00000  Uiso   1.00
H311   H     0.74454   0.98671   0.09527   0.00000  Uiso   1.00
H312   H     0.75546   0.67996   0.23807   0.00000  Uiso   1.00
H313   H     0.71533   0.79249   0.31608   0.00000  Uiso   1.00
H314   H     0.78467   0.87417   0.01726   0.00000  Uiso   1.00
N315   N     0.73744   0.81881   0.01284   0.00000  Uiso   1.00
N316   N     0.76255   0.84786   0.32049   0.00000  Uiso   1.00
O317   O     0.75325   0.76204   0.20659   0.00000  Uiso   1.00
O318   O     0.74674   0.90462   0.12674   0.00000  Uiso   1.00
O319   O     0.74480   0.75226   0.10279   0.00000  Uiso   1.00
O320   O     0.75520   0.91441   0.23055   0.00000  Uiso   1.00
O321   O     0.68935   0.83821   0.21857   0.00000  Uiso   1.00
O322   O     0.81064   0.82845   0.11476   0.00000  Uiso   1.00
O323   O     0.68090   0.82843   0.11477   0.00000  Uiso   1.00
O324   O     0.81910   0.83824   0.21857   0.00000  Uiso   1.00
N325   N     0.88022   0.87327   0.07345   0.00000  Uiso   1.00
H326   H     0.88863   0.86077   0.02869   0.00000  Uiso   1.00
C327   C     0.87337   0.92912   0.09124   0.00000  Uiso   1.00
H328   H     0.90569   0.95250   0.09693   0.00000  Uiso   1.00
H329   H     0.85690   0.93836   0.13520   0.00000  Uiso   1.00
H330   H     0.85149   0.94061   0.05494   0.00000  Uiso   1.00
N331   N     0.61978   0.79339   0.25987   0.00000  Uiso   1.00
H332   H     0.61136   0.80588   0.30464   0.00000  Uiso   1.00
C333   C     0.62664   0.73755   0.24208   0.00000  Uiso   1.00
H334   H     0.59431   0.71416   0.23639   0.00000  Uiso   1.00
H335   H     0.64851   0.72605   0.27838   0.00000  Uiso   1.00
H336   H     0.64310   0.72831   0.19813   0.00000  Uiso   1.00
C337   C     0.24866   0.06655   0.48440   0.00000  Uiso   1.00
C338   C     0.25134   0.26678   0.51560   0.00000  Uiso   1.00
C339   C     0.02389   0.12781   0.59088   0.00000  Uiso   1.00
C340   C     0.47611   0.20552   0.40911   0.00000  Uiso   1.00
C341   C     0.24808   0.01059   0.47561   0.00000  Uiso   1.00
C342   C     0.25192   0.32274   0.52439   0.00000  Uiso   1.00
C343   C     0.16442   0.16602   0.50092   0.00000  Uiso   1.00
C344   C     0.33558   0.16732   0.49908   0.00000  Uiso   1.00
C345   C     0.40568   0.18657   0.45185   0.00000  Uiso   1.00
C346   C     0.09432   0.14676   0.54814   0.00000  Uiso   1.00
C347   C     0.38387   0.16762   0.49736   0.00000  Uiso   1.00
C348   C     0.11612   0.16571   0.50264   0.00000  Uiso   1.00
C349   C     0.40813   0.14875   0.54275   0.00000  Uiso   1.00
C350   C     0.09187   0.18458   0.45725   0.00000  Uiso   1.00
C351   C     0.45411   0.14805   0.54384   0.00000  Uiso   1.00
C352   C     0.04589   0.18529   0.45616   0.00000  Uiso   1.00
C353   C     0.47663   0.16686   0.49906   0.00000  Uiso   1.00
C354   C     0.02337   0.16647   0.50094   0.00000  Uiso   1.00
C355   C     0.45256   0.18622   0.45264   0.00000  Uiso   1.00
C356   C     0.04744   0.14711   0.54736   0.00000  Uiso   1.00
C357   C     0.47777   0.12854   0.58920   0.00000  Uiso   1.00
C358   C     0.02223   0.20479   0.41079   0.00000  Uiso   1.00
Cu359  Cu    0.25500   0.17246   0.56146   0.00000  Uiso   1.00
Cu360  Cu    0.24499   0.16087   0.43854   0.00000  Uiso   1.00
H361   H     0.39097   0.13390   0.57720   0.00000  Uiso   1.00
H362   H     0.10902   0.19943   0.42280   0.00000  Uiso   1.00
H363   H     0.46053   0.11371   0.62355   0.00000  Uiso   1.00
H364   H     0.03947   0.21962   0.37645   0.00000  Uiso   1.00
H365   H     0.04052   0.11179   0.62648   0.00000  Uiso   1.00
H366   H     0.45947   0.22154   0.37352   0.00000  Uiso   1.00
H367   H     0.24454   0.32004   0.42860   0.00000  Uiso   1.00
H368   H     0.25546   0.01329   0.57140   0.00000  Uiso   1.00
H369   H     0.21533   0.12583   0.64941   0.00000  Uiso   1.00
H370   H     0.28467   0.20751   0.35059   0.00000  Uiso   1.00
N371   N     0.23744   0.15214   0.34617   0.00000  Uiso   1.00
N372   N     0.26255   0.18119   0.65383   0.00000  Uiso   1.00
O373   O     0.25325   0.09538   0.53992   0.00000  Uiso   1.00
O374   O     0.24674   0.23796   0.46008   0.00000  Uiso   1.00
O375   O     0.24480   0.08559   0.43612   0.00000  Uiso   1.00
O376   O     0.25520   0.24774   0.56388   0.00000  Uiso   1.00
O377   O     0.18935   0.17155   0.55191   0.00000  Uiso   1.00
O378   O     0.31064   0.16179   0.44809   0.00000  Uiso   1.00
O379   O     0.18090   0.16176   0.44810   0.00000  Uiso   1.00
O380   O     0.31910   0.17157   0.55190   0.00000  Uiso   1.00
N381   N     0.38022   0.20660   0.40679   0.00000  Uiso   1.00
H382   H     0.38863   0.19411   0.36202   0.00000  Uiso   1.00
C383   C     0.37337   0.26245   0.42458   0.00000  Uiso   1.00
H384   H     0.40569   0.28583   0.43026   0.00000  Uiso   1.00
H385   H     0.35690   0.27169   0.46853   0.00000  Uiso   1.00
H386   H     0.35149   0.27395   0.38827   0.00000  Uiso   1.00
N387   N     0.11978   0.12673   0.59321   0.00000  Uiso   1.00
H388   H     0.11136   0.13922   0.63798   0.00000  Uiso   1.00
C389   C     0.12664   0.07088   0.57541   0.00000  Uiso   1.00
H390   H     0.09431   0.04750   0.56972   0.00000  Uiso   1.00
H391   H     0.14851   0.05938   0.61172   0.00000  Uiso   1.00
H392   H     0.14310   0.06165   0.53146   0.00000  Uiso   1.00
C393   C     0.74866   0.06655   0.48440   0.00000  Uiso   1.00
C394   C     0.75134   0.26678   0.51560   0.00000  Uiso   1.00
C395   C     0.52389   0.12781   0.59088   0.00000  Uiso   1.00
C396   C     0.97611   0.20552   0.40911   0.00000  Uiso   1.00
C397   C     0.74808   0.01059   0.47561   0.00000  Uiso   1.00
C398   C     0.75192   0.32274   0.52439   0.00000  Uiso   1.00
C399   C     0.66442   0.16602   0.50092   0.00000  Uiso   1.00
C400   C     0.83558   0.16732   0.49908   0.00000  Uiso   1.00
C401   C     0.90568   0.18657   0.45185   0.00000  Uiso   1.00
C402   C     0.59432   0.14676   0.54814   0.00000  Uiso   1.00
C403   C     0.88387   0.16762   0.49736   0.00000  Uiso   1.00
C404   C     0.61612   0.16571   0.50264   0.00000  Uiso   1.00
C405   C     0.90813   0.14875   0.54275   0.00000  Uiso   1.00
C406   C     0.59187   0.18458   0.45725   0.00000  Uiso   1.00
C407   C     0.95411   0.14805   0.54384   0.00000  Uiso   1.00
C408   C     0.54589   0.18529   0.45616   0.00000  Uiso   1.00
C409   C     0.97663   0.16686   0.49906   0.00000  Uiso   1.00
C410   C     0.52337   0.16647   0.50094   0.00000  Uiso   1.00
C411   C     0.95256   0.18622   0.45264   0.00000  Uiso   1.00
C412   C     0.54744   0.14711   0.54736   0.00000  Uiso   1.00
C413   C     0.97777   0.12854   0.58920   0.00000  Uiso   1.00
C414   C     0.52223   0.20479   0.41079   0.00000  Uiso   1.00
Cu415  Cu    0.75500   0.17246   0.56146   0.00000  Uiso   1.00
Cu416  Cu    0.74499   0.16087   0.43854   0.00000  Uiso   1.00
H417   H     0.89097   0.13390   0.57720   0.00000  Uiso   1.00
H418   H     0.60902   0.19943   0.42280   0.00000  Uiso   1.00
H419   H     0.96053   0.11371   0.62355   0.00000  Uiso   1.00
H420   H     0.53947   0.21962   0.37645   0.00000  Uiso   1.00
H421   H     0.54052   0.11179   0.62648   0.00000  Uiso   1.00
H422   H     0.95947   0.22154   0.37352   0.00000  Uiso   1.00
H423   H     0.74454   0.32004   0.42860   0.00000  Uiso   1.00
H424   H     0.75546   0.01329   0.57140   0.00000  Uiso   1.00
H425   H     0.71533   0.12583   0.64941   0.00000  Uiso   1.00
H426   H     0.78467   0.20751   0.35059   0.00000  Uiso   1.00
N427   N     0.73744   0.15214   0.34617   0.00000  Uiso   1.00
N428   N     0.76255   0.18119   0.65383   0.00000  Uiso   1.00
O429   O     0.75325   0.09538   0.53992   0.00000  Uiso   1.00
O430   O     0.74674   0.23796   0.46008   0.00000  Uiso   1.00
O431   O     0.74480   0.08559   0.43612   0.00000  Uiso   1.00
O432   O     0.75520   0.24774   0.56388   0.00000  Uiso   1.00
O433   O     0.68935   0.17155   0.55191   0.00000  Uiso   1.00
O434   O     0.81064   0.16179   0.44809   0.00000  Uiso   1.00
O435   O     0.68090   0.16176   0.44810   0.00000  Uiso   1.00
O436   O     0.81910   0.17157   0.55190   0.00000  Uiso   1.00
N437   N     0.88022   0.20660   0.40679   0.00000  Uiso   1.00
H438   H     0.88863   0.19411   0.36202   0.00000  Uiso   1.00
C439   C     0.87337   0.26245   0.42458   0.00000  Uiso   1.00
H440   H     0.90569   0.28583   0.43026   0.00000  Uiso   1.00
H441   H     0.85690   0.27169   0.46853   0.00000  Uiso   1.00
H442   H     0.85149   0.27395   0.38827   0.00000  Uiso   1.00
N443   N     0.61978   0.12673   0.59321   0.00000  Uiso   1.00
H444   H     0.61136   0.13922   0.63798   0.00000  Uiso   1.00
C445   C     0.62664   0.07088   0.57541   0.00000  Uiso   1.00
H446   H     0.59431   0.04750   0.56972   0.00000  Uiso   1.00
H447   H     0.64851   0.05938   0.61172   0.00000  Uiso   1.00
H448   H     0.64310   0.06165   0.53146   0.00000  Uiso   1.00
C449   C     0.24866   0.39989   0.48440   0.00000  Uiso   1.00
C450   C     0.25134   0.60011   0.51560   0.00000  Uiso   1.00
C451   C     0.02389   0.46115   0.59088   0.00000  Uiso   1.00
C452   C     0.47611   0.53885   0.40911   0.00000  Uiso   1.00
C453   C     0.24808   0.34392   0.47561   0.00000  Uiso   1.00
C454   C     0.25192   0.65608   0.52439   0.00000  Uiso   1.00
C455   C     0.16442   0.49935   0.50092   0.00000  Uiso   1.00
C456   C     0.33558   0.50065   0.49908   0.00000  Uiso   1.00
C457   C     0.40568   0.51990   0.45185   0.00000  Uiso   1.00
C458   C     0.09432   0.48010   0.54814   0.00000  Uiso   1.00
C459   C     0.38387   0.50096   0.49736   0.00000  Uiso   1.00
C460   C     0.11612   0.49904   0.50264   0.00000  Uiso   1.00
C461   C     0.40813   0.48209   0.54275   0.00000  Uiso   1.00
C462   C     0.09187   0.51791   0.45725   0.00000  Uiso   1.00
C463   C     0.45411   0.48138   0.54384   0.00000  Uiso   1.00
C464   C     0.04589   0.51862   0.45616   0.00000  Uiso   1.00
C465   C     0.47663   0.50020   0.49906   0.00000  Uiso   1.00
C466   C     0.02337   0.49980   0.50094   0.00000  Uiso   1.00
C467   C     0.45256   0.51955   0.45264   0.00000  Uiso   1.00
C468   C     0.04744   0.48045   0.54736   0.00000  Uiso   1.00
C469   C     0.47777   0.46187   0.58920   0.00000  Uiso   1.00
C470   C     0.02223   0.53813   0.41079   0.00000  Uiso   1.00
Cu471  Cu    0.25500   0.50579   0.56146   0.00000  Uiso   1.00
Cu472  Cu    0.24499   0.49421   0.43854   0.00000  Uiso   1.00
H473   H     0.39097   0.46723   0.57720   0.00000  Uiso   1.00
H474   H     0.10902   0.53277   0.42280   0.00000  Uiso   1.00
H475   H     0.46053   0.44704   0.62355   0.00000  Uiso   1.00
H476   H     0.03947   0.55295   0.37645   0.00000  Uiso   1.00
H477   H     0.04052   0.44512   0.62648   0.00000  Uiso   1.00
H478   H     0.45947   0.55487   0.37352   0.00000  Uiso   1.00
H479   H     0.24454   0.65338   0.42860   0.00000  Uiso   1.00
H480   H     0.25546   0.34663   0.57140   0.00000  Uiso   1.00
H481   H     0.21533   0.45916   0.64941   0.00000  Uiso   1.00
H482   H     0.28467   0.54084   0.35059   0.00000  Uiso   1.00
N483   N     0.23744   0.48547   0.34617   0.00000  Uiso   1.00
N484   N     0.26255   0.51453   0.65383   0.00000  Uiso   1.00
O485   O     0.25325   0.42871   0.53992   0.00000  Uiso   1.00
O486   O     0.24674   0.57129   0.46008   0.00000  Uiso   1.00
O487   O     0.24480   0.41892   0.43612   0.00000  Uiso   1.00
O488   O     0.25520   0.58108   0.56388   0.00000  Uiso   1.00
O489   O     0.18935   0.50488   0.55191   0.00000  Uiso   1.00
O490   O     0.31064   0.49512   0.44809   0.00000  Uiso   1.00
O491   O     0.18090   0.49510   0.44810   0.00000  Uiso   1.00
O492   O     0.31910   0.50490   0.55190   0.00000  Uiso   1.00
N493   N     0.38022   0.53994   0.40679   0.00000  Uiso   1.00
H494   H     0.38863   0.52744   0.36202   0.00000  Uiso   1.00
C495   C     0.37337   0.59578   0.42458   0.00000  Uiso   1.00
H496   H     0.40569   0.61916   0.43026   0.00000  Uiso   1.00
H497   H     0.35690   0.60502   0.46853   0.00000  Uiso   1.00
H498   H     0.35149   0.60728   0.38827   0.00000  Uiso   1.00
N499   N     0.11978   0.46006   0.59321   0.00000  Uiso   1.00
H500   H     0.11136   0.47255   0.63798   0.00000  Uiso   1.00
C501   C     0.12664   0.40421   0.57541   0.00000  Uiso   1.00
H502   H     0.09431   0.38083   0.56972   0.00000  Uiso   1.00
H503   H     0.14851   0.39271   0.61172   0.00000  Uiso   1.00
H504   H     0.14310   0.39498   0.53146   0.00000  Uiso   1.00
C505   C     0.74866   0.39989   0.48440   0.00000  Uiso   1.00
C506   C     0.75134   0.60011   0.51560   0.00000  Uiso   1.00
C507   C     0.52389   0.46115   0.59088   0.00000  Uiso   1.00
C508   C     0.97611   0.53885   0.40911   0.00000  Uiso   1.00
C509   C     0.74808   0.34392   0.47561   0.00000  Uiso   1.00
C510   C     0.75192   0.65608   0.52439   0.00000  Uiso   1.00
C511   C     0.66442   0.49935   0.50092   0.00000  Uiso   1.00
C512   C     0.83558   0.50065   0.49908   0.00000  Uiso   1.00
C513   C     0.90568   0.51990   0.45185   0.00000  Uiso   1.00
C514   C     0.59432   0.48010   0.54814   0.00000  Uiso   1.00
C515   C     0.88387   0.50096   0.49736   0.00000  Uiso   1.00
C516   C     0.61612   0.49904   0.50264   0.00000  Uiso   1.00
C517   C     0.90813   0.48209   0.54275   0.00000  Uiso   1.00
C518   C     0.59187   0.51791   0.45725   0.00000  Uiso   1.00
C519   C     0.95411   0.48138   0.54384   0.00000  Uiso   1.00
C520   C     0.54589   0.51862   0.45616   0.00000  Uiso   1.00
C521   C     0.97663   0.50020   0.49906   0.00000  Uiso   1.00
C522   C     0.52337   0.49980   0.50094   0.00000  Uiso   1.00
C523   C     0.95256   0.51955   0.45264   0.00000  Uiso   1.00
C524   C     0.54744   0.48045   0.54736   0.00000  Uiso   1.00
C525   C     0.97777   0.46187   0.58920   0.00000  Uiso   1.00
C526   C     0.52223   0.53813   0.41079   0.00000  Uiso   1.00
Cu527  Cu    0.75500   0.50579   0.56146   0.00000  Uiso   1.00
Cu528  Cu    0.74499   0.49421   0.43854   0.00000  Uiso   1.00
H529   H     0.89097   0.46723   0.57720   0.00000  Uiso   1.00
H530   H     0.60902   0.53277   0.42280   0.00000  Uiso   1.00
H531   H     0.96053   0.44704   0.62355   0.00000  Uiso   1.00
H532   H     0.53947   0.55295   0.37645   0.00000  Uiso   1.00
H533   H     0.54052   0.44512   0.62648   0.00000  Uiso   1.00
H534   H     0.95947   0.55487   0.37352   0.00000  Uiso   1.00
H535   H     0.74454   0.65338   0.42860   0.00000  Uiso   1.00
H536   H     0.75546   0.34663   0.57140   0.00000  Uiso   1.00
H537   H     0.71533   0.45916   0.64941   0.00000  Uiso   1.00
H538   H     0.78467   0.54084   0.35059   0.00000  Uiso   1.00
N539   N     0.73744   0.48547   0.34617   0.00000  Uiso   1.00
N540   N     0.76255   0.51453   0.65383   0.00000  Uiso   1.00
O541   O     0.75325   0.42871   0.53992   0.00000  Uiso   1.00
O542   O     0.74674   0.57129   0.46008   0.00000  Uiso   1.00
O543   O     0.74480   0.41892   0.43612   0.00000  Uiso   1.00
O544   O     0.75520   0.58108   0.56388   0.00000  Uiso   1.00
O545   O     0.68935   0.50488   0.55191   0.00000  Uiso   1.00
O546   O     0.81064   0.49512   0.44809   0.00000  Uiso   1.00
O547   O     0.68090   0.49510   0.44810   0.00000  Uiso   1.00
O548   O     0.81910   0.50490   0.55190   0.00000  Uiso   1.00
N549   N     0.88022   0.53994   0.40679   0.00000  Uiso   1.00
H550   H     0.88863   0.52744   0.36202   0.00000  Uiso   1.00
C551   C     0.87337   0.59578   0.42458   0.00000  Uiso   1.00
H552   H     0.90569   0.61916   0.43026   0.00000  Uiso   1.00
H553   H     0.85690   0.60502   0.46853   0.00000  Uiso   1.00
H554   H     0.85149   0.60728   0.38827   0.00000  Uiso   1.00
N555   N     0.61978   0.46006   0.59321   0.00000  Uiso   1.00
H556   H     0.61136   0.47255   0.63798   0.00000  Uiso   1.00
C557   C     0.62664   0.40421   0.57541   0.00000  Uiso   1.00
H558   H     0.59431   0.38083   0.56972   0.00000  Uiso   1.00
H559   H     0.64851   0.39271   0.61172   0.00000  Uiso   1.00
H560   H     0.64310   0.39498   0.53146   0.00000  Uiso   1.00
C561   C     0.24866   0.73322   0.48440   0.00000  Uiso   1.00
C562   C     0.25134   0.93345   0.51560   0.00000  Uiso   1.00
C563   C     0.02389   0.79448   0.59088   0.00000  Uiso   1.00
C564   C     0.47611   0.87218   0.40911   0.00000  Uiso   1.00
C565   C     0.24808   0.67726   0.47561   0.00000  Uiso   1.00
C566   C     0.25192   0.98941   0.52439   0.00000  Uiso   1.00
C567   C     0.16442   0.83268   0.50092   0.00000  Uiso   1.00
C568   C     0.33558   0.83398   0.49908   0.00000  Uiso   1.00
C569   C     0.40568   0.85324   0.45185   0.00000  Uiso   1.00
C570   C     0.09432   0.81343   0.54814   0.00000  Uiso   1.00
C571   C     0.38387   0.83429   0.49736   0.00000  Uiso   1.00
C572   C     0.11612   0.83238   0.50264   0.00000  Uiso   1.00
C573   C     0.40813   0.81542   0.54275   0.00000  Uiso   1.00
C574   C     0.09187   0.85125   0.45725   0.00000  Uiso   1.00
C575   C     0.45411   0.81471   0.54384   0.00000  Uiso   1.00
C576   C     0.04589   0.85195   0.45616   0.00000  Uiso   1.00
C577   C     0.47663   0.83353   0.49906   0.00000  Uiso   1.00
C578   C     0.02337   0.83314   0.50094   0.00000  Uiso   1.00
C579   C     0.45256   0.85289   0.45264   0.00000  Uiso   1.00
C580   C     0.04744   0.81378   0.54736   0.00000  Uiso   1.00
C581   C     0.47777   0.79520   0.58920   0.00000  Uiso   1.00
C582   C     0.02223   0.87146   0.41079   0.00000  Uiso   1.00
Cu583  Cu    0.25500   0.83913   0.56146   0.00000  Uiso   1.00
Cu584  Cu    0.24499   0.82754   0.43854   0.00000  Uiso   1.00
H585   H     0.39097   0.80057   0.57720   0.00000  Uiso   1.00
H586   H     0.10902   0.86610   0.42280   0.00000  Uiso   1.00
H587   H     0.46053   0.78037   0.62355   0.00000  Uiso   1.00
H588   H     0.03947   0.88629   0.37645   0.00000  Uiso   1.00
H589   H     0.04052   0.77845   0.62648   0.00000  Uiso   1.00
H590   H     0.45947   0.88821   0.37352   0.00000  Uiso   1.00
H591   H     0.24454   0.98671   0.42860   0.00000  Uiso   1.00
H592   H     0.25546   0.67996   0.57140   0.00000  Uiso   1.00
H593   H     0.21533   0.79249   0.64941   0.00000  Uiso   1.00
H594   H     0.28467   0.87417   0.35059   0.00000  Uiso   1.00
N595   N     0.23744   0.81881   0.34617   0.00000  Uiso   1.00
N596   N     0.26255   0.84786   0.65383   0.00000  Uiso   1.00
O597   O     0.25325   0.76204   0.53992   0.00000  Uiso   1.00
O598   O     0.24674   0.90462   0.46008   0.00000  Uiso   1.00
O599   O     0.24480   0.75226   0.43612   0.00000  Uiso   1.00
O600   O     0.25520   0.91441   0.56388   0.00000  Uiso   1.00
O601   O     0.18935   0.83821   0.55191   0.00000  Uiso   1.00
O602   O     0.31064   0.82845   0.44809   0.00000  Uiso   1.00
O603   O     0.18090   0.82843   0.44810   0.00000  Uiso   1.00
O604   O     0.31910   0.83824   0.55190   0.00000  Uiso   1.00
N605   N     0.38022   0.87327   0.40679   0.00000  Uiso   1.00
H606   H     0.38863   0.86077   0.36202   0.00000  Uiso   1.00
C607   C     0.37337   0.92912   0.42458   0.00000  Uiso   1.00
H608   H     0.40569   0.95250   0.43026   0.00000  Uiso   1.00
H609   H     0.35690   0.93836   0.46853   0.00000  Uiso   1.00
H610   H     0.35149   0.94061   0.38827   0.00000  Uiso   1.00
N611   N     0.11978   0.79339   0.59321   0.00000  Uiso   1.00
H612   H     0.11136   0.80588   0.63798   0.00000  Uiso   1.00
C613   C     0.12664   0.73755   0.57541   0.00000  Uiso   1.00
H614   H     0.09431   0.71416   0.56972   0.00000  Uiso   1.00
H615   H     0.14851   0.72605   0.61172   0.00000  Uiso   1.00
H616   H     0.14310   0.72831   0.53146   0.00000  Uiso   1.00
C617   C     0.74866   0.73322   0.48440   0.00000  Uiso   1.00
C618   C     0.75134   0.93345   0.51560   0.00000  Uiso   1.00
C619   C     0.52389   0.79448   0.59088   0.00000  Uiso   1.00
C620   C     0.97611   0.87218   0.40911   0.00000  Uiso   1.00
C621   C     0.74808   0.67726   0.47561   0.00000  Uiso   1.00
C622   C     0.75192   0.98941   0.52439   0.00000  Uiso   1.00
C623   C     0.66442   0.83268   0.50092   0.00000  Uiso   1.00
C624   C     0.83558   0.83398   0.49908   0.00000  Uiso   1.00
C625   C     0.90568   0.85324   0.45185   0.00000  Uiso   1.00
C626   C     0.59432   0.81343   0.54814   0.00000  Uiso   1.00
C627   C     0.88387   0.83429   0.49736   0.00000  Uiso   1.00
C628   C     0.61612   0.83238   0.50264   0.00000  Uiso   1.00
C629   C     0.90813   0.81542   0.54275   0.00000  Uiso   1.00
C630   C     0.59187   0.85125   0.45725   0.00000  Uiso   1.00
C631   C     0.95411   0.81471   0.54384   0.00000  Uiso   1.00
C632   C     0.54589   0.85195   0.45616   0.00000  Uiso   1.00
C633   C     0.97663   0.83353   0.49906   0.00000  Uiso   1.00
C634   C     0.52337   0.83314   0.50094   0.00000  Uiso   1.00
C635   C     0.95256   0.85289   0.45264   0.00000  Uiso   1.00
C636   C     0.54744   0.81378   0.54736   0.00000  Uiso   1.00
C637   C     0.97777   0.79520   0.58920   0.00000  Uiso   1.00
C638   C     0.52223   0.87146   0.41079   0.00000  Uiso   1.00
Cu639  Cu    0.75500   0.83913   0.56146   0.00000  Uiso   1.00
Cu640  Cu    0.74499   0.82754   0.43854   0.00000  Uiso   1.00
H641   H     0.89097   0.80057   0.57720   0.00000  Uiso   1.00
H642   H     0.60902   0.86610   0.42280   0.00000  Uiso   1.00
H643   H     0.96053   0.78037   0.62355   0.00000  Uiso   1.00
H644   H     0.53947   0.88629   0.37645   0.00000  Uiso   1.00
H645   H     0.54052   0.77845   0.62648   0.00000  Uiso   1.00
H646   H     0.95947   0.88821   0.37352   0.00000  Uiso   1.00
H647   H     0.74454   0.98671   0.42860   0.00000  Uiso   1.00
H648   H     0.75546   0.67996   0.57140   0.00000  Uiso   1.00
H649   H     0.71533   0.79249   0.64941   0.00000  Uiso   1.00
H650   H     0.78467   0.87417   0.35059   0.00000  Uiso   1.00
N651   N     0.73744   0.81881   0.34617   0.00000  Uiso   1.00
N652   N     0.76255   0.84786   0.65383   0.00000  Uiso   1.00
O653   O     0.75325   0.76204   0.53992   0.00000  Uiso   1.00
O654   O     0.74674   0.90462   0.46008   0.00000  Uiso   1.00
O655   O     0.74480   0.75226   0.43612   0.00000  Uiso   1.00
O656   O     0.75520   0.91441   0.56388   0.00000  Uiso   1.00
O657   O     0.68935   0.83821   0.55191   0.00000  Uiso   1.00
O658   O     0.81064   0.82845   0.44809   0.00000  Uiso   1.00
O659   O     0.68090   0.82843   0.44810   0.00000  Uiso   1.00
O660   O     0.81910   0.83824   0.55190   0.00000  Uiso   1.00
N661   N     0.88022   0.87327   0.40679   0.00000  Uiso   1.00
H662   H     0.88863   0.86077   0.36202   0.00000  Uiso   1.00
C663   C     0.87337   0.92912   0.42458   0.00000  Uiso   1.00
H664   H     0.90569   0.95250   0.43026   0.00000  Uiso   1.00
H665   H     0.85690   0.93836   0.46853   0.00000  Uiso   1.00
H666   H     0.85149   0.94061   0.38827   0.00000  Uiso   1.00
N667   N     0.61978   0.79339   0.59321   0.00000  Uiso   1.00
H668   H     0.61136   0.80588   0.63798   0.00000  Uiso   1.00
C669   C     0.62664   0.73755   0.57541   0.00000  Uiso   1.00
H670   H     0.59431   0.71416   0.56972   0.00000  Uiso   1.00
H671   H     0.64851   0.72605   0.61172   0.00000  Uiso   1.00
H672   H     0.64310   0.72831   0.53146   0.00000  Uiso   1.00
C673   C     0.24866   0.06655   0.81774   0.00000  Uiso   1.00
C674   C     0.25134   0.26678   0.84893   0.00000  Uiso   1.00
C675   C     0.02389   0.12781   0.92422   0.00000  Uiso   1.00
C676   C     0.47611   0.20552   0.74245   0.00000  Uiso   1.00
C677   C     0.24808   0.01059   0.80894   0.00000  Uiso   1.00
C678   C     0.25192   0.32274   0.85772   0.00000  Uiso   1.00
C679   C     0.16442   0.16602   0.83426   0.00000  Uiso   1.00
C680   C     0.33558   0.16732   0.83241   0.00000  Uiso   1.00
C681   C     0.40568   0.18657   0.78519   0.00000  Uiso   1.00
C682   C     0.09432   0.14676   0.88148   0.00000  Uiso   1.00
C683   C     0.38387   0.16762   0.83069   0.00000  Uiso   1.00
C684   C     0.11612   0.16571   0.83598   0.00000  Uiso   1.00
C685   C     0.40813   0.14875   0.87609   0.00000  Uiso   1.00
C686   C     0.09187   0.18458   0.79058   0.00000  Uiso   1.00
C687   C     0.45411   0.14805   0.87718   0.00000  Uiso   1.00
C688   C     0.04589   0.18529   0.78949   0.00000  Uiso   1.00
C689   C     0.47663   0.16686   0.83239   0.00000  Uiso   1.00
C690   C     0.02337   0.16647   0.83427   0.00000  Uiso   1.00
C691   C     0.45256   0.18622   0.78597   0.00000  Uiso   1.00
C692   C     0.04744   0.14711   0.88069   0.00000  Uiso   1.00
C693   C     0.47777   0.12854   0.92254   0.00000  Uiso   1.00
C694   C     0.02223   0.20479   0.74413   0.00000  Uiso   1.00
Cu695  Cu    0.25500   0.17246   0.89479   0.00000  Uiso   1.00
Cu696  Cu    0.24499   0.16087   0.77187   0.00000  Uiso   1.00
H697   H     0.39097   0.13390   0.91054   0.00000  Uiso   1.00
H698   H     0.10902   0.19943   0.75613   0.00000  Uiso   1.00
H699   H     0.46053   0.11371   0.95688   0.00000  Uiso   1.00
H700   H     0.03947   0.21962   0.70978   0.00000  Uiso   1.00
H701   H     0.04052   0.11179   0.95981   0.00000  Uiso   1.00
H702   H     0.45947   0.22154   0.70685   0.00000  Uiso   1.00
H703   H     0.24454   0.32004   0.76193   0.00000  Uiso   1.00
H704   H     0.25546   0.01329   0.90473   0.00000  Uiso   1.00
H705   H     0.21533   0.12583   0.98274   0.00000  Uiso   1.00
H706   H     0.28467   0.20751   0.68392   0.00000  Uiso   1.00
N707   N     0.23744   0.15214   0.67951   0.00000  Uiso   1.00
N708   N     0.26255   0.18119   0.98716   0.00000  Uiso   1.00
O709   O     0.25325   0.09538   0.87326   0.00000  Uiso   1.00
O710   O     0.24674   0.23796   0.79341   0.00000  Uiso   1.00
O711   O     0.24480   0.08559   0.76945   0.00000  Uiso   1.00
O712   O     0.25520   0.24774   0.89721   0.00000  Uiso   1.00
O713   O     0.18935   0.17155   0.88524   0.00000  Uiso   1.00
O714   O     0.31064   0.16179   0.78143   0.00000  Uiso   1.00
O715   O     0.18090   0.16176   0.78143   0.00000  Uiso   1.00
O716   O     0.31910   0.17157   0.88523   0.00000  Uiso   1.00
N717   N     0.38022   0.20660   0.74012   0.00000  Uiso   1.00
H718   H     0.38863   0.19411   0.69535   0.00000  Uiso   1.00
C719   C     0.37337   0.26245   0.75791   0.00000  Uiso   1.00
H720   H     0.40569   0.28583   0.76360   0.00000  Uiso   1.00
H721   H     0.35690   0.27169   0.80186   0.00000  Uiso   1.00
H722   H     0.35149   0.27395   0.72160   0.00000  Uiso   1.00
N723   N     0.11978   0.12673   0.92654   0.00000  Uiso   1.00
H724   H     0.11136   0.13922   0.97131   0.00000  Uiso   1.00
C725   C     0.12664   0.07088   0.90875   0.00000  Uiso   1.00
H726   H     0.09431   0.04750   0.90305   0.00000  Uiso   1.00
H727   H     0.14851   0.05938   0.94505   0.00000  Uiso   1.00
H728   H     0.14310   0.06165   0.86479   0.00000  Uiso   1.00
C729   C     0.74866   0.06655   0.81774   0.00000  Uiso   1.00
C730   C     0.75134   0.26678   0.84893   0.00000  Uiso   1.00
C731   C     0.52389   0.12781   0.92422   0.00000  Uiso   1.00
C732   C     0.97611   0.20552   0.74245   0.00000  Uiso   1.00
C733   C     0.74808   0.01059   0.80894   0.00000  Uiso   1.00
C734   C     0.75192   0.32274   0.85772   0.00000  Uiso   1.00
C735   C     0.66442   0.16602   0.83426   0.00000  Uiso   1.00
C736   C     0.83558   0.16732   0.83241   0.00000  Uiso   1.00
C737   C     0.90568   0.18657   0.78519   0.00000  Uiso   1.00
C738   C     0.59432   0.14676   0.88148   0.00000  Uiso   1.00
C739   C     0.88387   0.16762   0.83069   0.00000  Uiso   1.00
C740   C     0.61612   0.16571   0.83598   0.00000  Uiso   1.00
C741   C     0.90813   0.14875   0.87609   0.00000  Uiso   1.00
C742   C     0.59187   0.18458   0.79058   0.00000  Uiso   1.00
C743   C     0.95411   0.14805   0.87718   0.00000  Uiso   1.00
C744   C     0.54589   0.18529   0.78949   0.00000  Uiso   1.00
C745   C     0.97663   0.16686   0.83239   0.00000  Uiso   1.00
C746   C     0.52337   0.16647   0.83427   0.00000  Uiso   1.00
C747   C     0.95256   0.18622   0.78597   0.00000  Uiso   1.00
C748   C     0.54744   0.14711   0.88069   0.00000  Uiso   1.00
C749   C     0.97777   0.12854   0.92254   0.00000  Uiso   1.00
C750   C     0.52223   0.20479   0.74413   0.00000  Uiso   1.00
Cu751  Cu    0.75500   0.17246   0.89479   0.00000  Uiso   1.00
Cu752  Cu    0.74499   0.16087   0.77187   0.00000  Uiso   1.00
H753   H     0.89097   0.13390   0.91054   0.00000  Uiso   1.00
H754   H     0.60902   0.19943   0.75613   0.00000  Uiso   1.00
H755   H     0.96053   0.11371   0.95688   0.00000  Uiso   1.00
H756   H     0.53947   0.21962   0.70978   0.00000  Uiso   1.00
H757   H     0.54052   0.11179   0.95981   0.00000  Uiso   1.00
H758   H     0.95947   0.22154   0.70685   0.00000  Uiso   1.00
H759   H     0.74454   0.32004   0.76193   0.00000  Uiso   1.00
H760   H     0.75546   0.01329   0.90473   0.00000  Uiso   1.00
H761   H     0.71533   0.12583   0.98274   0.00000  Uiso   1.00
H762   H     0.78467   0.20751   0.68392   0.00000  Uiso   1.00
N763   N     0.73744   0.15214   0.67951   0.00000  Uiso   1.00
N764   N     0.76255   0.18119   0.98716   0.00000  Uiso   1.00
O765   O     0.75325   0.09538   0.87326   0.00000  Uiso   1.00
O766   O     0.74674   0.23796   0.79341   0.00000  Uiso   1.00
O767   O     0.74480   0.08559   0.76945   0.00000  Uiso   1.00
O768   O     0.75520   0.24774   0.89721   0.00000  Uiso   1.00
O769   O     0.68935   0.17155   0.88524   0.00000  Uiso   1.00
O770   O     0.81064   0.16179   0.78143   0.00000  Uiso   1.00
O771   O     0.68090   0.16176   0.78143   0.00000  Uiso   1.00
O772   O     0.81910   0.17157   0.88523   0.00000  Uiso   1.00
N773   N     0.88022   0.20660   0.74012   0.00000  Uiso   1.00
H774   H     0.88863   0.19411   0.69535   0.00000  Uiso   1.00
C775   C     0.87337   0.26245   0.75791   0.00000  Uiso   1.00
H776   H     0.90569   0.28583   0.76360   0.00000  Uiso   1.00
H777   H     0.85690   0.27169   0.80186   0.00000  Uiso   1.00
H778   H     0.85149   0.27395   0.72160   0.00000  Uiso   1.00
N779   N     0.61978   0.12673   0.92654   0.00000  Uiso   1.00
H780   H     0.61136   0.13922   0.97131   0.00000  Uiso   1.00
C781   C     0.62664   0.07088   0.90875   0.00000  Uiso   1.00
H782   H     0.59431   0.04750   0.90305   0.00000  Uiso   1.00
H783   H     0.64851   0.05938   0.94505   0.00000  Uiso   1.00
H784   H     0.64310   0.06165   0.86479   0.00000  Uiso   1.00
C785   C     0.24866   0.39989   0.81774   0.00000  Uiso   1.00
C786   C     0.25134   0.60011   0.84893   0.00000  Uiso   1.00
C787   C     0.02389   0.46115   0.92422   0.00000  Uiso   1.00
C788   C     0.47611   0.53885   0.74245   0.00000  Uiso   1.00
C789   C     0.24808   0.34392   0.80894   0.00000  Uiso   1.00
C790   C     0.25192   0.65608   0.85772   0.00000  Uiso   1.00
C791   C     0.16442   0.49935   0.83426   0.00000  Uiso   1.00
C792   C     0.33558   0.50065   0.83241   0.00000  Uiso   1.00
C793   C     0.40568   0.51990   0.78519   0.00000  Uiso   1.00
C794   C     0.09432   0.48010   0.88148   0.00000  Uiso   1.00
C795   C     0.38387   0.50096   0.83069   0.00000  Uiso   1.00
C796   C     0.11612   0.49904   0.83598   0.00000  Uiso   1.00
C797   C     0.40813   0.48209   0.87609   0.00000  Uiso   1.00
C798   C     0.09187   0.51791   0.79058   0.00000  Uiso   1.00
C799   C     0.45411   0.48138   0.87718   0.00000  Uiso   1.00
C800   C     0.04589   0.51862   0.78949   0.00000  Uiso   1.00
C801   C     0.47663   0.50020   0.83239   0.00000  Uiso   1.00
C802   C     0.02337   0.49980   0.83427   0.00000  Uiso   1.00
C803   C     0.45256   0.51955   0.78597   0.00000  Uiso   1.00
C804   C     0.04744   0.48045   0.88069   0.00000  Uiso   1.00
C805   C     0.47777   0.46187   0.92254   0.00000  Uiso   1.00
C806   C     0.02223   0.53813   0.74413   0.00000  Uiso   1.00
Cu807  Cu    0.25500   0.50579   0.89479   0.00000  Uiso   1.00
Cu808  Cu    0.24499   0.49421   0.77187   0.00000  Uiso   1.00
H809   H     0.39097   0.46723   0.91054   0.00000  Uiso   1.00
H810   H     0.10902   0.53277   0.75613   0.00000  Uiso   1.00
H811   H     0.46053   0.44704   0.95688   0.00000  Uiso   1.00
H812   H     0.03947   0.55295   0.70978   0.00000  Uiso   1.00
H813   H     0.04052   0.44512   0.95981   0.00000  Uiso   1.00
H814   H     0.45947   0.55487   0.70685   0.00000  Uiso   1.00
H815   H     0.24454   0.65338   0.76193   0.00000  Uiso   1.00
H816   H     0.25546   0.34663   0.90473   0.00000  Uiso   1.00
H817   H     0.21533   0.45916   0.98274   0.00000  Uiso   1.00
H818   H     0.28467   0.54084   0.68392   0.00000  Uiso   1.00
N819   N     0.23744   0.48547   0.67951   0.00000  Uiso   1.00
N820   N     0.26255   0.51453   0.98716   0.00000  Uiso   1.00
O821   O     0.25325   0.42871   0.87326   0.00000  Uiso   1.00
O822   O     0.24674   0.57129   0.79341   0.00000  Uiso   1.00
O823   O     0.24480   0.41892   0.76945   0.00000  Uiso   1.00
O824   O     0.25520   0.58108   0.89721   0.00000  Uiso   1.00
O825   O     0.18935   0.50488   0.88524   0.00000  Uiso   1.00
O826   O     0.31064   0.49512   0.78143   0.00000  Uiso   1.00
O827   O     0.18090   0.49510   0.78143   0.00000  Uiso   1.00
O828   O     0.31910   0.50490   0.88523   0.00000  Uiso   1.00
N829   N     0.38022   0.53994   0.74012   0.00000  Uiso   1.00
H830   H     0.38863   0.52744   0.69535   0.00000  Uiso   1.00
C831   C     0.37337   0.59578   0.75791   0.00000  Uiso   1.00
H832   H     0.40569   0.61916   0.76360   0.00000  Uiso   1.00
H833   H     0.35690   0.60502   0.80186   0.00000  Uiso   1.00
H834   H     0.35149   0.60728   0.72160   0.00000  Uiso   1.00
N835   N     0.11978   0.46006   0.92654   0.00000  Uiso   1.00
H836   H     0.11136   0.47255   0.97131   0.00000  Uiso   1.00
C837   C     0.12664   0.40421   0.90875   0.00000  Uiso   1.00
H838   H     0.09431   0.38083   0.90305   0.00000  Uiso   1.00
H839   H     0.14851   0.39271   0.94505   0.00000  Uiso   1.00
H840   H     0.14310   0.39498   0.86479   0.00000  Uiso   1.00
C841   C     0.74866   0.39989   0.81774   0.00000  Uiso   1.00
C842   C     0.75134   0.60011   0.84893   0.00000  Uiso   1.00
C843   C     0.52389   0.46115   0.92422   0.00000  Uiso   1.00
C844   C     0.97611   0.53885   0.74245   0.00000  Uiso   1.00
C845   C     0.74808   0.34392   0.80894   0.00000  Uiso   1.00
C846   C     0.75192   0.65608   0.85772   0.00000  Uiso   1.00
C847   C     0.66442   0.49935   0.83426   0.00000  Uiso   1.00
C848   C     0.83558   0.50065   0.83241   0.00000  Uiso   1.00
C849   C     0.90568   0.51990   0.78519   0.00000  Uiso   1.00
C850   C     0.59432   0.48010   0.88148   0.00000  Uiso   1.00
C851   C     0.88387   0.50096   0.83069   0.00000  Uiso   1.00
C852   C     0.61612   0.49904   0.83598   0.00000  Uiso   1.00
C853   C     0.90813   0.48209   0.87609   0.00000  Uiso   1.00
C854   C     0.59187   0.51791   0.79058   0.00000  Uiso   1.00
C855   C     0.95411   0.48138   0.87718   0.00000  Uiso   1.00
C856   C     0.54589   0.51862   0.78949   0.00000  Uiso   1.00
C857   C     0.97663   0.50020   0.83239   0.00000  Uiso   1.00
C858   C     0.52337   0.49980   0.83427   0.00000  Uiso   1.00
C859   C     0.95256   0.51955   0.78597   0.00000  Uiso   1.00
C860   C     0.54744   0.48045   0.88069   0.00000  Uiso   1.00
C861   C     0.97777   0.46187   0.92254   0.00000  Uiso   1.00
C862   C     0.52223   0.53813   0.74413   0.00000  Uiso   1.00
Cu863  Cu    0.75500   0.50579   0.89479   0.00000  Uiso   1.00
Cu864  Cu    0.74499   0.49421   0.77187   0.00000  Uiso   1.00
H865   H     0.89097   0.46723   0.91054   0.00000  Uiso   1.00
H866   H     0.60902   0.53277   0.75613   0.00000  Uiso   1.00
H867   H     0.96053   0.44704   0.95688   0.00000  Uiso   1.00
H868   H     0.53947   0.55295   0.70978   0.00000  Uiso   1.00
H869   H     0.54052   0.44512   0.95981   0.00000  Uiso   1.00
H870   H     0.95947   0.55487   0.70685   0.00000  Uiso   1.00
H871   H     0.74454   0.65338   0.76193   0.00000  Uiso   1.00
H872   H     0.75546   0.34663   0.90473   0.00000  Uiso   1.00
H873   H     0.71533   0.45916   0.98274   0.00000  Uiso   1.00
H874   H     0.78467   0.54084   0.68392   0.00000  Uiso   1.00
N875   N     0.73744   0.48547   0.67951   0.00000  Uiso   1.00
N876   N     0.76255   0.51453   0.98716   0.00000  Uiso   1.00
O877   O     0.75325   0.42871   0.87326   0.00000  Uiso   1.00
O878   O     0.74674   0.57129   0.79341   0.00000  Uiso   1.00
O879   O     0.74480   0.41892   0.76945   0.00000  Uiso   1.00
O880   O     0.75520   0.58108   0.89721   0.00000  Uiso   1.00
O881   O     0.68935   0.50488   0.88524   0.00000  Uiso   1.00
O882   O     0.81064   0.49512   0.78143   0.00000  Uiso   1.00
O883   O     0.68090   0.49510   0.78143   0.00000  Uiso   1.00
O884   O     0.81910   0.50490   0.88523   0.00000  Uiso   1.00
N885   N     0.88022   0.53994   0.74012   0.00000  Uiso   1.00
H886   H     0.88863   0.52744   0.69535   0.00000  Uiso   1.00
C887   C     0.87337   0.59578   0.75791   0.00000  Uiso   1.00
H888   H     0.90569   0.61916   0.76360   0.00000  Uiso   1.00
H889   H     0.85690   0.60502   0.80186   0.00000  Uiso   1.00
H890   H     0.85149   0.60728   0.72160   0.00000  Uiso   1.00
N891   N     0.61978   0.46006   0.92654   0.00000  Uiso   1.00
H892   H     0.61136   0.47255   0.97131   0.00000  Uiso   1.00
C893   C     0.62664   0.40421   0.90875   0.00000  Uiso   1.00
H894   H     0.59431   0.38083   0.90305   0.00000  Uiso   1.00
H895   H     0.64851   0.39271   0.94505   0.00000  Uiso   1.00
H896   H     0.64310   0.39498   0.86479   0.00000  Uiso   1.00
C897   C     0.24866   0.73322   0.81774   0.00000  Uiso   1.00
C898   C     0.25134   0.93345   0.84893   0.00000  Uiso   1.00
C899   C     0.02389   0.79448   0.92422   0.00000  Uiso   1.00
C900   C     0.47611   0.87218   0.74245   0.00000  Uiso   1.00
C901   C     0.24808   0.67726   0.80894   0.00000  Uiso   1.00
C902   C     0.25192   0.98941   0.85772   0.00000  Uiso   1.00
C903   C     0.16442   0.83268   0.83426   0.00000  Uiso   1.00
C904   C     0.33558   0.83398   0.83241   0.00000  Uiso   1.00
C905   C     0.40568   0.85324   0.78519   0.00000  Uiso   1.00
C906   C     0.09432   0.81343   0.88148   0.00000  Uiso   1.00
C907   C     0.38387   0.83429   0.83069   0.00000  Uiso   1.00
C908   C     0.11612   0.83238   0.83598   0.00000  Uiso   1.00
C909   C     0.40813   0.81542   0.87609   0.00000  Uiso   1.00
C910   C     0.09187   0.85125   0.79058   0.00000  Uiso   1.00
C911   C     0.45411   0.81471   0.87718   0.00000  Uiso   1.00
C912   C     0.04589   0.85195   0.78949   0.00000  Uiso   1.00
C913   C     0.47663   0.83353   0.83239   0.00000  Uiso   1.00
C914   C     0.02337   0.83314   0.83427   0.00000  Uiso   1.00
C915   C     0.45256   0.85289   0.78597   0.00000  Uiso   1.00
C916   C     0.04744   0.81378   0.88069   0.00000  Uiso   1.00
C917   C     0.47777   0.79520   0.92254   0.00000  Uiso   1.00
C918   C     0.02223   0.87146   0.74413   0.00000  Uiso   1.00
Cu919  Cu    0.25500   0.83913   0.89479   0.00000  Uiso   1.00
Cu920  Cu    0.24499   0.82754   0.77187   0.00000  Uiso   1.00
H921   H     0.39097   0.80057   0.91054   0.00000  Uiso   1.00
H922   H     0.10902   0.86610   0.75613   0.00000  Uiso   1.00
H923   H     0.46053   0.78037   0.95688   0.00000  Uiso   1.00
H924   H     0.03947   0.88629   0.70978   0.00000  Uiso   1.00
H925   H     0.04052   0.77845   0.95981   0.00000  Uiso   1.00
H926   H     0.45947   0.88821   0.70685   0.00000  Uiso   1.00
H927   H     0.24454   0.98671   0.76193   0.00000  Uiso   1.00
H928   H     0.25546   0.67996   0.90473   0.00000  Uiso   1.00
H929   H     0.21533   0.79249   0.98274   0.00000  Uiso   1.00
H930   H     0.28467   0.87417   0.68392   0.00000  Uiso   1.00
N931   N     0.23744   0.81881   0.67951   0.00000  Uiso   1.00
N932   N     0.26255   0.84786   0.98716   0.00000  Uiso   1.00
O933   O     0.25325   0.76204   0.87326   0.00000  Uiso   1.00
O934   O     0.24674   0.90462   0.79341   0.00000  Uiso   1.00
O935   O     0.24480   0.75226   0.76945   0.00000  Uiso   1.00
O936   O     0.25520   0.91441   0.89721   0.00000  Uiso   1.00
O937   O     0.18935   0.83821   0.88524   0.00000  Uiso   1.00
O938   O     0.31064   0.82845   0.78143   0.00000  Uiso   1.00
O939   O     0.18090   0.82843   0.78143   0.00000  Uiso   1.00
O940   O     0.31910   0.83824   0.88523   0.00000  Uiso   1.00
N941   N     0.38022   0.87327   0.74012   0.00000  Uiso   1.00
H942   H     0.38863   0.86077   0.69535   0.00000  Uiso   1.00
C943   C     0.37337   0.92912   0.75791   0.00000  Uiso   1.00
H944   H     0.40569   0.95250   0.76360   0.00000  Uiso   1.00
H945   H     0.35690   0.93836   0.80186   0.00000  Uiso   1.00
H946   H     0.35149   0.94061   0.72160   0.00000  Uiso   1.00
N947   N     0.11978   0.79339   0.92654   0.00000  Uiso   1.00
H948   H     0.11136   0.80588   0.97131   0.00000  Uiso   1.00
C949   C     0.12664   0.73755   0.90875   0.00000  Uiso   1.00
H950   H     0.09431   0.71416   0.90305   0.00000  Uiso   1.00
H951   H     0.14851   0.72605   0.94505   0.00000  Uiso   1.00
H952   H     0.14310   0.72831   0.86479   0.00000  Uiso   1.00
C953   C     0.74866   0.73322   0.81774   0.00000  Uiso   1.00
C954   C     0.75134   0.93345   0.84893   0.00000  Uiso   1.00
C955   C     0.52389   0.79448   0.92422   0.00000  Uiso   1.00
C956   C     0.97611   0.87218   0.74245   0.00000  Uiso   1.00
C957   C     0.74808   0.67726   0.80894   0.00000  Uiso   1.00
C958   C     0.75192   0.98941   0.85772   0.00000  Uiso   1.00
C959   C     0.66442   0.83268   0.83426   0.00000  Uiso   1.00
C960   C     0.83558   0.83398   0.83241   0.00000  Uiso   1.00
C961   C     0.90568   0.85324   0.78519   0.00000  Uiso   1.00
C962   C     0.59432   0.81343   0.88148   0.00000  Uiso   1.00
C963   C     0.88387   0.83429   0.83069   0.00000  Uiso   1.00
C964   C     0.61612   0.83238   0.83598   0.00000  Uiso   1.00
C965   C     0.90813   0.81542   0.87609   0.00000  Uiso   1.00
C966   C     0.59187   0.85125   0.79058   0.00000  Uiso   1.00
C967   C     0.95411   0.81471   0.87718   0.00000  Uiso   1.00
C968   C     0.54589   0.85195   0.78949   0.00000  Uiso   1.00
C969   C     0.97663   0.83353   0.83239   0.00000  Uiso   1.00
C970   C     0.52337   0.83314   0.83427   0.00000  Uiso   1.00
C971   C     0.95256   0.85289   0.78597   0.00000  Uiso   1.00
C972   C     0.54744   0.81378   0.88069   0.00000  Uiso   1.00
C973   C     0.97777   0.79520   0.92254   0.00000  Uiso   1.00
C974   C     0.52223   0.87146   0.74413   0.00000  Uiso   1.00
Cu975  Cu    0.75500   0.83913   0.89479   0.00000  Uiso   1.00
Cu976  Cu    0.74499   0.82754   0.77187   0.00000  Uiso   1.00
H977   H     0.89097   0.80057   0.91054   0.00000  Uiso   1.00
H978   H     0.60902   0.86610   0.75613   0.00000  Uiso   1.00
H979   H     0.96053   0.78037   0.95688   0.00000  Uiso   1.00
H980   H     0.53947   0.88629   0.70978   0.00000  Uiso   1.00
H981   H     0.54052   0.77845   0.95981   0.00000  Uiso   1.00
H982   H     0.95947   0.88821   0.70685   0.00000  Uiso   1.00
H983   H     0.74454   0.98671   0.76193   0.00000  Uiso   1.00
H984   H     0.75546   0.67996   0.90473   0.00000  Uiso   1.00
H985   H     0.71533   0.79249   0.98274   0.00000  Uiso   1.00
H986   H     0.78467   0.87417   0.68392   0.00000  Uiso   1.00
N987   N     0.73744   0.81881   0.67951   0.00000  Uiso   1.00
N988   N     0.76255   0.84786   0.98716   0.00000  Uiso   1.00
O989   O     0.75325   0.76204   0.87326   0.00000  Uiso   1.00
O990   O     0.74674   0.90462   0.79341   0.00000  Uiso   1.00
O991   O     0.74480   0.75226   0.76945   0.00000  Uiso   1.00
O992   O     0.75520   0.91441   0.89721   0.00000  Uiso   1.00
O993   O     0.68935   0.83821   0.88524   0.00000  Uiso   1.00
O994   O     0.81064   0.82845   0.78143   0.00000  Uiso   1.00
O995   O     0.68090   0.82843   0.78143   0.00000  Uiso   1.00
O996   O     0.81910   0.83824   0.88523   0.00000  Uiso   1.00
N997   N     0.88022   0.87327   0.74012   0.00000  Uiso   1.00
H998   H     0.88863   0.86077   0.69535   0.00000  Uiso   1.00
C999   C     0.87337   0.92912   0.75791   0.00000  Uiso   1.00
H1000  H     0.90569   0.95250   0.76360   0.00000  Uiso   1.00
H1001  H     0.85690   0.93836   0.80186   0.00000  Uiso   1.00
H1002  H     0.85149   0.94061   0.72160   0.00000  Uiso   1.00
N1003  N     0.61978   0.79339   0.92654   0.00000  Uiso   1.00
H1004  H     0.61136   0.80588   0.97131   0.00000  Uiso   1.00
C1005  C     0.62664   0.73755   0.90875   0.00000  Uiso   1.00
H1006  H     0.59431   0.71416   0.90305   0.00000  Uiso   1.00
H1007  H     0.64851   0.72605   0.94505   0.00000  Uiso   1.00
H1008  H     0.64310   0.72831   0.86479   0.00000  Uiso   1.00
loop_
_geom_bond_atom_site_label_1
_geom_bond_atom_site_label_2
_geom_bond_distance
_geom_bond_site_symmetry_2
_ccdc_geom_bond_type
C1     O37     1.291   .     A
C1     C5      1.425   .     S
C1     O39     1.283   .     A
C2     O38     1.291   .     A
C2     C6      1.425   .     S
C2     O40     1.283   .     A
C3     C20     1.408   .     A
C3     H29     1.081   .     S
C3     C77     1.389   1_455 S
C4     C19     1.408   .     A
C4     H30     1.081   .     S
C4     C78     1.389   .     S
C5     C230    1.326   1_545 S
C5     H255    1.088   1_545 S
C6     C117    1.326   .     S
C6     H144    1.088   .     S
C7     O43     1.293   .     A
C7     C12     1.458   .     S
C7     O41     1.296   .     A
C8     O42     1.296   .     A
C8     C11     1.458   .     S
C8     O44     1.293   .     A
C9     N45     1.427   .     S
C9     C11     1.412   .     A
C9     C19     1.412   .     A
C10    C12     1.412   .     A
C10    N51     1.427   .     S
C10    C20     1.412   .     A
C11    C13     1.398   .     A
C12    C14     1.398   .     A
C13    H25     1.085   .     S
C13    C15     1.385   .     A
C14    H26     1.085   .     S
C14    C16     1.385   .     A
C15    C17     1.408   .     A
C15    C21     1.397   .     A
C16    C18     1.408   .     A
C16    C22     1.397   .     A
C17    C19     1.419   .     A
C17    C74     1.407   .     S
C18    C20     1.419   .     A
C18    C73     1.407   1_455 S
C21    H27     1.084   .     S
C21    C59     1.389   .     S
C22    H28     1.084   .     S
C22    C60     1.389   1_455 S
Cu23   Cu24    2.684   .     S
Cu23   O41     1.974   .     S
Cu23   O37     1.954   .     S
Cu23   N36     2.017   .     S
Cu23   O44     1.958   .     S
Cu23   O40     1.949   .     S
Cu24   O38     1.954   .     S
Cu24   N35     2.017   .     S
Cu24   O39     1.949   .     S
Cu24   O42     1.974   .     S
Cu24   O43     1.958   .     S
H31    C117    1.088   .     S
H32    C230    1.088   1_545 S
H33    N371    1.029   .     S
H34    N708    1.029   1_554 S
N35    H705    1.029   1_554 S
N35    N708    1.296   1_554 S
N36    N371    1.296   .     S
N36    H370    1.029   .     S
N45    H46     1.031   .     S
N45    C47     1.447   .     S
C47    H49     1.111   .     S
C47    H50     1.110   .     S
C47    H48     1.111   .     S
N51    C53     1.447   .     S
N51    H52     1.031   .     S
C53    H56     1.111   .     S
C53    H55     1.110   .     S
C53    H54     1.111   .     S
C57    O93     1.291   .     A
C57    C61     1.425   .     S
C57    O95     1.283   .     A
C58    O94     1.291   .     A
C58    C62     1.425   .     S
C58    O96     1.283   .     A
C59    C76     1.408   .     A
C59    H85     1.081   .     S
C60    C75     1.408   .     A
C60    H86     1.081   .     S
C60    C22     1.389   1_655 S
C61    C286    1.326   1_545 S
C61    H311    1.088   1_545 S
C62    C173    1.326   .     S
C62    H200    1.088   .     S
C63    O99     1.293   .     A
C63    C68     1.458   .     S
C63    O97     1.296   .     A
C64    O98     1.296   .     A
C64    C67     1.458   .     S
C64    O100    1.293   .     A
C65    N101    1.427   .     S
C65    C67     1.412   .     A
C65    C75     1.412   .     A
C66    C68     1.412   .     A
C66    N107    1.427   .     S
C66    C76     1.412   .     A
C67    C69     1.398   .     A
C68    C70     1.398   .     A
C69    H81     1.085   .     S
C69    C71     1.385   .     A
C70    H82     1.085   .     S
C70    C72     1.385   .     A
C71    C73     1.408   .     A
C71    C77     1.397   .     A
C72    C74     1.408   .     A
C72    C78     1.397   .     A
C73    C75     1.419   .     A
C73    C18     1.407   1_655 S
C74    C76     1.419   .     A
C77    H83     1.084   .     S
C77    C3      1.389   1_655 S
C78    H84     1.084   .     S
Cu79   Cu80    2.684   .     S
Cu79   O97     1.974   .     S
Cu79   O93     1.954   .     S
Cu79   N92     2.017   .     S
Cu79   O100    1.958   .     S
Cu79   O96     1.949   .     S
Cu80   O94     1.954   .     S
Cu80   N91     2.017   .     S
Cu80   O95     1.949   .     S
Cu80   O98     1.974   .     S
Cu80   O99     1.958   .     S
H87    C173    1.088   .     S
H88    C286    1.088   1_545 S
H89    N427    1.029   .     S
H90    N764    1.029   1_554 S
N91    H761    1.029   1_554 S
N91    N764    1.296   1_554 S
N92    N427    1.296   .     S
N92    H426    1.029   .     S
N101   H102    1.031   .     S
N101   C103    1.447   .     S
C103   H105    1.111   .     S
C103   H106    1.110   .     S
C103   H104    1.111   .     S
N107   C109    1.447   .     S
N107   H108    1.031   .     S
C109   H112    1.111   .     S
C109   H111    1.110   .     S
C109   H110    1.111   .     S
C113   O149    1.291   .     A
C113   C117    1.425   .     S
C113   O151    1.283   .     A
C114   O150    1.291   .     A
C114   C118    1.425   .     S
C114   O152    1.283   .     A
C115   C132    1.408   .     A
C115   H141    1.081   .     S
C115   C189    1.389   1_455 S
C116   C131    1.408   .     A
C116   H142    1.081   .     S
C116   C190    1.389   .     S
C118   C229    1.326   .     S
C118   H256    1.088   .     S
C119   O155    1.293   .     A
C119   C124    1.458   .     S
C119   O153    1.296   .     A
C120   O154    1.296   .     A
C120   C123    1.458   .     S
C120   O156    1.293   .     A
C121   N157    1.427   .     S
C121   C123    1.412   .     A
C121   C131    1.412   .     A
C122   C124    1.412   .     A
C122   N163    1.427   .     S
C122   C132    1.412   .     A
C123   C125    1.398   .     A
C124   C126    1.398   .     A
C125   H137    1.085   .     S
C125   C127    1.385   .     A
C126   H138    1.085   .     S
C126   C128    1.385   .     A
C127   C129    1.408   .     A
C127   C133    1.397   .     A
C128   C130    1.408   .     A
C128   C134    1.397   .     A
C129   C131    1.419   .     A
C129   C186    1.407   .     S
C130   C132    1.419   .     A
C130   C185    1.407   1_455 S
C133   H139    1.084   .     S
C133   C171    1.389   .     S
C134   H140    1.084   .     S
C134   C172    1.389   1_455 S
Cu135  Cu136   2.684   .     S
Cu135  O153    1.974   .     S
Cu135  O149    1.954   .     S
Cu135  N148    2.017   .     S
Cu135  O156    1.958   .     S
Cu135  O152    1.949   .     S
Cu136  O150    1.954   .     S
Cu136  N147    2.017   .     S
Cu136  O151    1.949   .     S
Cu136  O154    1.974   .     S
Cu136  O155    1.958   .     S
H143   C229    1.088   .     S
H145   N483    1.029   .     S
H146   N820    1.029   1_554 S
N147   H817    1.029   1_554 S
N147   N820    1.296   1_554 S
N148   N483    1.296   .     S
N148   H482    1.029   .     S
N157   H158    1.031   .     S
N157   C159    1.447   .     S
C159   H161    1.111   .     S
C159   H162    1.110   .     S
C159   H160    1.111   .     S
N163   C165    1.447   .     S
N163   H164    1.031   .     S
C165   H168    1.111   .     S
C165   H167    1.110   .     S
C165   H166    1.111   .     S
C169   O205    1.291   .     A
C169   C173    1.425   .     S
C169   O207    1.283   .     A
C170   O206    1.291   .     A
C170   C174    1.425   .     S
C170   O208    1.283   .     A
C171   C188    1.408   .     A
C171   H197    1.081   .     S
C172   C187    1.408   .     A
C172   H198    1.081   .     S
C172   C134    1.389   1_655 S
C174   C285    1.326   .     S
C174   H312    1.088   .     S
C175   O211    1.293   .     A
C175   C180    1.458   .     S
C175   O209    1.296   .     A
C176   O210    1.296   .     A
C176   C179    1.458   .     S
C176   O212    1.293   .     A
C177   N213    1.427   .     S
C177   C179    1.412   .     A
C177   C187    1.412   .     A
C178   C180    1.412   .     A
C178   N219    1.427   .     S
C178   C188    1.412   .     A
C179   C181    1.398   .     A
C180   C182    1.398   .     A
C181   H193    1.085   .     S
C181   C183    1.385   .     A
C182   H194    1.085   .     S
C182   C184    1.385   .     A
C183   C185    1.408   .     A
C183   C189    1.397   .     A
C184   C186    1.408   .     A
C184   C190    1.397   .     A
C185   C187    1.419   .     A
C185   C130    1.407   1_655 S
C186   C188    1.419   .     A
C189   H195    1.084   .     S
C189   C115    1.389   1_655 S
C190   H196    1.084   .     S
Cu191  Cu192   2.684   .     S
Cu191  O209    1.974   .     S
Cu191  O205    1.954   .     S
Cu191  N204    2.017   .     S
Cu191  O212    1.958   .     S
Cu191  O208    1.949   .     S
Cu192  O206    1.954   .     S
Cu192  N203    2.017   .     S
Cu192  O207    1.949   .     S
Cu192  O210    1.974   .     S
Cu192  O211    1.958   .     S
H199   C285    1.088   .     S
H201   N539    1.029   .     S
H202   N876    1.029   1_554 S
N203   H873    1.029   1_554 S
N203   N876    1.296   1_554 S
N204   N539    1.296   .     S
N204   H538    1.029   .     S
N213   H214    1.031   .     S
N213   C215    1.447   .     S
C215   H217    1.111   .     S
C215   H218    1.110   .     S
C215   H216    1.111   .     S
N219   C221    1.447   .     S
N219   H220    1.031   .     S
C221   H224    1.111   .     S
C221   H223    1.110   .     S
C221   H222    1.111   .     S
C225   O261    1.291   .     A
C225   C229    1.425   .     S
C225   O263    1.283   .     A
C226   O262    1.291   .     A
C226   C230    1.425   .     S
C226   O264    1.283   .     A
C227   C244    1.408   .     A
C227   H253    1.081   .     S
C227   C301    1.389   1_455 S
C228   C243    1.408   .     A
C228   H254    1.081   .     S
C228   C302    1.389   .     S
C230   C5      1.326   1_565 S
C230   H32     1.088   1_565 S
C231   O267    1.293   .     A
C231   C236    1.458   .     S
C231   O265    1.296   .     A
C232   O266    1.296   .     A
C232   C235    1.458   .     S
C232   O268    1.293   .     A
C233   N269    1.427   .     S
C233   C235    1.412   .     A
C233   C243    1.412   .     A
C234   C236    1.412   .     A
C234   N275    1.427   .     S
C234   C244    1.412   .     A
C235   C237    1.398   .     A
C236   C238    1.398   .     A
C237   H249    1.085   .     S
C237   C239    1.385   .     A
C238   H250    1.085   .     S
C238   C240    1.385   .     A
C239   C241    1.408   .     A
C239   C245    1.397   .     A
C240   C242    1.408   .     A
C240   C246    1.397   .     A
C241   C243    1.419   .     A
C241   C298    1.407   .     S
C242   C244    1.419   .     A
C242   C297    1.407   1_455 S
C245   H251    1.084   .     S
C245   C283    1.389   .     S
C246   H252    1.084   .     S
C246   C284    1.389   1_455 S
Cu247  Cu248   2.684   .     S
Cu247  O265    1.974   .     S
Cu247  O261    1.954   .     S
Cu247  N260    2.017   .     S
Cu247  O268    1.958   .     S
Cu247  O264    1.949   .     S
Cu248  O262    1.954   .     S
Cu248  N259    2.017   .     S
Cu248  O263    1.949   .     S
Cu248  O266    1.974   .     S
Cu248  O267    1.958   .     S
H255   C5      1.088   1_565 S
H257   N595    1.029   .     S
H258   N932    1.029   1_554 S
N259   H929    1.029   1_554 S
N259   N932    1.296   1_554 S
N260   N595    1.296   .     S
N260   H594    1.029   .     S
N269   H270    1.031   .     S
N269   C271    1.447   .     S
C271   H273    1.111   .     S
C271   H274    1.110   .     S
C271   H272    1.111   .     S
N275   C277    1.447   .     S
N275   H276    1.031   .     S
C277   H280    1.111   .     S
C277   H279    1.110   .     S
C277   H278    1.111   .     S
C281   O317    1.291   .     A
C281   C285    1.425   .     S
C281   O319    1.283   .     A
C282   O318    1.291   .     A
C282   C286    1.425   .     S
C282   O320    1.283   .     A
C283   C300    1.408   .     A
C283   H309    1.081   .     S
C284   C299    1.408   .     A
C284   H310    1.081   .     S
C284   C246    1.389   1_655 S
C286   C61     1.326   1_565 S
C286   H88     1.088   1_565 S
C287   O323    1.293   .     A
C287   C292    1.458   .     S
C287   O321    1.296   .     A
C288   O322    1.296   .     A
C288   C291    1.458   .     S
C288   O324    1.293   .     A
C289   N325    1.427   .     S
C289   C291    1.412   .     A
C289   C299    1.412   .     A
C290   C292    1.412   .     A
C290   N331    1.427   .     S
C290   C300    1.412   .     A
C291   C293    1.398   .     A
C292   C294    1.398   .     A
C293   H305    1.085   .     S
C293   C295    1.385   .     A
C294   H306    1.085   .     S
C294   C296    1.385   .     A
C295   C297    1.408   .     A
C295   C301    1.397   .     A
C296   C298    1.408   .     A
C296   C302    1.397   .     A
C297   C299    1.419   .     A
C297   C242    1.407   1_655 S
C298   C300    1.419   .     A
C301   H307    1.084   .     S
C301   C227    1.389   1_655 S
C302   H308    1.084   .     S
Cu303  Cu304   2.684   .     S
Cu303  O321    1.974   .     S
Cu303  O317    1.954   .     S
Cu303  N316    2.017   .     S
Cu303  O324    1.958   .     S
Cu303  O320    1.949   .     S
Cu304  O318    1.954   .     S
Cu304  N315    2.017   .     S
Cu304  O319    1.949   .     S
Cu304  O322    1.974   .     S
Cu304  O323    1.958   .     S
H311   C61     1.088   1_565 S
H313   N651    1.029   .     S
H314   N988    1.029   1_554 S
N315   H985    1.029   1_554 S
N315   N988    1.296   1_554 S
N316   N651    1.296   .     S
N316   H650    1.029   .     S
N325   H326    1.031   .     S
N325   C327    1.447   .     S
C327   H329    1.111   .     S
C327   H330    1.110   .     S
C327   H328    1.111   .     S
N331   C333    1.447   .     S
N331   H332    1.031   .     S
C333   H336    1.111   .     S
C333   H335    1.110   .     S
C333   H334    1.111   .     S
C337   O373    1.291   .     A
C337   C341    1.425   .     S
C337   O375    1.283   .     A
C338   O374    1.291   .     A
C338   C342    1.425   .     S
C338   O376    1.283   .     A
C339   C356    1.408   .     A
C339   H365    1.081   .     S
C339   C413    1.389   1_455 S
C340   C355    1.408   .     A
C340   H366    1.081   .     S
C340   C414    1.389   .     S
C341   C566    1.326   1_545 S
C341   H591    1.088   1_545 S
C342   C453    1.326   .     S
C342   H480    1.088   .     S
C343   O379    1.293   .     A
C343   C348    1.458   .     S
C343   O377    1.296   .     A
C344   O378    1.296   .     A
C344   C347    1.458   .     S
C344   O380    1.293   .     A
C345   N381    1.427   .     S
C345   C347    1.412   .     A
C345   C355    1.412   .     A
C346   C348    1.412   .     A
C346   N387    1.427   .     S
C346   C356    1.412   .     A
C347   C349    1.398   .     A
C348   C350    1.398   .     A
C349   H361    1.085   .     S
C349   C351    1.385   .     A
C350   H362    1.085   .     S
C350   C352    1.385   .     A
C351   C353    1.408   .     A
C351   C357    1.397   .     A
C352   C354    1.408   .     A
C352   C358    1.397   .     A
C353   C355    1.419   .     A
C353   C410    1.407   .     S
C354   C356    1.419   .     A
C354   C409    1.407   1_455 S
C357   H363    1.084   .     S
C357   C395    1.389   .     S
C358   H364    1.084   .     S
C358   C396    1.389   1_455 S
Cu359  Cu360   2.684   .     S
Cu359  O377    1.974   .     S
Cu359  O373    1.954   .     S
Cu359  N372    2.017   .     S
Cu359  O380    1.958   .     S
Cu359  O376    1.949   .     S
Cu360  O374    1.954   .     S
Cu360  N371    2.017   .     S
Cu360  O375    1.949   .     S
Cu360  O378    1.974   .     S
Cu360  O379    1.958   .     S
H367   C453    1.088   .     S
H368   C566    1.088   1_545 S
H369   N707    1.029   .     S
N372   N707    1.296   .     S
N372   H706    1.029   .     S
N381   H382    1.031   .     S
N381   C383    1.447   .     S
C383   H385    1.111   .     S
C383   H386    1.110   .     S
C383   H384    1.111   .     S
N387   C389    1.447   .     S
N387   H388    1.031   .     S
C389   H392    1.111   .     S
C389   H391    1.110   .     S
C389   H390    1.111   .     S
C393   O429    1.291   .     A
C393   C397    1.425   .     S
C393   O431    1.283   .     A
C394   O430    1.291   .     A
C394   C398    1.425   .     S
C394   O432    1.283   .     A
C395   C412    1.408   .     A
C395   H421    1.081   .     S
C396   C411    1.408   .     A
C396   H422    1.081   .     S
C396   C358    1.389   1_655 S
C397   C622    1.326   1_545 S
C397   H647    1.088   1_545 S
C398   C509    1.326   .     S
C398   H536    1.088   .     S
C399   O435    1.293   .     A
C399   C404    1.458   .     S
C399   O433    1.296   .     A
C400   O434    1.296   .     A
C400   C403    1.458   .     S
C400   O436    1.293   .     A
C401   N437    1.427   .     S
C401   C403    1.412   .     A
C401   C411    1.412   .     A
C402   C404    1.412   .     A
C402   N443    1.427   .     S
C402   C412    1.412   .     A
C403   C405    1.398   .     A
C404   C406    1.398   .     A
C405   H417    1.085   .     S
C405   C407    1.385   .     A
C406   H418    1.085   .     S
C406   C408    1.385   .     A
C407   C409    1.408   .     A
C407   C413    1.397   .     A
C408   C410    1.408   .     A
C408   C414    1.397   .     A
C409   C411    1.419   .     A
C409   C354    1.407   1_655 S
C410   C412    1.419   .     A
C413   H419    1.084   .     S
C413   C339    1.389   1_655 S
C414   H420    1.084   .     S
Cu415  Cu416   2.684   .     S
Cu415  O433    1.974   .     S
Cu415  O429    1.954   .     S
Cu415  N428    2.017   .     S
Cu415  O436    1.958   .     S
Cu415  O432    1.949   .     S
Cu416  O430    1.954   .     S
Cu416  N427    2.017   .     S
Cu416  O431    1.949   .     S
Cu416  O434    1.974   .     S
Cu416  O435    1.958   .     S
H423   C509    1.088   .     S
H424   C622    1.088   1_545 S
H425   N763    1.029   .     S
N428   N763    1.296   .     S
N428   H762    1.029   .     S
N437   H438    1.031   .     S
N437   C439    1.447   .     S
C439   H441    1.111   .     S
C439   H442    1.110   .     S
C439   H440    1.111   .     S
N443   C445    1.447   .     S
N443   H444    1.031   .     S
C445   H448    1.111   .     S
C445   H447    1.110   .     S
C445   H446    1.111   .     S
C449   O485    1.291   .     A
C449   C453    1.425   .     S
C449   O487    1.283   .     A
C450   O486    1.291   .     A
C450   C454    1.425   .     S
C450   O488    1.283   .     A
C451   C468    1.408   .     A
C451   H477    1.081   .     S
C451   C525    1.389   1_455 S
C452   C467    1.408   .     A
C452   H478    1.081   .     S
C452   C526    1.389   .     S
C454   C565    1.326   .     S
C454   H592    1.088   .     S
C455   O491    1.293   .     A
C455   C460    1.458   .     S
C455   O489    1.296   .     A
C456   O490    1.296   .     A
C456   C459    1.458   .     S
C456   O492    1.293   .     A
C457   N493    1.427   .     S
C457   C459    1.412   .     A
C457   C467    1.412   .     A
C458   C460    1.412   .     A
C458   N499    1.427   .     S
C458   C468    1.412   .     A
C459   C461    1.398   .     A
C460   C462    1.398   .     A
C461   H473    1.085   .     S
C461   C463    1.385   .     A
C462   H474    1.085   .     S
C462   C464    1.385   .     A
C463   C465    1.408   .     A
C463   C469    1.397   .     A
C464   C466    1.408   .     A
C464   C470    1.397   .     A
C465   C467    1.419   .     A
C465   C522    1.407   .     S
C466   C468    1.419   .     A
C466   C521    1.407   1_455 S
C469   H475    1.084   .     S
C469   C507    1.389   .     S
C470   H476    1.084   .     S
C470   C508    1.389   1_455 S
Cu471  Cu472   2.684   .     S
Cu471  O489    1.974   .     S
Cu471  O485    1.954   .     S
Cu471  N484    2.017   .     S
Cu471  O492    1.958   .     S
Cu471  O488    1.949   .     S
Cu472  O486    1.954   .     S
Cu472  N483    2.017   .     S
Cu472  O487    1.949   .     S
Cu472  O490    1.974   .     S
Cu472  O491    1.958   .     S
H479   C565    1.088   .     S
H481   N819    1.029   .     S
N484   N819    1.296   .     S
N484   H818    1.029   .     S
N493   H494    1.031   .     S
N493   C495    1.447   .     S
C495   H497    1.111   .     S
C495   H498    1.110   .     S
C495   H496    1.111   .     S
N499   C501    1.447   .     S
N499   H500    1.031   .     S
C501   H504    1.111   .     S
C501   H503    1.110   .     S
C501   H502    1.111   .     S
C505   O541    1.291   .     A
C505   C509    1.425   .     S
C505   O543    1.283   .     A
C506   O542    1.291   .     A
C506   C510    1.425   .     S
C506   O544    1.283   .     A
C507   C524    1.408   .     A
C507   H533    1.081   .     S
C508   C523    1.408   .     A
C508   H534    1.081   .     S
C508   C470    1.389   1_655 S
C510   C621    1.326   .     S
C510   H648    1.088   .     S
C511   O547    1.293   .     A
C511   C516    1.458   .     S
C511   O545    1.296   .     A
C512   O546    1.296   .     A
C512   C515    1.458   .     S
C512   O548    1.293   .     A
C513   N549    1.427   .     S
C513   C515    1.412   .     A
C513   C523    1.412   .     A
C514   C516    1.412   .     A
C514   N555    1.427   .     S
C514   C524    1.412   .     A
C515   C517    1.398   .     A
C516   C518    1.398   .     A
C517   H529    1.085   .     S
C517   C519    1.385   .     A
C518   H530    1.085   .     S
C518   C520    1.385   .     A
C519   C521    1.408   .     A
C519   C525    1.397   .     A
C520   C522    1.408   .     A
C520   C526    1.397   .     A
C521   C523    1.419   .     A
C521   C466    1.407   1_655 S
C522   C524    1.419   .     A
C525   H531    1.084   .     S
C525   C451    1.389   1_655 S
C526   H532    1.084   .     S
Cu527  Cu528   2.684   .     S
Cu527  O545    1.974   .     S
Cu527  O541    1.954   .     S
Cu527  N540    2.017   .     S
Cu527  O548    1.958   .     S
Cu527  O544    1.949   .     S
Cu528  O542    1.954   .     S
Cu528  N539    2.017   .     S
Cu528  O543    1.949   .     S
Cu528  O546    1.974   .     S
Cu528  O547    1.958   .     S
H535   C621    1.088   .     S
H537   N875    1.029   .     S
N540   N875    1.296   .     S
N540   H874    1.029   .     S
N549   H550    1.031   .     S
N549   C551    1.447   .     S
C551   H553    1.111   .     S
C551   H554    1.110   .     S
C551   H552    1.111   .     S
N555   C557    1.447   .     S
N555   H556    1.031   .     S
C557   H560    1.111   .     S
C557   H559    1.110   .     S
C557   H558    1.111   .     S
C561   O597    1.291   .     A
C561   C565    1.425   .     S
C561   O599    1.283   .     A
C562   O598    1.291   .     A
C562   C566    1.425   .     S
C562   O600    1.283   .     A
C563   C580    1.408   .     A
C563   H589    1.081   .     S
C563   C637    1.389   1_455 S
C564   C579    1.408   .     A
C564   H590    1.081   .     S
C564   C638    1.389   .     S
C566   C341    1.326   1_565 S
C566   H368    1.088   1_565 S
C567   O603    1.293   .     A
C567   C572    1.458   .     S
C567   O601    1.296   .     A
C568   O602    1.296   .     A
C568   C571    1.458   .     S
C568   O604    1.293   .     A
C569   N605    1.427   .     S
C569   C571    1.412   .     A
C569   C579    1.412   .     A
C570   C572    1.412   .     A
C570   N611    1.427   .     S
C570   C580    1.412   .     A
C571   C573    1.398   .     A
C572   C574    1.398   .     A
C573   H585    1.085   .     S
C573   C575    1.385   .     A
C574   H586    1.085   .     S
C574   C576    1.385   .     A
C575   C577    1.408   .     A
C575   C581    1.397   .     A
C576   C578    1.408   .     A
C576   C582    1.397   .     A
C577   C579    1.419   .     A
C577   C634    1.407   .     S
C578   C580    1.419   .     A
C578   C633    1.407   1_455 S
C581   H587    1.084   .     S
C581   C619    1.389   .     S
C582   H588    1.084   .     S
C582   C620    1.389   1_455 S
Cu583  Cu584   2.684   .     S
Cu583  O601    1.974   .     S
Cu583  O597    1.954   .     S
Cu583  N596    2.017   .     S
Cu583  O604    1.958   .     S
Cu583  O600    1.949   .     S
Cu584  O598    1.954   .     S
Cu584  N595    2.017   .     S
Cu584  O599    1.949   .     S
Cu584  O602    1.974   .     S
Cu584  O603    1.958   .     S
H591   C341    1.088   1_565 S
H593   N931    1.029   .     S
N596   N931    1.296   .     S
N596   H930    1.029   .     S
N605   H606    1.031   .     S
N605   C607    1.447   .     S
C607   H609    1.111   .     S
C607   H610    1.110   .     S
C607   H608    1.111   .     S
N611   C613    1.447   .     S
N611   H612    1.031   .     S
C613   H616    1.111   .     S
C613   H615    1.110   .     S
C613   H614    1.111   .     S
C617   O653    1.291   .     A
C617   C621    1.425   .     S
C617   O655    1.283   .     A
C618   O654    1.291   .     A
C618   C622    1.425   .     S
C618   O656    1.283   .     A
C619   C636    1.408   .     A
C619   H645    1.081   .     S
C620   C635    1.408   .     A
C620   H646    1.081   .     S
C620   C582    1.389   1_655 S
C622   C397    1.326   1_565 S
C622   H424    1.088   1_565 S
C623   O659    1.293   .     A
C623   C628    1.458   .     S
C623   O657    1.296   .     A
C624   O658    1.296   .     A
C624   C627    1.458   .     S
C624   O660    1.293   .     A
C625   N661    1.427   .     S
C625   C627    1.412   .     A
C625   C635    1.412   .     A
C626   C628    1.412   .     A
C626   N667    1.427   .     S
C626   C636    1.412   .     A
C627   C629    1.398   .     A
C628   C630    1.398   .     A
C629   H641    1.085   .     S
C629   C631    1.385   .     A
C630   H642    1.085   .     S
C630   C632    1.385   .     A
C631   C633    1.408   .     A
C631   C637    1.397   .     A
C632   C634    1.408   .     A
C632   C638    1.397   .     A
C633   C635    1.419   .     A
C633   C578    1.407   1_655 S
C634   C636    1.419   .     A
C637   H643    1.084   .     S
C637   C563    1.389   1_655 S
C638   H644    1.084   .     S
Cu639  Cu640   2.684   .     S
Cu639  O657    1.974   .     S
Cu639  O653    1.954   .     S
Cu639  N652    2.017   .     S
Cu639  O660    1.958   .     S
Cu639  O656    1.949   .     S
Cu640  O654    1.954   .     S
Cu640  N651    2.017   .     S
Cu640  O655    1.949   .     S
Cu640  O658    1.974   .     S
Cu640  O659    1.958   .     S
H647   C397    1.088   1_565 S
H649   N987    1.029   .     S
N652   N987    1.296   .     S
N652   H986    1.029   .     S
N661   H662    1.031   .     S
N661   C663    1.447   .     S
C663   H665    1.111   .     S
C663   H666    1.110   .     S
C663   H664    1.111   .     S
N667   C669    1.447   .     S
N667   H668    1.031   .     S
C669   H672    1.111   .     S
C669   H671    1.110   .     S
C669   H670    1.111   .     S
C673   O709    1.291   .     A
C673   C677    1.425   .     S
C673   O711    1.283   .     A
C674   O710    1.291   .     A
C674   C678    1.425   .     S
C674   O712    1.283   .     A
C675   C692    1.408   .     A
C675   H701    1.081   .     S
C675   C749    1.389   1_455 S
C676   C691    1.408   .     A
C676   H702    1.081   .     S
C676   C750    1.389   .     S
C677   C902    1.326   1_545 S
C677   H927    1.088   1_545 S
C678   C789    1.326   .     S
C678   H816    1.088   .     S
C679   O715    1.293   .     A
C679   C684    1.458   .     S
C679   O713    1.296   .     A
C680   O714    1.296   .     A
C680   C683    1.458   .     S
C680   O716    1.293   .     A
C681   N717    1.427   .     S
C681   C683    1.412   .     A
C681   C691    1.412   .     A
C682   C684    1.412   .     A
C682   N723    1.427   .     S
C682   C692    1.412   .     A
C683   C685    1.398   .     A
C684   C686    1.398   .     A
C685   H697    1.085   .     S
C685   C687    1.385   .     A
C686   H698    1.085   .     S
C686   C688    1.385   .     A
C687   C689    1.408   .     A
C687   C693    1.397   .     A
C688   C690    1.408   .     A
C688   C694    1.397   .     A
C689   C691    1.419   .     A
C689   C746    1.407   .     S
C690   C692    1.419   .     A
C690   C745    1.407   1_455 S
C693   H699    1.084   .     S
C693   C731    1.389   .     S
C694   H700    1.084   .     S
C694   C732    1.389   1_455 S
Cu695  Cu696   2.684   .     S
Cu695  O713    1.974   .     S
Cu695  O709    1.954   .     S
Cu695  N708    2.017   .     S
Cu695  O716    1.958   .     S
Cu695  O712    1.949   .     S
Cu696  O710    1.954   .     S
Cu696  N707    2.017   .     S
Cu696  O711    1.949   .     S
Cu696  O714    1.974   .     S
Cu696  O715    1.958   .     S
H703   C789    1.088   .     S
H704   C902    1.088   1_545 S
H705   N35     1.029   1_556 S
N708   N35     1.296   1_556 S
N708   H34     1.029   1_556 S
N717   H718    1.031   .     S
N717   C719    1.447   .     S
C719   H721    1.111   .     S
C719   H722    1.110   .     S
C719   H720    1.111   .     S
N723   C725    1.447   .     S
N723   H724    1.031   .     S
C725   H728    1.111   .     S
C725   H727    1.110   .     S
C725   H726    1.111   .     S
C729   O765    1.291   .     A
C729   C733    1.425   .     S
C729   O767    1.283   .     A
C730   O766    1.291   .     A
C730   C734    1.425   .     S
C730   O768    1.283   .     A
C731   C748    1.408   .     A
C731   H757    1.081   .     S
C732   C747    1.408   .     A
C732   H758    1.081   .     S
C732   C694    1.389   1_655 S
C733   C958    1.326   1_545 S
C733   H983    1.088   1_545 S
C734   C845    1.326   .     S
C734   H872    1.088   .     S
C735   O771    1.293   .     A
C735   C740    1.458   .     S
C735   O769    1.296   .     A
C736   O770    1.296   .     A
C736   C739    1.458   .     S
C736   O772    1.293   .     A
C737   N773    1.427   .     S
C737   C739    1.412   .     A
C737   C747    1.412   .     A
C738   C740    1.412   .     A
C738   N779    1.427   .     S
C738   C748    1.412   .     A
C739   C741    1.398   .     A
C740   C742    1.398   .     A
C741   H753    1.085   .     S
C741   C743    1.385   .     A
C742   H754    1.085   .     S
C742   C744    1.385   .     A
C743   C745    1.408   .     A
C743   C749    1.397   .     A
C744   C746    1.408   .     A
C744   C750    1.397   .     A
C745   C747    1.419   .     A
C745   C690    1.407   1_655 S
C746   C748    1.419   .     A
C749   H755    1.084   .     S
C749   C675    1.389   1_655 S
C750   H756    1.084   .     S
Cu751  Cu752   2.684   .     S
Cu751  O769    1.974   .     S
Cu751  O765    1.954   .     S
Cu751  N764    2.017   .     S
Cu751  O772    1.958   .     S
Cu751  O768    1.949   .     S
Cu752  O766    1.954   .     S
Cu752  N763    2.017   .     S
Cu752  O767    1.949   .     S
Cu752  O770    1.974   .     S
Cu752  O771    1.958   .     S
H759   C845    1.088   .     S
H760   C958    1.088   1_545 S
H761   N91     1.029   1_556 S
N764   N91     1.296   1_556 S
N764   H90     1.029   1_556 S
N773   H774    1.031   .     S
N773   C775    1.447   .     S
C775   H777    1.111   .     S
C775   H778    1.110   .     S
C775   H776    1.111   .     S
N779   C781    1.447   .     S
N779   H780    1.031   .     S
C781   H784    1.111   .     S
C781   H783    1.110   .     S
C781   H782    1.111   .     S
C785   O821    1.291   .     A
C785   C789    1.425   .     S
C785   O823    1.283   .     A
C786   O822    1.291   .     A
C786   C790    1.425   .     S
C786   O824    1.283   .     A
C787   C804    1.408   .     A
C787   H813    1.081   .     S
C787   C861    1.389   1_455 S
C788   C803    1.408   .     A
C788   H814    1.081   .     S
C788   C862    1.389   .     S
C790   C901    1.326   .     S
C790   H928    1.088   .     S
C791   O827    1.293   .     A
C791   C796    1.458   .     S
C791   O825    1.296   .     A
C792   O826    1.296   .     A
C792   C795    1.458   .     S
C792   O828    1.293   .     A
C793   N829    1.427   .     S
C793   C795    1.412   .     A
C793   C803    1.412   .     A
C794   C796    1.412   .     A
C794   N835    1.427   .     S
C794   C804    1.412   .     A
C795   C797    1.398   .     A
C796   C798    1.398   .     A
C797   H809    1.085   .     S
C797   C799    1.385   .     A
C798   H810    1.085   .     S
C798   C800    1.385   .     A
C799   C801    1.408   .     A
C799   C805    1.397   .     A
C800   C802    1.408   .     A
C800   C806    1.397   .     A
C801   C803    1.419   .     A
C801   C858    1.407   .     S
C802   C804    1.419   .     A
C802   C857    1.407   1_455 S
C805   H811    1.084   .     S
C805   C843    1.389   .     S
C806   H812    1.084   .     S
C806   C844    1.389   1_455 S
Cu807  Cu808   2.684   .     S
Cu807  O825    1.974   .     S
Cu807  O821    1.954   .     S
Cu807  N820    2.017   .     S
Cu807  O828    1.958   .     S
Cu807  O824    1.949   .     S
Cu808  O822    1.954   .     S
Cu808  N819    2.017   .     S
Cu808  O823    1.949   .     S
Cu808  O826    1.974   .     S
Cu808  O827    1.958   .     S
H815   C901    1.088   .     S
H817   N147    1.029   1_556 S
N820   N147    1.296   1_556 S
N820   H146    1.029   1_556 S
N829   H830    1.031   .     S
N829   C831    1.447   .     S
C831   H833    1.111   .     S
C831   H834    1.110   .     S
C831   H832    1.111   .     S
N835   C837    1.447   .     S
N835   H836    1.031   .     S
C837   H840    1.111   .     S
C837   H839    1.110   .     S
C837   H838    1.111   .     S
C841   O877    1.291   .     A
C841   C845    1.425   .     S
C841   O879    1.283   .     A
C842   O878    1.291   .     A
C842   C846    1.425   .     S
C842   O880    1.283   .     A
C843   C860    1.408   .     A
C843   H869    1.081   .     S
C844   C859    1.408   .     A
C844   H870    1.081   .     S
C844   C806    1.389   1_655 S
C846   C957    1.326   .     S
C846   H984    1.088   .     S
C847   O883    1.293   .     A
C847   C852    1.458   .     S
C847   O881    1.296   .     A
C848   O882    1.296   .     A
C848   C851    1.458   .     S
C848   O884    1.293   .     A
C849   N885    1.427   .     S
C849   C851    1.412   .     A
C849   C859    1.412   .     A
C850   C852    1.412   .     A
C850   N891    1.427   .     S
C850   C860    1.412   .     A
C851   C853    1.398   .     A
C852   C854    1.398   .     A
C853   H865    1.085   .     S
C853   C855    1.385   .     A
C854   H866    1.085   .     S
C854   C856    1.385   .     A
C855   C857    1.408   .     A
C855   C861    1.397   .     A
C856   C858    1.408   .     A
C856   C862    1.397   .     A
C857   C859    1.419   .     A
C857   C802    1.407   1_655 S
C858   C860    1.419   .     A
C861   H867    1.084   .     S
C861   C787    1.389   1_655 S
C862   H868    1.084   .     S
Cu863  Cu864   2.684   .     S
Cu863  O881    1.974   .     S
Cu863  O877    1.954   .     S
Cu863  N876    2.017   .     S
Cu863  O884    1.958   .     S
Cu863  O880    1.949   .     S
Cu864  O878    1.954   .     S
Cu864  N875    2.017   .     S
Cu864  O879    1.949   .     S
Cu864  O882    1.974   .     S
Cu864  O883    1.958   .     S
H871   C957    1.088   .     S
H873   N203    1.029   1_556 S
N876   N203    1.296   1_556 S
N876   H202    1.029   1_556 S
N885   H886    1.031   .     S
N885   C887    1.447   .     S
C887   H889    1.111   .     S
C887   H890    1.110   .     S
C887   H888    1.111   .     S
N891   C893    1.447   .     S
N891   H892    1.031   .     S
C893   H896    1.111   .     S
C893   H895    1.110   .     S
C893   H894    1.111   .     S
C897   O933    1.291   .     A
C897   C901    1.425   .     S
C897   O935    1.283   .     A
C898   O934    1.291   .     A
C898   C902    1.425   .     S
C898   O936    1.283   .     A
C899   C916    1.408   .     A
C899   H925    1.081   .     S
C899   C973    1.389   1_455 S
C900   C915    1.408   .     A
C900   H926    1.081   .     S
C900   C974    1.389   .     S
C902   C677    1.326   1_565 S
C902   H704    1.088   1_565 S
C903   O939    1.293   .     A
C903   C908    1.458   .     S
C903   O937    1.296   .     A
C904   O938    1.296   .     A
C904   C907    1.458   .     S
C904   O940    1.293   .     A
C905   N941    1.427   .     S
C905   C907    1.412   .     A
C905   C915    1.412   .     A
C906   C908    1.412   .     A
C906   N947    1.427   .     S
C906   C916    1.412   .     A
C907   C909    1.398   .     A
C908   C910    1.398   .     A
C909   H921    1.085   .     S
C909   C911    1.385   .     A
C910   H922    1.085   .     S
C910   C912    1.385   .     A
C911   C913    1.408   .     A
C911   C917    1.397   .     A
C912   C914    1.408   .     A
C912   C918    1.397   .     A
C913   C915    1.419   .     A
C913   C970    1.407   .     S
C914   C916    1.419   .     A
C914   C969    1.407   1_455 S
C917   H923    1.084   .     S
C917   C955    1.389   .     S
C918   H924    1.084   .     S
C918   C956    1.389   1_455 S
Cu919  Cu920   2.684   .     S
Cu919  O937    1.974   .     S
Cu919  O933    1.954   .     S
Cu919  N932    2.017   .     S
Cu919  O940    1.958   .     S
Cu919  O936    1.949   .     S
Cu920  O934    1.954   .     S
Cu920  N931    2.017   .     S
Cu920  O935    1.949   .     S
Cu920  O938    1.974   .     S
Cu920  O939    1.958   .     S
H927   C677    1.088   1_565 S
H929   N259    1.029   1_556 S
N932   N259    1.296   1_556 S
N932   H258    1.029   1_556 S
N941   H942    1.031   .     S
N941   C943    1.447   .     S
C943   H945    1.111   .     S
C943   H946    1.110   .     S
C943   H944    1.111   .     S
N947   C949    1.447   .     S
N947   H948    1.031   .     S
C949   H952    1.111   .     S
C949   H951    1.110   .     S
C949   H950    1.111   .     S
C953   O989    1.291   .     A
C953   C957    1.425   .     S
C953   O991    1.283   .     A
C954   O990    1.291   .     A
C954   C958    1.425   .     S
C954   O992    1.283   .     A
C955   C972    1.408   .     A
C955   H981    1.081   .     S
C956   C971    1.408   .     A
C956   H982    1.081   .     S
C956   C918    1.389   1_655 S
C958   C733    1.326   1_565 S
C958   H760    1.088   1_565 S
C959   O995    1.293   .     A
C959   C964    1.458   .     S
C959   O993    1.296   .     A
C960   O994    1.296   .     A
C960   C963    1.458   .     S
C960   O996    1.293   .     A
C961   N997    1.427   .     S
C961   C963    1.412   .     A
C961   C971    1.412   .     A
C962   C964    1.412   .     A
C962   N1003   1.427   .     S
C962   C972    1.412   .     A
C963   C965    1.398   .     A
C964   C966    1.398   .     A
C965   H977    1.085   .     S
C965   C967    1.385   .     A
C966   H978    1.085   .     S
C966   C968    1.385   .     A
C967   C969    1.408   .     A
C967   C973    1.397   .     A
C968   C970    1.408   .     A
C968   C974    1.397   .     A
C969   C971    1.419   .     A
C969   C914    1.407   1_655 S
C970   C972    1.419   .     A
C973   H979    1.084   .     S
C973   C899    1.389   1_655 S
C974   H980    1.084   .     S
Cu975  Cu976   2.684   .     S
Cu975  O993    1.974   .     S
Cu975  O989    1.954   .     S
Cu975  N988    2.017   .     S
Cu975  O996    1.958   .     S
Cu975  O992    1.949   .     S
Cu976  O990    1.954   .     S
Cu976  N987    2.017   .     S
Cu976  O991    1.949   .     S
Cu976  O994    1.974   .     S
Cu976  O995    1.958   .     S
H983   C733    1.088   1_565 S
H985   N315    1.029   1_556 S
N988   N315    1.296   1_556 S
N988   H314    1.029   1_556 S
N997   H998    1.031   .     S
N997   C999    1.447   .     S
C999   H1001   1.111   .     S
C999   H1002   1.110   .     S
C999   H1000   1.111   .     S
N1003  C1005   1.447   .     S
N1003  H1004   1.031   .     S
C1005  H1008   1.111   .     S
C1005  H1007   1.110   .     S
C1005  H1006   1.111   .     S
