data_str_m2_o10_o17_pcu_sym.190
_audit_creation_date              2020-01-03
_audit_creation_method            'Materials Studio'
_symmetry_space_group_name_H-M    'P1'
_symmetry_Int_Tables_number       1
_symmetry_cell_setting            triclinic
loop_
_symmetry_equiv_pos_as_xyz
  x,y,z
_cell_length_a                    29.9663
_cell_length_b                    26.6051
_cell_length_c                    22.9154
_cell_angle_alpha                 103.5780
_cell_angle_beta                  94.1398
_cell_angle_gamma                 95.6182
loop_
_atom_site_label
_atom_site_type_symbol
_atom_site_fract_x
_atom_site_fract_y
_atom_site_fract_z
_atom_site_U_iso_or_equiv
_atom_site_adp_type
_atom_site_occupancy
O1     O     0.25326   0.09538   0.20659   0.00000  Uiso   1.00
O2     O     0.24675   0.23796   0.12674   0.00000  Uiso   1.00
O3     O     0.24480   0.08559   0.10279   0.00000  Uiso   1.00
O4     O     0.25520   0.24774   0.23055   0.00000  Uiso   1.00
C5     C     0.24662   0.06681   0.15133   0.00000  Uiso   1.00
C6     C     0.25204   0.26643   0.18192   0.00000  Uiso   1.00
O7     O     0.18936   0.17155   0.21857   0.00000  Uiso   1.00
O8     O     0.31065   0.16179   0.11476   0.00000  Uiso   1.00
O9     O     0.18090   0.16176   0.11477   0.00000  Uiso   1.00
O10    O     0.31910   0.17157   0.21857   0.00000  Uiso   1.00
C11    C     0.16471   0.16524   0.16696   0.00000  Uiso   1.00
C12    C     0.33544   0.16976   0.16659   0.00000  Uiso   1.00
Cu13   Cu    0.25501   0.17246   0.22813   0.00000  Uiso   1.00
Cu14   Cu    0.24500   0.16087   0.10521   0.00000  Uiso   1.00
C15    C     0.41264   0.21660   0.19340   0.00000  Uiso   1.00
C16    C     0.08763   0.12014   0.14275   0.00000  Uiso   1.00
C17    C     0.38394   0.17138   0.16565   0.00000  Uiso   1.00
C18    C     0.11654   0.16534   0.16795   0.00000  Uiso   1.00
C19    C     0.40117   0.12617   0.13904   0.00000  Uiso   1.00
C20    C     0.09991   0.21128   0.19330   0.00000  Uiso   1.00
C21    C     0.44758   0.12362   0.14364   0.00000  Uiso   1.00
C22    C     0.05343   0.21381   0.19193   0.00000  Uiso   1.00
C23    C     0.47715   0.16968   0.16834   0.00000  Uiso   1.00
C24    C     0.02366   0.16772   0.16806   0.00000  Uiso   1.00
C25    C     0.45990   0.21735   0.19346   0.00000  Uiso   1.00
C26    C     0.04071   0.11978   0.14349   0.00000  Uiso   1.00
C27    C     0.46428   0.07528   0.12422   0.00000  Uiso   1.00
C28    C     0.03684   0.26183   0.21429   0.00000  Uiso   1.00
C29    C     0.01101   0.07274   0.12149   0.00000  Uiso   1.00
C30    C     0.48985   0.26416   0.21734   0.00000  Uiso   1.00
H31    H     0.39728   0.25086   0.21340   0.00000  Uiso   1.00
H32    H     0.10264   0.08548   0.12404   0.00000  Uiso   1.00
H33    H     0.37765   0.09255   0.11619   0.00000  Uiso   1.00
H34    H     0.12412   0.24492   0.21319   0.00000  Uiso   1.00
C35    C     0.23883   0.01060   0.14493   0.00000  Uiso   1.00
C36    C     0.25891   0.32247   0.18807   0.00000  Uiso   1.00
N37    N     0.23745   0.15214   0.01284   0.00000  Uiso   1.00
N38    N     0.26256   0.18119   0.32049   0.00000  Uiso   1.00
O39    O     0.43500   0.03023   0.10998   0.00000  Uiso   1.00
H40    H     0.41366   0.03259   0.14127   0.00000  Uiso   1.00
O41    O     0.06671   0.30648   0.23325   0.00000  Uiso   1.00
H42    H     0.08754   0.30750   0.20180   0.00000  Uiso   1.00
C43    C     0.03095   0.02117   0.09857   0.00000  Uiso   1.00
C44    C     0.49874   0.30376   0.07455   0.00000  Uiso   1.00
C45    C     0.02346   0.25732   0.04881   0.00000  Uiso   1.00
H46    H     0.03940   0.26303   0.00829   0.00000  Uiso   1.00
H47    H     0.04940   0.25190   0.08314   0.00000  Uiso   1.00
H48    H     0.49908   0.22142   0.03520   0.00000  Uiso   1.00
H49    H     0.48036   0.29426   0.11148   0.00000  Uiso   1.00
H50    H     0.47439   0.30825   0.03809   0.00000  Uiso   1.00
H51    H     0.05165   0.02608   0.06190   0.00000  Uiso   1.00
H52    H     0.05406   0.01526   0.13563   0.00000  Uiso   1.00
C53    C     0.46994   0.31548   0.24200   0.00000  Uiso   1.00
C54    C     0.00275   0.03240   0.26651   0.00000  Uiso   1.00
C55    C     0.47896   0.07950   0.29182   0.00000  Uiso   1.00
H56    H     0.45695   0.08783   0.25522   0.00000  Uiso   1.00
H57    H     0.45923   0.07261   0.32888   0.00000  Uiso   1.00
H58    H     0.00432   0.11401   0.31019   0.00000  Uiso   1.00
H59    H     0.02642   0.02737   0.30334   0.00000  Uiso   1.00
H60    H     0.02171   0.04168   0.22989   0.00000  Uiso   1.00
H61    H     0.44685   0.32228   0.20545   0.00000  Uiso   1.00
H62    H     0.44906   0.31006   0.27854   0.00000  Uiso   1.00
C63    C     0.20355   0.31155   0.09427   0.00000  Uiso   1.00
C64    C     0.17401   0.00915   0.06141   0.00000  Uiso   1.00
C65    C     0.13422   0.30831   0.02229   0.00000  Uiso   1.00
H66    H     0.14605   0.28389   0.31509   0.00000  Uiso   1.00
H67    H     0.11644   0.28339   0.04785   0.00000  Uiso   1.00
H68    H     0.11073   0.00002   0.00706   0.00000  Uiso   1.00
H69    H     0.16111   0.04028   0.09481   0.00000  Uiso   1.00
H70    H     0.19416   0.02612   0.03052   0.00000  Uiso   1.00
H71    H     0.22077   0.28629   0.05939   0.00000  Uiso   1.00
H72    H     0.18043   0.28682   0.11481   0.00000  Uiso   1.00
C73    C     0.29142   0.01955   0.24224   0.00000  Uiso   1.00
C74    C     0.33564   0.04320   0.22444   0.00000  Uiso   1.00
C75    C     0.36316   0.07915   0.27971   0.00000  Uiso   1.00
H76    H     0.34113   0.10108   0.31050   0.00000  Uiso   1.00
H77    H     0.38208   0.05587   0.30485   0.00000  Uiso   1.00
H78    H     0.38675   0.10780   0.26565   0.00000  Uiso   1.00
H79    H     0.35551   0.01144   0.20438   0.00000  Uiso   1.00
H80    H     0.32958   0.06554   0.19022   0.00000  Uiso   1.00
H81    H     0.27415   0.04831   0.27312   0.00000  Uiso   1.00
H82    H     0.30171   0.32749   0.27091   0.00000  Uiso   1.00
C83    C     0.19176   0.13245   0.31973   0.00000  Uiso   1.00
C84    C     0.15876   0.17482   0.33047   0.00000  Uiso   1.00
C85    C     0.10972   0.15022   0.31731   0.00000  Uiso   1.00
H86    H     0.10381   0.12409   0.27131   0.00000  Uiso   1.00
H87    H     0.10133   0.12719   0.01716   0.00000  Uiso   1.00
H88    H     0.08701   0.18112   0.32057   0.00000  Uiso   1.00
H89    H     0.16348   0.20041   0.04276   0.00000  Uiso   1.00
H90    H     0.16455   0.20416   0.30469   0.00000  Uiso   1.00
H91    H     0.19084   0.11020   0.27245   0.00000  Uiso   1.00
H92    H     0.17957   0.10243   0.00957   0.00000  Uiso   1.00
C93    C     0.30459   0.20897   0.01984   0.00000  Uiso   1.00
C94    C     0.31755   0.25989   0.00253   0.00000  Uiso   1.00
C95    C     0.35769   0.29176   0.04366   0.00000  Uiso   1.00
H96    H     0.34940   0.30167   0.09120   0.00000  Uiso   1.00
H97    H     0.38743   0.26968   0.04033   0.00000  Uiso   1.00
H98    H     0.36607   0.32844   0.02971   0.00000  Uiso   1.00
H99    H     0.32733   0.25270   0.28938   0.00000  Uiso   1.00
H100   H     0.28856   0.28307   0.00732   0.00000  Uiso   1.00
H101   H     0.30115   0.22227   0.06730   0.00000  Uiso   1.00
H102   H     0.33219   0.18413   0.01253   0.00000  Uiso   1.00
O103   O     0.75326   0.09538   0.20659   0.00000  Uiso   1.00
O104   O     0.74675   0.23796   0.12674   0.00000  Uiso   1.00
O105   O     0.74480   0.08559   0.10279   0.00000  Uiso   1.00
O106   O     0.75520   0.24774   0.23055   0.00000  Uiso   1.00
C107   C     0.74662   0.06681   0.15133   0.00000  Uiso   1.00
C108   C     0.75204   0.26643   0.18192   0.00000  Uiso   1.00
O109   O     0.68936   0.17155   0.21857   0.00000  Uiso   1.00
O110   O     0.81065   0.16179   0.11476   0.00000  Uiso   1.00
O111   O     0.68090   0.16176   0.11477   0.00000  Uiso   1.00
O112   O     0.81910   0.17157   0.21857   0.00000  Uiso   1.00
C113   C     0.66471   0.16524   0.16696   0.00000  Uiso   1.00
C114   C     0.83544   0.16976   0.16659   0.00000  Uiso   1.00
Cu115  Cu    0.75501   0.17246   0.22813   0.00000  Uiso   1.00
Cu116  Cu    0.74500   0.16087   0.10521   0.00000  Uiso   1.00
C117   C     0.91264   0.21660   0.19340   0.00000  Uiso   1.00
C118   C     0.58763   0.12014   0.14275   0.00000  Uiso   1.00
C119   C     0.88394   0.17138   0.16565   0.00000  Uiso   1.00
C120   C     0.61654   0.16534   0.16795   0.00000  Uiso   1.00
C121   C     0.90117   0.12617   0.13904   0.00000  Uiso   1.00
C122   C     0.59991   0.21128   0.19330   0.00000  Uiso   1.00
C123   C     0.94758   0.12362   0.14364   0.00000  Uiso   1.00
C124   C     0.55343   0.21381   0.19193   0.00000  Uiso   1.00
C125   C     0.97715   0.16968   0.16834   0.00000  Uiso   1.00
C126   C     0.52366   0.16772   0.16806   0.00000  Uiso   1.00
C127   C     0.95990   0.21735   0.19346   0.00000  Uiso   1.00
C128   C     0.54071   0.11978   0.14349   0.00000  Uiso   1.00
C129   C     0.96428   0.07528   0.12422   0.00000  Uiso   1.00
C130   C     0.53684   0.26183   0.21429   0.00000  Uiso   1.00
C131   C     0.51101   0.07274   0.12149   0.00000  Uiso   1.00
C132   C     0.98985   0.26416   0.21734   0.00000  Uiso   1.00
H133   H     0.89728   0.25086   0.21340   0.00000  Uiso   1.00
H134   H     0.60264   0.08548   0.12404   0.00000  Uiso   1.00
H135   H     0.87765   0.09255   0.11619   0.00000  Uiso   1.00
H136   H     0.62412   0.24492   0.21319   0.00000  Uiso   1.00
C137   C     0.73883   0.01060   0.14493   0.00000  Uiso   1.00
C138   C     0.75891   0.32247   0.18807   0.00000  Uiso   1.00
N139   N     0.73745   0.15214   0.01284   0.00000  Uiso   1.00
N140   N     0.76256   0.18119   0.32049   0.00000  Uiso   1.00
O141   O     0.93500   0.03023   0.10998   0.00000  Uiso   1.00
H142   H     0.91366   0.03259   0.14127   0.00000  Uiso   1.00
O143   O     0.56671   0.30648   0.23325   0.00000  Uiso   1.00
H144   H     0.58754   0.30750   0.20180   0.00000  Uiso   1.00
C145   C     0.53095   0.02117   0.09857   0.00000  Uiso   1.00
C146   C     0.99874   0.30376   0.07455   0.00000  Uiso   1.00
C147   C     0.52346   0.25732   0.04881   0.00000  Uiso   1.00
H148   H     0.53940   0.26303   0.00829   0.00000  Uiso   1.00
H149   H     0.54940   0.25190   0.08314   0.00000  Uiso   1.00
H150   H     0.99908   0.22142   0.03520   0.00000  Uiso   1.00
H151   H     0.98036   0.29426   0.11148   0.00000  Uiso   1.00
H152   H     0.97439   0.30825   0.03809   0.00000  Uiso   1.00
H153   H     0.55165   0.02608   0.06190   0.00000  Uiso   1.00
H154   H     0.55406   0.01526   0.13563   0.00000  Uiso   1.00
C155   C     0.96994   0.31548   0.24200   0.00000  Uiso   1.00
C156   C     0.50275   0.03240   0.26651   0.00000  Uiso   1.00
C157   C     0.97896   0.07950   0.29182   0.00000  Uiso   1.00
H158   H     0.95695   0.08783   0.25522   0.00000  Uiso   1.00
H159   H     0.95923   0.07261   0.32888   0.00000  Uiso   1.00
H160   H     0.50432   0.11401   0.31019   0.00000  Uiso   1.00
H161   H     0.52642   0.02737   0.30334   0.00000  Uiso   1.00
H162   H     0.52171   0.04168   0.22989   0.00000  Uiso   1.00
H163   H     0.94685   0.32228   0.20545   0.00000  Uiso   1.00
H164   H     0.94906   0.31006   0.27854   0.00000  Uiso   1.00
C165   C     0.70355   0.31155   0.09427   0.00000  Uiso   1.00
C166   C     0.67401   0.00915   0.06141   0.00000  Uiso   1.00
C167   C     0.63422   0.30831   0.02229   0.00000  Uiso   1.00
H168   H     0.64605   0.28389   0.31509   0.00000  Uiso   1.00
H169   H     0.61644   0.28339   0.04785   0.00000  Uiso   1.00
H170   H     0.61073   0.00002   0.00706   0.00000  Uiso   1.00
H171   H     0.66111   0.04028   0.09481   0.00000  Uiso   1.00
H172   H     0.69416   0.02612   0.03052   0.00000  Uiso   1.00
H173   H     0.72077   0.28629   0.05939   0.00000  Uiso   1.00
H174   H     0.68043   0.28682   0.11481   0.00000  Uiso   1.00
C175   C     0.79142   0.01955   0.24224   0.00000  Uiso   1.00
C176   C     0.83564   0.04320   0.22444   0.00000  Uiso   1.00
C177   C     0.86316   0.07915   0.27971   0.00000  Uiso   1.00
H178   H     0.84113   0.10108   0.31050   0.00000  Uiso   1.00
H179   H     0.88208   0.05587   0.30485   0.00000  Uiso   1.00
H180   H     0.88675   0.10780   0.26565   0.00000  Uiso   1.00
H181   H     0.85551   0.01144   0.20438   0.00000  Uiso   1.00
H182   H     0.82958   0.06554   0.19022   0.00000  Uiso   1.00
H183   H     0.77415   0.04831   0.27312   0.00000  Uiso   1.00
H184   H     0.80171   0.32749   0.27091   0.00000  Uiso   1.00
C185   C     0.69176   0.13245   0.31973   0.00000  Uiso   1.00
C186   C     0.65876   0.17482   0.33047   0.00000  Uiso   1.00
C187   C     0.60972   0.15022   0.31731   0.00000  Uiso   1.00
H188   H     0.60381   0.12409   0.27131   0.00000  Uiso   1.00
H189   H     0.60133   0.12719   0.01716   0.00000  Uiso   1.00
H190   H     0.58701   0.18112   0.32057   0.00000  Uiso   1.00
H191   H     0.66348   0.20041   0.04276   0.00000  Uiso   1.00
H192   H     0.66455   0.20416   0.30469   0.00000  Uiso   1.00
H193   H     0.69084   0.11020   0.27245   0.00000  Uiso   1.00
H194   H     0.67957   0.10243   0.00957   0.00000  Uiso   1.00
C195   C     0.80459   0.20897   0.01984   0.00000  Uiso   1.00
C196   C     0.81755   0.25989   0.00253   0.00000  Uiso   1.00
C197   C     0.85769   0.29176   0.04366   0.00000  Uiso   1.00
H198   H     0.84940   0.30167   0.09120   0.00000  Uiso   1.00
H199   H     0.88743   0.26968   0.04033   0.00000  Uiso   1.00
H200   H     0.86607   0.32844   0.02971   0.00000  Uiso   1.00
H201   H     0.82733   0.25270   0.28938   0.00000  Uiso   1.00
H202   H     0.78856   0.28307   0.00732   0.00000  Uiso   1.00
H203   H     0.80115   0.22227   0.06730   0.00000  Uiso   1.00
H204   H     0.83219   0.18413   0.01253   0.00000  Uiso   1.00
O205   O     0.25326   0.42871   0.20659   0.00000  Uiso   1.00
O206   O     0.24675   0.57129   0.12674   0.00000  Uiso   1.00
O207   O     0.24480   0.41892   0.10279   0.00000  Uiso   1.00
O208   O     0.25520   0.58108   0.23055   0.00000  Uiso   1.00
C209   C     0.24662   0.40014   0.15133   0.00000  Uiso   1.00
C210   C     0.25204   0.59976   0.18192   0.00000  Uiso   1.00
O211   O     0.18936   0.50488   0.21857   0.00000  Uiso   1.00
O212   O     0.31065   0.49512   0.11476   0.00000  Uiso   1.00
O213   O     0.18090   0.49510   0.11477   0.00000  Uiso   1.00
O214   O     0.31910   0.50490   0.21857   0.00000  Uiso   1.00
C215   C     0.16471   0.49858   0.16696   0.00000  Uiso   1.00
C216   C     0.33544   0.50309   0.16659   0.00000  Uiso   1.00
Cu217  Cu    0.25501   0.50579   0.22813   0.00000  Uiso   1.00
Cu218  Cu    0.24500   0.49421   0.10521   0.00000  Uiso   1.00
C219   C     0.41264   0.54993   0.19340   0.00000  Uiso   1.00
C220   C     0.08763   0.45348   0.14275   0.00000  Uiso   1.00
C221   C     0.38394   0.50471   0.16565   0.00000  Uiso   1.00
C222   C     0.11654   0.49867   0.16795   0.00000  Uiso   1.00
C223   C     0.40117   0.45950   0.13904   0.00000  Uiso   1.00
C224   C     0.09991   0.54461   0.19330   0.00000  Uiso   1.00
C225   C     0.44758   0.45696   0.14364   0.00000  Uiso   1.00
C226   C     0.05343   0.54714   0.19193   0.00000  Uiso   1.00
C227   C     0.47715   0.50302   0.16834   0.00000  Uiso   1.00
C228   C     0.02366   0.50105   0.16806   0.00000  Uiso   1.00
C229   C     0.45990   0.55068   0.19346   0.00000  Uiso   1.00
C230   C     0.04071   0.45312   0.14349   0.00000  Uiso   1.00
C231   C     0.46428   0.40862   0.12422   0.00000  Uiso   1.00
C232   C     0.03684   0.59516   0.21429   0.00000  Uiso   1.00
C233   C     0.01101   0.40607   0.12149   0.00000  Uiso   1.00
C234   C     0.48985   0.59750   0.21734   0.00000  Uiso   1.00
H235   H     0.39728   0.58420   0.21340   0.00000  Uiso   1.00
H236   H     0.10264   0.41882   0.12404   0.00000  Uiso   1.00
H237   H     0.37765   0.42588   0.11619   0.00000  Uiso   1.00
H238   H     0.12412   0.57825   0.21319   0.00000  Uiso   1.00
C239   C     0.23883   0.34394   0.14493   0.00000  Uiso   1.00
C240   C     0.25891   0.65581   0.18807   0.00000  Uiso   1.00
N241   N     0.23745   0.48547   0.01284   0.00000  Uiso   1.00
N242   N     0.26256   0.51453   0.32049   0.00000  Uiso   1.00
O243   O     0.43500   0.36356   0.10998   0.00000  Uiso   1.00
H244   H     0.41366   0.36593   0.14127   0.00000  Uiso   1.00
O245   O     0.06671   0.63981   0.23325   0.00000  Uiso   1.00
H246   H     0.08754   0.64083   0.20180   0.00000  Uiso   1.00
C247   C     0.03095   0.35451   0.09857   0.00000  Uiso   1.00
C248   C     0.49874   0.63709   0.07455   0.00000  Uiso   1.00
C249   C     0.02346   0.59065   0.04881   0.00000  Uiso   1.00
H250   H     0.03940   0.59637   0.00829   0.00000  Uiso   1.00
H251   H     0.04940   0.58524   0.08314   0.00000  Uiso   1.00
H252   H     0.49908   0.55476   0.03520   0.00000  Uiso   1.00
H253   H     0.48036   0.62760   0.11148   0.00000  Uiso   1.00
H254   H     0.47439   0.64158   0.03809   0.00000  Uiso   1.00
H255   H     0.05165   0.35941   0.06190   0.00000  Uiso   1.00
H256   H     0.05406   0.34859   0.13563   0.00000  Uiso   1.00
C257   C     0.46994   0.64882   0.24200   0.00000  Uiso   1.00
C258   C     0.00275   0.36573   0.26651   0.00000  Uiso   1.00
C259   C     0.47896   0.41283   0.29182   0.00000  Uiso   1.00
H260   H     0.45695   0.42116   0.25522   0.00000  Uiso   1.00
H261   H     0.45923   0.40595   0.32888   0.00000  Uiso   1.00
H262   H     0.00432   0.44735   0.31019   0.00000  Uiso   1.00
H263   H     0.02642   0.36070   0.30334   0.00000  Uiso   1.00
H264   H     0.02171   0.37501   0.22989   0.00000  Uiso   1.00
H265   H     0.44685   0.65562   0.20545   0.00000  Uiso   1.00
H266   H     0.44906   0.64339   0.27854   0.00000  Uiso   1.00
C267   C     0.20355   0.64489   0.09427   0.00000  Uiso   1.00
C268   C     0.17401   0.34249   0.06141   0.00000  Uiso   1.00
C269   C     0.13422   0.64164   0.02229   0.00000  Uiso   1.00
H270   H     0.14605   0.61722   0.31509   0.00000  Uiso   1.00
H271   H     0.11644   0.61672   0.04785   0.00000  Uiso   1.00
H272   H     0.11073   0.33335   0.00706   0.00000  Uiso   1.00
H273   H     0.16111   0.37361   0.09481   0.00000  Uiso   1.00
H274   H     0.19416   0.35946   0.03052   0.00000  Uiso   1.00
H275   H     0.22077   0.61963   0.05939   0.00000  Uiso   1.00
H276   H     0.18043   0.62015   0.11481   0.00000  Uiso   1.00
C277   C     0.29142   0.35289   0.24224   0.00000  Uiso   1.00
C278   C     0.33564   0.37653   0.22444   0.00000  Uiso   1.00
C279   C     0.36316   0.41248   0.27971   0.00000  Uiso   1.00
H280   H     0.34113   0.43442   0.31050   0.00000  Uiso   1.00
H281   H     0.38208   0.38920   0.30485   0.00000  Uiso   1.00
H282   H     0.38675   0.44113   0.26565   0.00000  Uiso   1.00
H283   H     0.35551   0.34478   0.20438   0.00000  Uiso   1.00
H284   H     0.32958   0.39887   0.19022   0.00000  Uiso   1.00
H285   H     0.27415   0.38164   0.27312   0.00000  Uiso   1.00
H286   H     0.30171   0.66082   0.27091   0.00000  Uiso   1.00
C287   C     0.19176   0.46578   0.31973   0.00000  Uiso   1.00
C288   C     0.15876   0.50816   0.33047   0.00000  Uiso   1.00
C289   C     0.10972   0.48355   0.31731   0.00000  Uiso   1.00
H290   H     0.10381   0.45742   0.27131   0.00000  Uiso   1.00
H291   H     0.10133   0.46052   0.01716   0.00000  Uiso   1.00
H292   H     0.08701   0.51446   0.32057   0.00000  Uiso   1.00
H293   H     0.16348   0.53375   0.04276   0.00000  Uiso   1.00
H294   H     0.16455   0.53749   0.30469   0.00000  Uiso   1.00
H295   H     0.19084   0.44354   0.27245   0.00000  Uiso   1.00
H296   H     0.17957   0.43576   0.00957   0.00000  Uiso   1.00
C297   C     0.30459   0.54230   0.01984   0.00000  Uiso   1.00
C298   C     0.31755   0.59322   0.00253   0.00000  Uiso   1.00
C299   C     0.35769   0.62509   0.04366   0.00000  Uiso   1.00
H300   H     0.34940   0.63501   0.09120   0.00000  Uiso   1.00
H301   H     0.38743   0.60301   0.04033   0.00000  Uiso   1.00
H302   H     0.36607   0.66177   0.02971   0.00000  Uiso   1.00
H303   H     0.32733   0.58603   0.28938   0.00000  Uiso   1.00
H304   H     0.28856   0.61640   0.00732   0.00000  Uiso   1.00
H305   H     0.30115   0.55560   0.06730   0.00000  Uiso   1.00
H306   H     0.33219   0.51746   0.01253   0.00000  Uiso   1.00
O307   O     0.75326   0.42871   0.20659   0.00000  Uiso   1.00
O308   O     0.74675   0.57129   0.12674   0.00000  Uiso   1.00
O309   O     0.74480   0.41892   0.10279   0.00000  Uiso   1.00
O310   O     0.75520   0.58108   0.23055   0.00000  Uiso   1.00
C311   C     0.74662   0.40014   0.15133   0.00000  Uiso   1.00
C312   C     0.75204   0.59976   0.18192   0.00000  Uiso   1.00
O313   O     0.68936   0.50488   0.21857   0.00000  Uiso   1.00
O314   O     0.81065   0.49512   0.11476   0.00000  Uiso   1.00
O315   O     0.68090   0.49510   0.11477   0.00000  Uiso   1.00
O316   O     0.81910   0.50490   0.21857   0.00000  Uiso   1.00
C317   C     0.66471   0.49858   0.16696   0.00000  Uiso   1.00
C318   C     0.83544   0.50309   0.16659   0.00000  Uiso   1.00
Cu319  Cu    0.75501   0.50579   0.22813   0.00000  Uiso   1.00
Cu320  Cu    0.74500   0.49421   0.10521   0.00000  Uiso   1.00
C321   C     0.91264   0.54993   0.19340   0.00000  Uiso   1.00
C322   C     0.58763   0.45348   0.14275   0.00000  Uiso   1.00
C323   C     0.88394   0.50471   0.16565   0.00000  Uiso   1.00
C324   C     0.61654   0.49867   0.16795   0.00000  Uiso   1.00
C325   C     0.90117   0.45950   0.13904   0.00000  Uiso   1.00
C326   C     0.59991   0.54461   0.19330   0.00000  Uiso   1.00
C327   C     0.94758   0.45696   0.14364   0.00000  Uiso   1.00
C328   C     0.55343   0.54714   0.19193   0.00000  Uiso   1.00
C329   C     0.97715   0.50302   0.16834   0.00000  Uiso   1.00
C330   C     0.52366   0.50105   0.16806   0.00000  Uiso   1.00
C331   C     0.95990   0.55068   0.19346   0.00000  Uiso   1.00
C332   C     0.54071   0.45312   0.14349   0.00000  Uiso   1.00
C333   C     0.96428   0.40862   0.12422   0.00000  Uiso   1.00
C334   C     0.53684   0.59516   0.21429   0.00000  Uiso   1.00
C335   C     0.51101   0.40607   0.12149   0.00000  Uiso   1.00
C336   C     0.98985   0.59750   0.21734   0.00000  Uiso   1.00
H337   H     0.89728   0.58420   0.21340   0.00000  Uiso   1.00
H338   H     0.60264   0.41882   0.12404   0.00000  Uiso   1.00
H339   H     0.87765   0.42588   0.11619   0.00000  Uiso   1.00
H340   H     0.62412   0.57825   0.21319   0.00000  Uiso   1.00
C341   C     0.73883   0.34394   0.14493   0.00000  Uiso   1.00
C342   C     0.75891   0.65581   0.18807   0.00000  Uiso   1.00
N343   N     0.73745   0.48547   0.01284   0.00000  Uiso   1.00
N344   N     0.76256   0.51453   0.32049   0.00000  Uiso   1.00
O345   O     0.93500   0.36356   0.10998   0.00000  Uiso   1.00
H346   H     0.91366   0.36593   0.14127   0.00000  Uiso   1.00
O347   O     0.56671   0.63981   0.23325   0.00000  Uiso   1.00
H348   H     0.58754   0.64083   0.20180   0.00000  Uiso   1.00
C349   C     0.53095   0.35451   0.09857   0.00000  Uiso   1.00
C350   C     0.99874   0.63709   0.07455   0.00000  Uiso   1.00
C351   C     0.52346   0.59065   0.04881   0.00000  Uiso   1.00
H352   H     0.53940   0.59637   0.00829   0.00000  Uiso   1.00
H353   H     0.54940   0.58524   0.08314   0.00000  Uiso   1.00
H354   H     0.99908   0.55476   0.03520   0.00000  Uiso   1.00
H355   H     0.98036   0.62760   0.11148   0.00000  Uiso   1.00
H356   H     0.97439   0.64158   0.03809   0.00000  Uiso   1.00
H357   H     0.55165   0.35941   0.06190   0.00000  Uiso   1.00
H358   H     0.55406   0.34859   0.13563   0.00000  Uiso   1.00
C359   C     0.96994   0.64882   0.24200   0.00000  Uiso   1.00
C360   C     0.50275   0.36573   0.26651   0.00000  Uiso   1.00
C361   C     0.97896   0.41283   0.29182   0.00000  Uiso   1.00
H362   H     0.95695   0.42116   0.25522   0.00000  Uiso   1.00
H363   H     0.95923   0.40595   0.32888   0.00000  Uiso   1.00
H364   H     0.50432   0.44735   0.31019   0.00000  Uiso   1.00
H365   H     0.52642   0.36070   0.30334   0.00000  Uiso   1.00
H366   H     0.52171   0.37501   0.22989   0.00000  Uiso   1.00
H367   H     0.94685   0.65562   0.20545   0.00000  Uiso   1.00
H368   H     0.94906   0.64339   0.27854   0.00000  Uiso   1.00
C369   C     0.70355   0.64489   0.09427   0.00000  Uiso   1.00
C370   C     0.67401   0.34249   0.06141   0.00000  Uiso   1.00
C371   C     0.63422   0.64164   0.02229   0.00000  Uiso   1.00
H372   H     0.64605   0.61722   0.31509   0.00000  Uiso   1.00
H373   H     0.61644   0.61672   0.04785   0.00000  Uiso   1.00
H374   H     0.61073   0.33335   0.00706   0.00000  Uiso   1.00
H375   H     0.66111   0.37361   0.09481   0.00000  Uiso   1.00
H376   H     0.69416   0.35946   0.03052   0.00000  Uiso   1.00
H377   H     0.72077   0.61963   0.05939   0.00000  Uiso   1.00
H378   H     0.68043   0.62015   0.11481   0.00000  Uiso   1.00
C379   C     0.79142   0.35289   0.24224   0.00000  Uiso   1.00
C380   C     0.83564   0.37653   0.22444   0.00000  Uiso   1.00
C381   C     0.86316   0.41248   0.27971   0.00000  Uiso   1.00
H382   H     0.84113   0.43442   0.31050   0.00000  Uiso   1.00
H383   H     0.88208   0.38920   0.30485   0.00000  Uiso   1.00
H384   H     0.88675   0.44113   0.26565   0.00000  Uiso   1.00
H385   H     0.85551   0.34478   0.20438   0.00000  Uiso   1.00
H386   H     0.82958   0.39887   0.19022   0.00000  Uiso   1.00
H387   H     0.77415   0.38164   0.27312   0.00000  Uiso   1.00
H388   H     0.80171   0.66082   0.27091   0.00000  Uiso   1.00
C389   C     0.69176   0.46578   0.31973   0.00000  Uiso   1.00
C390   C     0.65876   0.50816   0.33047   0.00000  Uiso   1.00
C391   C     0.60972   0.48355   0.31731   0.00000  Uiso   1.00
H392   H     0.60381   0.45742   0.27131   0.00000  Uiso   1.00
H393   H     0.60133   0.46052   0.01716   0.00000  Uiso   1.00
H394   H     0.58701   0.51446   0.32057   0.00000  Uiso   1.00
H395   H     0.66348   0.53375   0.04276   0.00000  Uiso   1.00
H396   H     0.66455   0.53749   0.30469   0.00000  Uiso   1.00
H397   H     0.69084   0.44354   0.27245   0.00000  Uiso   1.00
H398   H     0.67957   0.43576   0.00957   0.00000  Uiso   1.00
C399   C     0.80459   0.54230   0.01984   0.00000  Uiso   1.00
C400   C     0.81755   0.59322   0.00253   0.00000  Uiso   1.00
C401   C     0.85769   0.62509   0.04366   0.00000  Uiso   1.00
H402   H     0.84940   0.63501   0.09120   0.00000  Uiso   1.00
H403   H     0.88743   0.60301   0.04033   0.00000  Uiso   1.00
H404   H     0.86607   0.66177   0.02971   0.00000  Uiso   1.00
H405   H     0.82733   0.58603   0.28938   0.00000  Uiso   1.00
H406   H     0.78856   0.61640   0.00732   0.00000  Uiso   1.00
H407   H     0.80115   0.55560   0.06730   0.00000  Uiso   1.00
H408   H     0.83219   0.51746   0.01253   0.00000  Uiso   1.00
O409   O     0.25326   0.76204   0.20659   0.00000  Uiso   1.00
O410   O     0.24675   0.90462   0.12674   0.00000  Uiso   1.00
O411   O     0.24480   0.75226   0.10279   0.00000  Uiso   1.00
O412   O     0.25520   0.91441   0.23055   0.00000  Uiso   1.00
C413   C     0.24662   0.73348   0.15133   0.00000  Uiso   1.00
C414   C     0.25204   0.93309   0.18192   0.00000  Uiso   1.00
O415   O     0.18936   0.83821   0.21857   0.00000  Uiso   1.00
O416   O     0.31065   0.82845   0.11476   0.00000  Uiso   1.00
O417   O     0.18090   0.82843   0.11477   0.00000  Uiso   1.00
O418   O     0.31910   0.83824   0.21857   0.00000  Uiso   1.00
C419   C     0.16471   0.83191   0.16696   0.00000  Uiso   1.00
C420   C     0.33544   0.83642   0.16659   0.00000  Uiso   1.00
Cu421  Cu    0.25501   0.83913   0.22813   0.00000  Uiso   1.00
Cu422  Cu    0.24500   0.82754   0.10521   0.00000  Uiso   1.00
C423   C     0.41264   0.88326   0.19340   0.00000  Uiso   1.00
C424   C     0.08763   0.78681   0.14275   0.00000  Uiso   1.00
C425   C     0.38394   0.83805   0.16565   0.00000  Uiso   1.00
C426   C     0.11654   0.83201   0.16795   0.00000  Uiso   1.00
C427   C     0.40117   0.79283   0.13904   0.00000  Uiso   1.00
C428   C     0.09991   0.87795   0.19330   0.00000  Uiso   1.00
C429   C     0.44758   0.79029   0.14364   0.00000  Uiso   1.00
C430   C     0.05343   0.88048   0.19193   0.00000  Uiso   1.00
C431   C     0.47715   0.83635   0.16834   0.00000  Uiso   1.00
C432   C     0.02366   0.83438   0.16806   0.00000  Uiso   1.00
C433   C     0.45990   0.88402   0.19346   0.00000  Uiso   1.00
C434   C     0.04071   0.78645   0.14349   0.00000  Uiso   1.00
C435   C     0.46428   0.74195   0.12422   0.00000  Uiso   1.00
C436   C     0.03684   0.92849   0.21429   0.00000  Uiso   1.00
C437   C     0.01101   0.73941   0.12149   0.00000  Uiso   1.00
C438   C     0.48985   0.93083   0.21734   0.00000  Uiso   1.00
H439   H     0.39728   0.91753   0.21340   0.00000  Uiso   1.00
H440   H     0.10264   0.75215   0.12404   0.00000  Uiso   1.00
H441   H     0.37765   0.75922   0.11619   0.00000  Uiso   1.00
H442   H     0.12412   0.91159   0.21319   0.00000  Uiso   1.00
C443   C     0.23883   0.67727   0.14493   0.00000  Uiso   1.00
C444   C     0.25891   0.98914   0.18807   0.00000  Uiso   1.00
N445   N     0.23745   0.81881   0.01284   0.00000  Uiso   1.00
N446   N     0.26256   0.84786   0.32049   0.00000  Uiso   1.00
O447   O     0.43500   0.69689   0.10998   0.00000  Uiso   1.00
H448   H     0.41366   0.69926   0.14127   0.00000  Uiso   1.00
O449   O     0.06671   0.97315   0.23325   0.00000  Uiso   1.00
H450   H     0.08754   0.97416   0.20180   0.00000  Uiso   1.00
C451   C     0.03095   0.68784   0.09857   0.00000  Uiso   1.00
C452   C     0.49874   0.97043   0.07455   0.00000  Uiso   1.00
C453   C     0.02346   0.92398   0.04881   0.00000  Uiso   1.00
H454   H     0.03940   0.92970   0.00829   0.00000  Uiso   1.00
H455   H     0.04940   0.91857   0.08314   0.00000  Uiso   1.00
H456   H     0.49908   0.88809   0.03520   0.00000  Uiso   1.00
H457   H     0.48036   0.96093   0.11148   0.00000  Uiso   1.00
H458   H     0.47439   0.97492   0.03809   0.00000  Uiso   1.00
H459   H     0.05165   0.69275   0.06190   0.00000  Uiso   1.00
H460   H     0.05406   0.68192   0.13563   0.00000  Uiso   1.00
C461   C     0.46994   0.98215   0.24200   0.00000  Uiso   1.00
C462   C     0.00275   0.69906   0.26651   0.00000  Uiso   1.00
C463   C     0.47896   0.74616   0.29182   0.00000  Uiso   1.00
H464   H     0.45695   0.75449   0.25522   0.00000  Uiso   1.00
H465   H     0.45923   0.73928   0.32888   0.00000  Uiso   1.00
H466   H     0.00432   0.78068   0.31019   0.00000  Uiso   1.00
H467   H     0.02642   0.69404   0.30334   0.00000  Uiso   1.00
H468   H     0.02171   0.70835   0.22989   0.00000  Uiso   1.00
H469   H     0.44685   0.98895   0.20545   0.00000  Uiso   1.00
H470   H     0.44906   0.97673   0.27854   0.00000  Uiso   1.00
C471   C     0.20355   0.97822   0.09427   0.00000  Uiso   1.00
C472   C     0.17401   0.67582   0.06141   0.00000  Uiso   1.00
C473   C     0.13422   0.97497   0.02229   0.00000  Uiso   1.00
H474   H     0.14605   0.95055   0.31509   0.00000  Uiso   1.00
H475   H     0.11644   0.95006   0.04785   0.00000  Uiso   1.00
H476   H     0.11073   0.66669   0.00706   0.00000  Uiso   1.00
H477   H     0.16111   0.70694   0.09481   0.00000  Uiso   1.00
H478   H     0.19416   0.69279   0.03052   0.00000  Uiso   1.00
H479   H     0.22077   0.95296   0.05939   0.00000  Uiso   1.00
H480   H     0.18043   0.95349   0.11481   0.00000  Uiso   1.00
C481   C     0.29142   0.68622   0.24224   0.00000  Uiso   1.00
C482   C     0.33564   0.70987   0.22444   0.00000  Uiso   1.00
C483   C     0.36316   0.74581   0.27971   0.00000  Uiso   1.00
H484   H     0.34113   0.76775   0.31050   0.00000  Uiso   1.00
H485   H     0.38208   0.72254   0.30485   0.00000  Uiso   1.00
H486   H     0.38675   0.77446   0.26565   0.00000  Uiso   1.00
H487   H     0.35551   0.67811   0.20438   0.00000  Uiso   1.00
H488   H     0.32958   0.73221   0.19022   0.00000  Uiso   1.00
H489   H     0.27415   0.71498   0.27312   0.00000  Uiso   1.00
H490   H     0.30171   0.99415   0.27091   0.00000  Uiso   1.00
C491   C     0.19176   0.79911   0.31973   0.00000  Uiso   1.00
C492   C     0.15876   0.84149   0.33047   0.00000  Uiso   1.00
C493   C     0.10972   0.81689   0.31731   0.00000  Uiso   1.00
H494   H     0.10381   0.79076   0.27131   0.00000  Uiso   1.00
H495   H     0.10133   0.79386   0.01716   0.00000  Uiso   1.00
H496   H     0.08701   0.84779   0.32057   0.00000  Uiso   1.00
H497   H     0.16348   0.86708   0.04276   0.00000  Uiso   1.00
H498   H     0.16455   0.87083   0.30469   0.00000  Uiso   1.00
H499   H     0.19084   0.77687   0.27245   0.00000  Uiso   1.00
H500   H     0.17957   0.76910   0.00957   0.00000  Uiso   1.00
C501   C     0.30459   0.87564   0.01984   0.00000  Uiso   1.00
C502   C     0.31755   0.92656   0.00253   0.00000  Uiso   1.00
C503   C     0.35769   0.95842   0.04366   0.00000  Uiso   1.00
H504   H     0.34940   0.96834   0.09120   0.00000  Uiso   1.00
H505   H     0.38743   0.93635   0.04033   0.00000  Uiso   1.00
H506   H     0.36607   0.99511   0.02971   0.00000  Uiso   1.00
H507   H     0.32733   0.91937   0.28938   0.00000  Uiso   1.00
H508   H     0.28856   0.94973   0.00732   0.00000  Uiso   1.00
H509   H     0.30115   0.88894   0.06730   0.00000  Uiso   1.00
H510   H     0.33219   0.85079   0.01253   0.00000  Uiso   1.00
O511   O     0.75326   0.76204   0.20659   0.00000  Uiso   1.00
O512   O     0.74675   0.90462   0.12674   0.00000  Uiso   1.00
O513   O     0.74480   0.75226   0.10279   0.00000  Uiso   1.00
O514   O     0.75520   0.91441   0.23055   0.00000  Uiso   1.00
C515   C     0.74662   0.73348   0.15133   0.00000  Uiso   1.00
C516   C     0.75204   0.93309   0.18192   0.00000  Uiso   1.00
O517   O     0.68936   0.83821   0.21857   0.00000  Uiso   1.00
O518   O     0.81065   0.82845   0.11476   0.00000  Uiso   1.00
O519   O     0.68090   0.82843   0.11477   0.00000  Uiso   1.00
O520   O     0.81910   0.83824   0.21857   0.00000  Uiso   1.00
C521   C     0.66471   0.83191   0.16696   0.00000  Uiso   1.00
C522   C     0.83544   0.83642   0.16659   0.00000  Uiso   1.00
Cu523  Cu    0.75501   0.83913   0.22813   0.00000  Uiso   1.00
Cu524  Cu    0.74500   0.82754   0.10521   0.00000  Uiso   1.00
C525   C     0.91264   0.88326   0.19340   0.00000  Uiso   1.00
C526   C     0.58763   0.78681   0.14275   0.00000  Uiso   1.00
C527   C     0.88394   0.83805   0.16565   0.00000  Uiso   1.00
C528   C     0.61654   0.83201   0.16795   0.00000  Uiso   1.00
C529   C     0.90117   0.79283   0.13904   0.00000  Uiso   1.00
C530   C     0.59991   0.87795   0.19330   0.00000  Uiso   1.00
C531   C     0.94758   0.79029   0.14364   0.00000  Uiso   1.00
C532   C     0.55343   0.88048   0.19193   0.00000  Uiso   1.00
C533   C     0.97715   0.83635   0.16834   0.00000  Uiso   1.00
C534   C     0.52366   0.83438   0.16806   0.00000  Uiso   1.00
C535   C     0.95990   0.88402   0.19346   0.00000  Uiso   1.00
C536   C     0.54071   0.78645   0.14349   0.00000  Uiso   1.00
C537   C     0.96428   0.74195   0.12422   0.00000  Uiso   1.00
C538   C     0.53684   0.92849   0.21429   0.00000  Uiso   1.00
C539   C     0.51101   0.73941   0.12149   0.00000  Uiso   1.00
C540   C     0.98985   0.93083   0.21734   0.00000  Uiso   1.00
H541   H     0.89728   0.91753   0.21340   0.00000  Uiso   1.00
H542   H     0.60264   0.75215   0.12404   0.00000  Uiso   1.00
H543   H     0.87765   0.75922   0.11619   0.00000  Uiso   1.00
H544   H     0.62412   0.91159   0.21319   0.00000  Uiso   1.00
C545   C     0.73883   0.67727   0.14493   0.00000  Uiso   1.00
C546   C     0.75891   0.98914   0.18807   0.00000  Uiso   1.00
N547   N     0.73745   0.81881   0.01284   0.00000  Uiso   1.00
N548   N     0.76256   0.84786   0.32049   0.00000  Uiso   1.00
O549   O     0.93500   0.69689   0.10998   0.00000  Uiso   1.00
H550   H     0.91366   0.69926   0.14127   0.00000  Uiso   1.00
O551   O     0.56671   0.97315   0.23325   0.00000  Uiso   1.00
H552   H     0.58754   0.97416   0.20180   0.00000  Uiso   1.00
C553   C     0.53095   0.68784   0.09857   0.00000  Uiso   1.00
C554   C     0.99874   0.97043   0.07455   0.00000  Uiso   1.00
C555   C     0.52346   0.92398   0.04881   0.00000  Uiso   1.00
H556   H     0.53940   0.92970   0.00829   0.00000  Uiso   1.00
H557   H     0.54940   0.91857   0.08314   0.00000  Uiso   1.00
H558   H     0.99908   0.88809   0.03520   0.00000  Uiso   1.00
H559   H     0.98036   0.96093   0.11148   0.00000  Uiso   1.00
H560   H     0.97439   0.97492   0.03809   0.00000  Uiso   1.00
H561   H     0.55165   0.69275   0.06190   0.00000  Uiso   1.00
H562   H     0.55406   0.68192   0.13563   0.00000  Uiso   1.00
C563   C     0.96994   0.98215   0.24200   0.00000  Uiso   1.00
C564   C     0.50275   0.69906   0.26651   0.00000  Uiso   1.00
C565   C     0.97896   0.74616   0.29182   0.00000  Uiso   1.00
H566   H     0.95695   0.75449   0.25522   0.00000  Uiso   1.00
H567   H     0.95923   0.73928   0.32888   0.00000  Uiso   1.00
H568   H     0.50432   0.78068   0.31019   0.00000  Uiso   1.00
H569   H     0.52642   0.69404   0.30334   0.00000  Uiso   1.00
H570   H     0.52171   0.70835   0.22989   0.00000  Uiso   1.00
H571   H     0.94685   0.98895   0.20545   0.00000  Uiso   1.00
H572   H     0.94906   0.97673   0.27854   0.00000  Uiso   1.00
C573   C     0.70355   0.97822   0.09427   0.00000  Uiso   1.00
C574   C     0.67401   0.67582   0.06141   0.00000  Uiso   1.00
C575   C     0.63422   0.97497   0.02229   0.00000  Uiso   1.00
H576   H     0.64605   0.95055   0.31509   0.00000  Uiso   1.00
H577   H     0.61644   0.95006   0.04785   0.00000  Uiso   1.00
H578   H     0.61073   0.66669   0.00706   0.00000  Uiso   1.00
H579   H     0.66111   0.70694   0.09481   0.00000  Uiso   1.00
H580   H     0.69416   0.69279   0.03052   0.00000  Uiso   1.00
H581   H     0.72077   0.95296   0.05939   0.00000  Uiso   1.00
H582   H     0.68043   0.95349   0.11481   0.00000  Uiso   1.00
C583   C     0.79142   0.68622   0.24224   0.00000  Uiso   1.00
C584   C     0.83564   0.70987   0.22444   0.00000  Uiso   1.00
C585   C     0.86316   0.74581   0.27971   0.00000  Uiso   1.00
H586   H     0.84113   0.76775   0.31050   0.00000  Uiso   1.00
H587   H     0.88208   0.72254   0.30485   0.00000  Uiso   1.00
H588   H     0.88675   0.77446   0.26565   0.00000  Uiso   1.00
H589   H     0.85551   0.67811   0.20438   0.00000  Uiso   1.00
H590   H     0.82958   0.73221   0.19022   0.00000  Uiso   1.00
H591   H     0.77415   0.71498   0.27312   0.00000  Uiso   1.00
H592   H     0.80171   0.99415   0.27091   0.00000  Uiso   1.00
C593   C     0.69176   0.79911   0.31973   0.00000  Uiso   1.00
C594   C     0.65876   0.84149   0.33047   0.00000  Uiso   1.00
C595   C     0.60972   0.81689   0.31731   0.00000  Uiso   1.00
H596   H     0.60381   0.79076   0.27131   0.00000  Uiso   1.00
H597   H     0.60133   0.79386   0.01716   0.00000  Uiso   1.00
H598   H     0.58701   0.84779   0.32057   0.00000  Uiso   1.00
H599   H     0.66348   0.86708   0.04276   0.00000  Uiso   1.00
H600   H     0.66455   0.87083   0.30469   0.00000  Uiso   1.00
H601   H     0.69084   0.77687   0.27245   0.00000  Uiso   1.00
H602   H     0.67957   0.76910   0.00957   0.00000  Uiso   1.00
C603   C     0.80459   0.87564   0.01984   0.00000  Uiso   1.00
C604   C     0.81755   0.92656   0.00253   0.00000  Uiso   1.00
C605   C     0.85769   0.95842   0.04366   0.00000  Uiso   1.00
H606   H     0.84940   0.96834   0.09120   0.00000  Uiso   1.00
H607   H     0.88743   0.93635   0.04033   0.00000  Uiso   1.00
H608   H     0.86607   0.99511   0.02971   0.00000  Uiso   1.00
H609   H     0.82733   0.91937   0.28938   0.00000  Uiso   1.00
H610   H     0.78856   0.94973   0.00732   0.00000  Uiso   1.00
H611   H     0.80115   0.88894   0.06730   0.00000  Uiso   1.00
H612   H     0.83219   0.85079   0.01253   0.00000  Uiso   1.00
O613   O     0.25326   0.09538   0.53992   0.00000  Uiso   1.00
O614   O     0.24675   0.23796   0.46008   0.00000  Uiso   1.00
O615   O     0.24480   0.08559   0.43612   0.00000  Uiso   1.00
O616   O     0.25520   0.24774   0.56388   0.00000  Uiso   1.00
C617   C     0.24662   0.06681   0.48467   0.00000  Uiso   1.00
C618   C     0.25204   0.26643   0.51525   0.00000  Uiso   1.00
O619   O     0.18936   0.17155   0.55191   0.00000  Uiso   1.00
O620   O     0.31065   0.16179   0.44809   0.00000  Uiso   1.00
O621   O     0.18090   0.16176   0.44810   0.00000  Uiso   1.00
O622   O     0.31910   0.17157   0.55190   0.00000  Uiso   1.00
C623   C     0.16471   0.16524   0.50029   0.00000  Uiso   1.00
C624   C     0.33544   0.16976   0.49992   0.00000  Uiso   1.00
Cu625  Cu    0.25501   0.17246   0.56146   0.00000  Uiso   1.00
Cu626  Cu    0.24500   0.16087   0.43854   0.00000  Uiso   1.00
C627   C     0.41264   0.21660   0.52673   0.00000  Uiso   1.00
C628   C     0.08763   0.12014   0.47609   0.00000  Uiso   1.00
C629   C     0.38394   0.17138   0.49898   0.00000  Uiso   1.00
C630   C     0.11654   0.16534   0.50128   0.00000  Uiso   1.00
C631   C     0.40117   0.12617   0.47238   0.00000  Uiso   1.00
C632   C     0.09991   0.21128   0.52663   0.00000  Uiso   1.00
C633   C     0.44758   0.12362   0.47697   0.00000  Uiso   1.00
C634   C     0.05343   0.21381   0.52527   0.00000  Uiso   1.00
C635   C     0.47715   0.16968   0.50167   0.00000  Uiso   1.00
C636   C     0.02366   0.16772   0.50139   0.00000  Uiso   1.00
C637   C     0.45990   0.21735   0.52679   0.00000  Uiso   1.00
C638   C     0.04071   0.11978   0.47683   0.00000  Uiso   1.00
C639   C     0.46428   0.07528   0.45755   0.00000  Uiso   1.00
C640   C     0.03684   0.26183   0.54763   0.00000  Uiso   1.00
C641   C     0.01101   0.07274   0.45482   0.00000  Uiso   1.00
C642   C     0.48985   0.26416   0.55068   0.00000  Uiso   1.00
H643   H     0.39728   0.25086   0.54673   0.00000  Uiso   1.00
H644   H     0.10264   0.08548   0.45737   0.00000  Uiso   1.00
H645   H     0.37765   0.09255   0.44952   0.00000  Uiso   1.00
H646   H     0.12412   0.24492   0.54652   0.00000  Uiso   1.00
C647   C     0.23883   0.01060   0.47827   0.00000  Uiso   1.00
C648   C     0.25891   0.32247   0.52141   0.00000  Uiso   1.00
N649   N     0.23745   0.15214   0.34617   0.00000  Uiso   1.00
N650   N     0.26256   0.18119   0.65383   0.00000  Uiso   1.00
O651   O     0.43500   0.03023   0.44331   0.00000  Uiso   1.00
H652   H     0.41366   0.03259   0.47461   0.00000  Uiso   1.00
O653   O     0.06671   0.30648   0.56659   0.00000  Uiso   1.00
H654   H     0.08754   0.30750   0.53513   0.00000  Uiso   1.00
C655   C     0.03095   0.02117   0.43190   0.00000  Uiso   1.00
C656   C     0.49874   0.30376   0.40788   0.00000  Uiso   1.00
C657   C     0.02346   0.25732   0.38214   0.00000  Uiso   1.00
H658   H     0.03940   0.26303   0.34163   0.00000  Uiso   1.00
H659   H     0.04940   0.25190   0.41648   0.00000  Uiso   1.00
H660   H     0.49908   0.22142   0.36853   0.00000  Uiso   1.00
H661   H     0.48036   0.29426   0.44482   0.00000  Uiso   1.00
H662   H     0.47439   0.30825   0.37142   0.00000  Uiso   1.00
H663   H     0.05165   0.02608   0.39524   0.00000  Uiso   1.00
H664   H     0.05406   0.01526   0.46896   0.00000  Uiso   1.00
C665   C     0.46994   0.31548   0.57533   0.00000  Uiso   1.00
C666   C     0.00275   0.03240   0.59985   0.00000  Uiso   1.00
C667   C     0.47896   0.07950   0.62515   0.00000  Uiso   1.00
H668   H     0.45695   0.08783   0.58856   0.00000  Uiso   1.00
H669   H     0.45923   0.07261   0.66221   0.00000  Uiso   1.00
H670   H     0.00432   0.11401   0.64353   0.00000  Uiso   1.00
H671   H     0.02642   0.02737   0.63667   0.00000  Uiso   1.00
H672   H     0.02171   0.04168   0.56322   0.00000  Uiso   1.00
H673   H     0.44685   0.32228   0.53879   0.00000  Uiso   1.00
H674   H     0.44906   0.31006   0.61187   0.00000  Uiso   1.00
C675   C     0.20355   0.31155   0.42760   0.00000  Uiso   1.00
C676   C     0.17401   0.00915   0.39474   0.00000  Uiso   1.00
C677   C     0.13422   0.30831   0.35563   0.00000  Uiso   1.00
H678   H     0.14605   0.28389   0.64843   0.00000  Uiso   1.00
H679   H     0.11644   0.28339   0.38118   0.00000  Uiso   1.00
H680   H     0.11073   0.00002   0.34039   0.00000  Uiso   1.00
H681   H     0.16111   0.04028   0.42815   0.00000  Uiso   1.00
H682   H     0.19416   0.02612   0.36385   0.00000  Uiso   1.00
H683   H     0.22077   0.28629   0.39272   0.00000  Uiso   1.00
H684   H     0.18043   0.28682   0.44815   0.00000  Uiso   1.00
C685   C     0.29142   0.01955   0.57557   0.00000  Uiso   1.00
C686   C     0.33564   0.04320   0.55777   0.00000  Uiso   1.00
C687   C     0.36316   0.07915   0.61304   0.00000  Uiso   1.00
H688   H     0.34113   0.10108   0.64383   0.00000  Uiso   1.00
H689   H     0.38208   0.05587   0.63818   0.00000  Uiso   1.00
H690   H     0.38675   0.10780   0.59898   0.00000  Uiso   1.00
H691   H     0.35551   0.01144   0.53771   0.00000  Uiso   1.00
H692   H     0.32958   0.06554   0.52355   0.00000  Uiso   1.00
H693   H     0.27415   0.04831   0.60645   0.00000  Uiso   1.00
H694   H     0.30171   0.32749   0.60424   0.00000  Uiso   1.00
C695   C     0.19176   0.13245   0.65307   0.00000  Uiso   1.00
C696   C     0.15876   0.17482   0.66380   0.00000  Uiso   1.00
C697   C     0.10972   0.15022   0.65064   0.00000  Uiso   1.00
H698   H     0.10381   0.12409   0.60464   0.00000  Uiso   1.00
H699   H     0.10133   0.12719   0.35049   0.00000  Uiso   1.00
H700   H     0.08701   0.18112   0.65391   0.00000  Uiso   1.00
H701   H     0.16348   0.20041   0.37609   0.00000  Uiso   1.00
H702   H     0.16455   0.20416   0.63803   0.00000  Uiso   1.00
H703   H     0.19084   0.11020   0.60579   0.00000  Uiso   1.00
H704   H     0.17957   0.10243   0.34290   0.00000  Uiso   1.00
C705   C     0.30459   0.20897   0.35317   0.00000  Uiso   1.00
C706   C     0.31755   0.25989   0.33586   0.00000  Uiso   1.00
C707   C     0.35769   0.29176   0.37699   0.00000  Uiso   1.00
H708   H     0.34940   0.30167   0.42453   0.00000  Uiso   1.00
H709   H     0.38743   0.26968   0.37366   0.00000  Uiso   1.00
H710   H     0.36607   0.32844   0.36304   0.00000  Uiso   1.00
H711   H     0.32733   0.25270   0.62271   0.00000  Uiso   1.00
H712   H     0.28856   0.28307   0.34065   0.00000  Uiso   1.00
H713   H     0.30115   0.22227   0.40064   0.00000  Uiso   1.00
H714   H     0.33219   0.18413   0.34586   0.00000  Uiso   1.00
O715   O     0.75326   0.09538   0.53992   0.00000  Uiso   1.00
O716   O     0.74675   0.23796   0.46008   0.00000  Uiso   1.00
O717   O     0.74480   0.08559   0.43612   0.00000  Uiso   1.00
O718   O     0.75520   0.24774   0.56388   0.00000  Uiso   1.00
C719   C     0.74662   0.06681   0.48467   0.00000  Uiso   1.00
C720   C     0.75204   0.26643   0.51525   0.00000  Uiso   1.00
O721   O     0.68936   0.17155   0.55191   0.00000  Uiso   1.00
O722   O     0.81065   0.16179   0.44809   0.00000  Uiso   1.00
O723   O     0.68090   0.16176   0.44810   0.00000  Uiso   1.00
O724   O     0.81910   0.17157   0.55190   0.00000  Uiso   1.00
C725   C     0.66471   0.16524   0.50029   0.00000  Uiso   1.00
C726   C     0.83544   0.16976   0.49992   0.00000  Uiso   1.00
Cu727  Cu    0.75501   0.17246   0.56146   0.00000  Uiso   1.00
Cu728  Cu    0.74500   0.16087   0.43854   0.00000  Uiso   1.00
C729   C     0.91264   0.21660   0.52673   0.00000  Uiso   1.00
C730   C     0.58763   0.12014   0.47609   0.00000  Uiso   1.00
C731   C     0.88394   0.17138   0.49898   0.00000  Uiso   1.00
C732   C     0.61654   0.16534   0.50128   0.00000  Uiso   1.00
C733   C     0.90117   0.12617   0.47238   0.00000  Uiso   1.00
C734   C     0.59991   0.21128   0.52663   0.00000  Uiso   1.00
C735   C     0.94758   0.12362   0.47697   0.00000  Uiso   1.00
C736   C     0.55343   0.21381   0.52527   0.00000  Uiso   1.00
C737   C     0.97715   0.16968   0.50167   0.00000  Uiso   1.00
C738   C     0.52366   0.16772   0.50139   0.00000  Uiso   1.00
C739   C     0.95990   0.21735   0.52679   0.00000  Uiso   1.00
C740   C     0.54071   0.11978   0.47683   0.00000  Uiso   1.00
C741   C     0.96428   0.07528   0.45755   0.00000  Uiso   1.00
C742   C     0.53684   0.26183   0.54763   0.00000  Uiso   1.00
C743   C     0.51101   0.07274   0.45482   0.00000  Uiso   1.00
C744   C     0.98985   0.26416   0.55068   0.00000  Uiso   1.00
H745   H     0.89728   0.25086   0.54673   0.00000  Uiso   1.00
H746   H     0.60264   0.08548   0.45737   0.00000  Uiso   1.00
H747   H     0.87765   0.09255   0.44952   0.00000  Uiso   1.00
H748   H     0.62412   0.24492   0.54652   0.00000  Uiso   1.00
C749   C     0.73883   0.01060   0.47827   0.00000  Uiso   1.00
C750   C     0.75891   0.32247   0.52141   0.00000  Uiso   1.00
N751   N     0.73745   0.15214   0.34617   0.00000  Uiso   1.00
N752   N     0.76256   0.18119   0.65383   0.00000  Uiso   1.00
O753   O     0.93500   0.03023   0.44331   0.00000  Uiso   1.00
H754   H     0.91366   0.03259   0.47461   0.00000  Uiso   1.00
O755   O     0.56671   0.30648   0.56659   0.00000  Uiso   1.00
H756   H     0.58754   0.30750   0.53513   0.00000  Uiso   1.00
C757   C     0.53095   0.02117   0.43190   0.00000  Uiso   1.00
C758   C     0.99874   0.30376   0.40788   0.00000  Uiso   1.00
C759   C     0.52346   0.25732   0.38214   0.00000  Uiso   1.00
H760   H     0.53940   0.26303   0.34163   0.00000  Uiso   1.00
H761   H     0.54940   0.25190   0.41648   0.00000  Uiso   1.00
H762   H     0.99908   0.22142   0.36853   0.00000  Uiso   1.00
H763   H     0.98036   0.29426   0.44482   0.00000  Uiso   1.00
H764   H     0.97439   0.30825   0.37142   0.00000  Uiso   1.00
H765   H     0.55165   0.02608   0.39524   0.00000  Uiso   1.00
H766   H     0.55406   0.01526   0.46896   0.00000  Uiso   1.00
C767   C     0.96994   0.31548   0.57533   0.00000  Uiso   1.00
C768   C     0.50275   0.03240   0.59985   0.00000  Uiso   1.00
C769   C     0.97896   0.07950   0.62515   0.00000  Uiso   1.00
H770   H     0.95695   0.08783   0.58856   0.00000  Uiso   1.00
H771   H     0.95923   0.07261   0.66221   0.00000  Uiso   1.00
H772   H     0.50432   0.11401   0.64353   0.00000  Uiso   1.00
H773   H     0.52642   0.02737   0.63667   0.00000  Uiso   1.00
H774   H     0.52171   0.04168   0.56322   0.00000  Uiso   1.00
H775   H     0.94685   0.32228   0.53879   0.00000  Uiso   1.00
H776   H     0.94906   0.31006   0.61187   0.00000  Uiso   1.00
C777   C     0.70355   0.31155   0.42760   0.00000  Uiso   1.00
C778   C     0.67401   0.00915   0.39474   0.00000  Uiso   1.00
C779   C     0.63422   0.30831   0.35563   0.00000  Uiso   1.00
H780   H     0.64605   0.28389   0.64843   0.00000  Uiso   1.00
H781   H     0.61644   0.28339   0.38118   0.00000  Uiso   1.00
H782   H     0.61073   0.00002   0.34039   0.00000  Uiso   1.00
H783   H     0.66111   0.04028   0.42815   0.00000  Uiso   1.00
H784   H     0.69416   0.02612   0.36385   0.00000  Uiso   1.00
H785   H     0.72077   0.28629   0.39272   0.00000  Uiso   1.00
H786   H     0.68043   0.28682   0.44815   0.00000  Uiso   1.00
C787   C     0.79142   0.01955   0.57557   0.00000  Uiso   1.00
C788   C     0.83564   0.04320   0.55777   0.00000  Uiso   1.00
C789   C     0.86316   0.07915   0.61304   0.00000  Uiso   1.00
H790   H     0.84113   0.10108   0.64383   0.00000  Uiso   1.00
H791   H     0.88208   0.05587   0.63818   0.00000  Uiso   1.00
H792   H     0.88675   0.10780   0.59898   0.00000  Uiso   1.00
H793   H     0.85551   0.01144   0.53771   0.00000  Uiso   1.00
H794   H     0.82958   0.06554   0.52355   0.00000  Uiso   1.00
H795   H     0.77415   0.04831   0.60645   0.00000  Uiso   1.00
H796   H     0.80171   0.32749   0.60424   0.00000  Uiso   1.00
C797   C     0.69176   0.13245   0.65307   0.00000  Uiso   1.00
C798   C     0.65876   0.17482   0.66380   0.00000  Uiso   1.00
C799   C     0.60972   0.15022   0.65064   0.00000  Uiso   1.00
H800   H     0.60381   0.12409   0.60464   0.00000  Uiso   1.00
H801   H     0.60133   0.12719   0.35049   0.00000  Uiso   1.00
H802   H     0.58701   0.18112   0.65391   0.00000  Uiso   1.00
H803   H     0.66348   0.20041   0.37609   0.00000  Uiso   1.00
H804   H     0.66455   0.20416   0.63803   0.00000  Uiso   1.00
H805   H     0.69084   0.11020   0.60579   0.00000  Uiso   1.00
H806   H     0.67957   0.10243   0.34290   0.00000  Uiso   1.00
C807   C     0.80459   0.20897   0.35317   0.00000  Uiso   1.00
C808   C     0.81755   0.25989   0.33586   0.00000  Uiso   1.00
C809   C     0.85769   0.29176   0.37699   0.00000  Uiso   1.00
H810   H     0.84940   0.30167   0.42453   0.00000  Uiso   1.00
H811   H     0.88743   0.26968   0.37366   0.00000  Uiso   1.00
H812   H     0.86607   0.32844   0.36304   0.00000  Uiso   1.00
H813   H     0.82733   0.25270   0.62271   0.00000  Uiso   1.00
H814   H     0.78856   0.28307   0.34065   0.00000  Uiso   1.00
H815   H     0.80115   0.22227   0.40064   0.00000  Uiso   1.00
H816   H     0.83219   0.18413   0.34586   0.00000  Uiso   1.00
O817   O     0.25326   0.42871   0.53992   0.00000  Uiso   1.00
O818   O     0.24675   0.57129   0.46008   0.00000  Uiso   1.00
O819   O     0.24480   0.41892   0.43612   0.00000  Uiso   1.00
O820   O     0.25520   0.58108   0.56388   0.00000  Uiso   1.00
C821   C     0.24662   0.40014   0.48467   0.00000  Uiso   1.00
C822   C     0.25204   0.59976   0.51525   0.00000  Uiso   1.00
O823   O     0.18936   0.50488   0.55191   0.00000  Uiso   1.00
O824   O     0.31065   0.49512   0.44809   0.00000  Uiso   1.00
O825   O     0.18090   0.49510   0.44810   0.00000  Uiso   1.00
O826   O     0.31910   0.50490   0.55190   0.00000  Uiso   1.00
C827   C     0.16471   0.49858   0.50029   0.00000  Uiso   1.00
C828   C     0.33544   0.50309   0.49992   0.00000  Uiso   1.00
Cu829  Cu    0.25501   0.50579   0.56146   0.00000  Uiso   1.00
Cu830  Cu    0.24500   0.49421   0.43854   0.00000  Uiso   1.00
C831   C     0.41264   0.54993   0.52673   0.00000  Uiso   1.00
C832   C     0.08763   0.45348   0.47609   0.00000  Uiso   1.00
C833   C     0.38394   0.50471   0.49898   0.00000  Uiso   1.00
C834   C     0.11654   0.49867   0.50128   0.00000  Uiso   1.00
C835   C     0.40117   0.45950   0.47238   0.00000  Uiso   1.00
C836   C     0.09991   0.54461   0.52663   0.00000  Uiso   1.00
C837   C     0.44758   0.45696   0.47697   0.00000  Uiso   1.00
C838   C     0.05343   0.54714   0.52527   0.00000  Uiso   1.00
C839   C     0.47715   0.50302   0.50167   0.00000  Uiso   1.00
C840   C     0.02366   0.50105   0.50139   0.00000  Uiso   1.00
C841   C     0.45990   0.55068   0.52679   0.00000  Uiso   1.00
C842   C     0.04071   0.45312   0.47683   0.00000  Uiso   1.00
C843   C     0.46428   0.40862   0.45755   0.00000  Uiso   1.00
C844   C     0.03684   0.59516   0.54763   0.00000  Uiso   1.00
C845   C     0.01101   0.40607   0.45482   0.00000  Uiso   1.00
C846   C     0.48985   0.59750   0.55068   0.00000  Uiso   1.00
H847   H     0.39728   0.58420   0.54673   0.00000  Uiso   1.00
H848   H     0.10264   0.41882   0.45737   0.00000  Uiso   1.00
H849   H     0.37765   0.42588   0.44952   0.00000  Uiso   1.00
H850   H     0.12412   0.57825   0.54652   0.00000  Uiso   1.00
C851   C     0.23883   0.34394   0.47827   0.00000  Uiso   1.00
C852   C     0.25891   0.65581   0.52141   0.00000  Uiso   1.00
N853   N     0.23745   0.48547   0.34617   0.00000  Uiso   1.00
N854   N     0.26256   0.51453   0.65383   0.00000  Uiso   1.00
O855   O     0.43500   0.36356   0.44331   0.00000  Uiso   1.00
H856   H     0.41366   0.36593   0.47461   0.00000  Uiso   1.00
O857   O     0.06671   0.63981   0.56659   0.00000  Uiso   1.00
H858   H     0.08754   0.64083   0.53513   0.00000  Uiso   1.00
C859   C     0.03095   0.35451   0.43190   0.00000  Uiso   1.00
C860   C     0.49874   0.63709   0.40788   0.00000  Uiso   1.00
C861   C     0.02346   0.59065   0.38214   0.00000  Uiso   1.00
H862   H     0.03940   0.59637   0.34163   0.00000  Uiso   1.00
H863   H     0.04940   0.58524   0.41648   0.00000  Uiso   1.00
H864   H     0.49908   0.55476   0.36853   0.00000  Uiso   1.00
H865   H     0.48036   0.62760   0.44482   0.00000  Uiso   1.00
H866   H     0.47439   0.64158   0.37142   0.00000  Uiso   1.00
H867   H     0.05165   0.35941   0.39524   0.00000  Uiso   1.00
H868   H     0.05406   0.34859   0.46896   0.00000  Uiso   1.00
C869   C     0.46994   0.64882   0.57533   0.00000  Uiso   1.00
C870   C     0.00275   0.36573   0.59985   0.00000  Uiso   1.00
C871   C     0.47896   0.41283   0.62515   0.00000  Uiso   1.00
H872   H     0.45695   0.42116   0.58856   0.00000  Uiso   1.00
H873   H     0.45923   0.40595   0.66221   0.00000  Uiso   1.00
H874   H     0.00432   0.44735   0.64353   0.00000  Uiso   1.00
H875   H     0.02642   0.36070   0.63667   0.00000  Uiso   1.00
H876   H     0.02171   0.37501   0.56322   0.00000  Uiso   1.00
H877   H     0.44685   0.65562   0.53879   0.00000  Uiso   1.00
H878   H     0.44906   0.64339   0.61187   0.00000  Uiso   1.00
C879   C     0.20355   0.64489   0.42760   0.00000  Uiso   1.00
C880   C     0.17401   0.34249   0.39474   0.00000  Uiso   1.00
C881   C     0.13422   0.64164   0.35563   0.00000  Uiso   1.00
H882   H     0.14605   0.61722   0.64843   0.00000  Uiso   1.00
H883   H     0.11644   0.61672   0.38118   0.00000  Uiso   1.00
H884   H     0.11073   0.33335   0.34039   0.00000  Uiso   1.00
H885   H     0.16111   0.37361   0.42815   0.00000  Uiso   1.00
H886   H     0.19416   0.35946   0.36385   0.00000  Uiso   1.00
H887   H     0.22077   0.61963   0.39272   0.00000  Uiso   1.00
H888   H     0.18043   0.62015   0.44815   0.00000  Uiso   1.00
C889   C     0.29142   0.35289   0.57557   0.00000  Uiso   1.00
C890   C     0.33564   0.37653   0.55777   0.00000  Uiso   1.00
C891   C     0.36316   0.41248   0.61304   0.00000  Uiso   1.00
H892   H     0.34113   0.43442   0.64383   0.00000  Uiso   1.00
H893   H     0.38208   0.38920   0.63818   0.00000  Uiso   1.00
H894   H     0.38675   0.44113   0.59898   0.00000  Uiso   1.00
H895   H     0.35551   0.34478   0.53771   0.00000  Uiso   1.00
H896   H     0.32958   0.39887   0.52355   0.00000  Uiso   1.00
H897   H     0.27415   0.38164   0.60645   0.00000  Uiso   1.00
H898   H     0.30171   0.66082   0.60424   0.00000  Uiso   1.00
C899   C     0.19176   0.46578   0.65307   0.00000  Uiso   1.00
C900   C     0.15876   0.50816   0.66380   0.00000  Uiso   1.00
C901   C     0.10972   0.48355   0.65064   0.00000  Uiso   1.00
H902   H     0.10381   0.45742   0.60464   0.00000  Uiso   1.00
H903   H     0.10133   0.46052   0.35049   0.00000  Uiso   1.00
H904   H     0.08701   0.51446   0.65391   0.00000  Uiso   1.00
H905   H     0.16348   0.53375   0.37609   0.00000  Uiso   1.00
H906   H     0.16455   0.53749   0.63803   0.00000  Uiso   1.00
H907   H     0.19084   0.44354   0.60579   0.00000  Uiso   1.00
H908   H     0.17957   0.43576   0.34290   0.00000  Uiso   1.00
C909   C     0.30459   0.54230   0.35317   0.00000  Uiso   1.00
C910   C     0.31755   0.59322   0.33586   0.00000  Uiso   1.00
C911   C     0.35769   0.62509   0.37699   0.00000  Uiso   1.00
H912   H     0.34940   0.63501   0.42453   0.00000  Uiso   1.00
H913   H     0.38743   0.60301   0.37366   0.00000  Uiso   1.00
H914   H     0.36607   0.66177   0.36304   0.00000  Uiso   1.00
H915   H     0.32733   0.58603   0.62271   0.00000  Uiso   1.00
H916   H     0.28856   0.61640   0.34065   0.00000  Uiso   1.00
H917   H     0.30115   0.55560   0.40064   0.00000  Uiso   1.00
H918   H     0.33219   0.51746   0.34586   0.00000  Uiso   1.00
O919   O     0.75326   0.42871   0.53992   0.00000  Uiso   1.00
O920   O     0.74675   0.57129   0.46008   0.00000  Uiso   1.00
O921   O     0.74480   0.41892   0.43612   0.00000  Uiso   1.00
O922   O     0.75520   0.58108   0.56388   0.00000  Uiso   1.00
C923   C     0.74662   0.40014   0.48467   0.00000  Uiso   1.00
C924   C     0.75204   0.59976   0.51525   0.00000  Uiso   1.00
O925   O     0.68936   0.50488   0.55191   0.00000  Uiso   1.00
O926   O     0.81065   0.49512   0.44809   0.00000  Uiso   1.00
O927   O     0.68090   0.49510   0.44810   0.00000  Uiso   1.00
O928   O     0.81910   0.50490   0.55190   0.00000  Uiso   1.00
C929   C     0.66471   0.49858   0.50029   0.00000  Uiso   1.00
C930   C     0.83544   0.50309   0.49992   0.00000  Uiso   1.00
Cu931  Cu    0.75501   0.50579   0.56146   0.00000  Uiso   1.00
Cu932  Cu    0.74500   0.49421   0.43854   0.00000  Uiso   1.00
C933   C     0.91264   0.54993   0.52673   0.00000  Uiso   1.00
C934   C     0.58763   0.45348   0.47609   0.00000  Uiso   1.00
C935   C     0.88394   0.50471   0.49898   0.00000  Uiso   1.00
C936   C     0.61654   0.49867   0.50128   0.00000  Uiso   1.00
C937   C     0.90117   0.45950   0.47238   0.00000  Uiso   1.00
C938   C     0.59991   0.54461   0.52663   0.00000  Uiso   1.00
C939   C     0.94758   0.45696   0.47697   0.00000  Uiso   1.00
C940   C     0.55343   0.54714   0.52527   0.00000  Uiso   1.00
C941   C     0.97715   0.50302   0.50167   0.00000  Uiso   1.00
C942   C     0.52366   0.50105   0.50139   0.00000  Uiso   1.00
C943   C     0.95990   0.55068   0.52679   0.00000  Uiso   1.00
C944   C     0.54071   0.45312   0.47683   0.00000  Uiso   1.00
C945   C     0.96428   0.40862   0.45755   0.00000  Uiso   1.00
C946   C     0.53684   0.59516   0.54763   0.00000  Uiso   1.00
C947   C     0.51101   0.40607   0.45482   0.00000  Uiso   1.00
C948   C     0.98985   0.59750   0.55068   0.00000  Uiso   1.00
H949   H     0.89728   0.58420   0.54673   0.00000  Uiso   1.00
H950   H     0.60264   0.41882   0.45737   0.00000  Uiso   1.00
H951   H     0.87765   0.42588   0.44952   0.00000  Uiso   1.00
H952   H     0.62412   0.57825   0.54652   0.00000  Uiso   1.00
C953   C     0.73883   0.34394   0.47827   0.00000  Uiso   1.00
C954   C     0.75891   0.65581   0.52141   0.00000  Uiso   1.00
N955   N     0.73745   0.48547   0.34617   0.00000  Uiso   1.00
N956   N     0.76256   0.51453   0.65383   0.00000  Uiso   1.00
O957   O     0.93500   0.36356   0.44331   0.00000  Uiso   1.00
H958   H     0.91366   0.36593   0.47461   0.00000  Uiso   1.00
O959   O     0.56671   0.63981   0.56659   0.00000  Uiso   1.00
H960   H     0.58754   0.64083   0.53513   0.00000  Uiso   1.00
C961   C     0.53095   0.35451   0.43190   0.00000  Uiso   1.00
C962   C     0.99874   0.63709   0.40788   0.00000  Uiso   1.00
C963   C     0.52346   0.59065   0.38214   0.00000  Uiso   1.00
H964   H     0.53940   0.59637   0.34163   0.00000  Uiso   1.00
H965   H     0.54940   0.58524   0.41648   0.00000  Uiso   1.00
H966   H     0.99908   0.55476   0.36853   0.00000  Uiso   1.00
H967   H     0.98036   0.62760   0.44482   0.00000  Uiso   1.00
H968   H     0.97439   0.64158   0.37142   0.00000  Uiso   1.00
H969   H     0.55165   0.35941   0.39524   0.00000  Uiso   1.00
H970   H     0.55406   0.34859   0.46896   0.00000  Uiso   1.00
C971   C     0.96994   0.64882   0.57533   0.00000  Uiso   1.00
C972   C     0.50275   0.36573   0.59985   0.00000  Uiso   1.00
C973   C     0.97896   0.41283   0.62515   0.00000  Uiso   1.00
H974   H     0.95695   0.42116   0.58856   0.00000  Uiso   1.00
H975   H     0.95923   0.40595   0.66221   0.00000  Uiso   1.00
H976   H     0.50432   0.44735   0.64353   0.00000  Uiso   1.00
H977   H     0.52642   0.36070   0.63667   0.00000  Uiso   1.00
H978   H     0.52171   0.37501   0.56322   0.00000  Uiso   1.00
H979   H     0.94685   0.65562   0.53879   0.00000  Uiso   1.00
H980   H     0.94906   0.64339   0.61187   0.00000  Uiso   1.00
C981   C     0.70355   0.64489   0.42760   0.00000  Uiso   1.00
C982   C     0.67401   0.34249   0.39474   0.00000  Uiso   1.00
C983   C     0.63422   0.64164   0.35563   0.00000  Uiso   1.00
H984   H     0.64605   0.61722   0.64843   0.00000  Uiso   1.00
H985   H     0.61644   0.61672   0.38118   0.00000  Uiso   1.00
H986   H     0.61073   0.33335   0.34039   0.00000  Uiso   1.00
H987   H     0.66111   0.37361   0.42815   0.00000  Uiso   1.00
H988   H     0.69416   0.35946   0.36385   0.00000  Uiso   1.00
H989   H     0.72077   0.61963   0.39272   0.00000  Uiso   1.00
H990   H     0.68043   0.62015   0.44815   0.00000  Uiso   1.00
C991   C     0.79142   0.35289   0.57557   0.00000  Uiso   1.00
C992   C     0.83564   0.37653   0.55777   0.00000  Uiso   1.00
C993   C     0.86316   0.41248   0.61304   0.00000  Uiso   1.00
H994   H     0.84113   0.43442   0.64383   0.00000  Uiso   1.00
H995   H     0.88208   0.38920   0.63818   0.00000  Uiso   1.00
H996   H     0.88675   0.44113   0.59898   0.00000  Uiso   1.00
H997   H     0.85551   0.34478   0.53771   0.00000  Uiso   1.00
H998   H     0.82958   0.39887   0.52355   0.00000  Uiso   1.00
H999   H     0.77415   0.38164   0.60645   0.00000  Uiso   1.00
H1000  H     0.80171   0.66082   0.60424   0.00000  Uiso   1.00
C1001  C     0.69176   0.46578   0.65307   0.00000  Uiso   1.00
C1002  C     0.65876   0.50816   0.66380   0.00000  Uiso   1.00
C1003  C     0.60972   0.48355   0.65064   0.00000  Uiso   1.00
H1004  H     0.60381   0.45742   0.60464   0.00000  Uiso   1.00
H1005  H     0.60133   0.46052   0.35049   0.00000  Uiso   1.00
H1006  H     0.58701   0.51446   0.65391   0.00000  Uiso   1.00
H1007  H     0.66348   0.53375   0.37609   0.00000  Uiso   1.00
H1008  H     0.66455   0.53749   0.63803   0.00000  Uiso   1.00
H1009  H     0.69084   0.44354   0.60579   0.00000  Uiso   1.00
H1010  H     0.67957   0.43576   0.34290   0.00000  Uiso   1.00
C1011  C     0.80459   0.54230   0.35317   0.00000  Uiso   1.00
C1012  C     0.81755   0.59322   0.33586   0.00000  Uiso   1.00
C1013  C     0.85769   0.62509   0.37699   0.00000  Uiso   1.00
H1014  H     0.84940   0.63501   0.42453   0.00000  Uiso   1.00
H1015  H     0.88743   0.60301   0.37366   0.00000  Uiso   1.00
H1016  H     0.86607   0.66177   0.36304   0.00000  Uiso   1.00
H1017  H     0.82733   0.58603   0.62271   0.00000  Uiso   1.00
H1018  H     0.78856   0.61640   0.34065   0.00000  Uiso   1.00
H1019  H     0.80115   0.55560   0.40064   0.00000  Uiso   1.00
H1020  H     0.83219   0.51746   0.34586   0.00000  Uiso   1.00
O1021  O     0.25326   0.76204   0.53992   0.00000  Uiso   1.00
O1022  O     0.24675   0.90462   0.46008   0.00000  Uiso   1.00
O1023  O     0.24480   0.75226   0.43612   0.00000  Uiso   1.00
O1024  O     0.25520   0.91441   0.56388   0.00000  Uiso   1.00
C1025  C     0.24662   0.73348   0.48467   0.00000  Uiso   1.00
C1026  C     0.25204   0.93309   0.51525   0.00000  Uiso   1.00
O1027  O     0.18936   0.83821   0.55191   0.00000  Uiso   1.00
O1028  O     0.31065   0.82845   0.44809   0.00000  Uiso   1.00
O1029  O     0.18090   0.82843   0.44810   0.00000  Uiso   1.00
O1030  O     0.31910   0.83824   0.55190   0.00000  Uiso   1.00
C1031  C     0.16471   0.83191   0.50029   0.00000  Uiso   1.00
C1032  C     0.33544   0.83642   0.49992   0.00000  Uiso   1.00
Cu1033 Cu    0.25501   0.83913   0.56146   0.00000  Uiso   1.00
Cu1034 Cu    0.24500   0.82754   0.43854   0.00000  Uiso   1.00
C1035  C     0.41264   0.88326   0.52673   0.00000  Uiso   1.00
C1036  C     0.08763   0.78681   0.47609   0.00000  Uiso   1.00
C1037  C     0.38394   0.83805   0.49898   0.00000  Uiso   1.00
C1038  C     0.11654   0.83201   0.50128   0.00000  Uiso   1.00
C1039  C     0.40117   0.79283   0.47238   0.00000  Uiso   1.00
C1040  C     0.09991   0.87795   0.52663   0.00000  Uiso   1.00
C1041  C     0.44758   0.79029   0.47697   0.00000  Uiso   1.00
C1042  C     0.05343   0.88048   0.52527   0.00000  Uiso   1.00
C1043  C     0.47715   0.83635   0.50167   0.00000  Uiso   1.00
C1044  C     0.02366   0.83438   0.50139   0.00000  Uiso   1.00
C1045  C     0.45990   0.88402   0.52679   0.00000  Uiso   1.00
C1046  C     0.04071   0.78645   0.47683   0.00000  Uiso   1.00
C1047  C     0.46428   0.74195   0.45755   0.00000  Uiso   1.00
C1048  C     0.03684   0.92849   0.54763   0.00000  Uiso   1.00
C1049  C     0.01101   0.73941   0.45482   0.00000  Uiso   1.00
C1050  C     0.48985   0.93083   0.55068   0.00000  Uiso   1.00
H1051  H     0.39728   0.91753   0.54673   0.00000  Uiso   1.00
H1052  H     0.10264   0.75215   0.45737   0.00000  Uiso   1.00
H1053  H     0.37765   0.75922   0.44952   0.00000  Uiso   1.00
H1054  H     0.12412   0.91159   0.54652   0.00000  Uiso   1.00
C1055  C     0.23883   0.67727   0.47827   0.00000  Uiso   1.00
C1056  C     0.25891   0.98914   0.52141   0.00000  Uiso   1.00
N1057  N     0.23745   0.81881   0.34617   0.00000  Uiso   1.00
N1058  N     0.26256   0.84786   0.65383   0.00000  Uiso   1.00
O1059  O     0.43500   0.69689   0.44331   0.00000  Uiso   1.00
H1060  H     0.41366   0.69926   0.47461   0.00000  Uiso   1.00
O1061  O     0.06671   0.97315   0.56659   0.00000  Uiso   1.00
H1062  H     0.08754   0.97416   0.53513   0.00000  Uiso   1.00
C1063  C     0.03095   0.68784   0.43190   0.00000  Uiso   1.00
C1064  C     0.49874   0.97043   0.40788   0.00000  Uiso   1.00
C1065  C     0.02346   0.92398   0.38214   0.00000  Uiso   1.00
H1066  H     0.03940   0.92970   0.34163   0.00000  Uiso   1.00
H1067  H     0.04940   0.91857   0.41648   0.00000  Uiso   1.00
H1068  H     0.49908   0.88809   0.36853   0.00000  Uiso   1.00
H1069  H     0.48036   0.96093   0.44482   0.00000  Uiso   1.00
H1070  H     0.47439   0.97492   0.37142   0.00000  Uiso   1.00
H1071  H     0.05165   0.69275   0.39524   0.00000  Uiso   1.00
H1072  H     0.05406   0.68192   0.46896   0.00000  Uiso   1.00
C1073  C     0.46994   0.98215   0.57533   0.00000  Uiso   1.00
C1074  C     0.00275   0.69906   0.59985   0.00000  Uiso   1.00
C1075  C     0.47896   0.74616   0.62515   0.00000  Uiso   1.00
H1076  H     0.45695   0.75449   0.58856   0.00000  Uiso   1.00
H1077  H     0.45923   0.73928   0.66221   0.00000  Uiso   1.00
H1078  H     0.00432   0.78068   0.64353   0.00000  Uiso   1.00
H1079  H     0.02642   0.69404   0.63667   0.00000  Uiso   1.00
H1080  H     0.02171   0.70835   0.56322   0.00000  Uiso   1.00
H1081  H     0.44685   0.98895   0.53879   0.00000  Uiso   1.00
H1082  H     0.44906   0.97673   0.61187   0.00000  Uiso   1.00
C1083  C     0.20355   0.97822   0.42760   0.00000  Uiso   1.00
C1084  C     0.17401   0.67582   0.39474   0.00000  Uiso   1.00
C1085  C     0.13422   0.97497   0.35563   0.00000  Uiso   1.00
H1086  H     0.14605   0.95055   0.64843   0.00000  Uiso   1.00
H1087  H     0.11644   0.95006   0.38118   0.00000  Uiso   1.00
H1088  H     0.11073   0.66669   0.34039   0.00000  Uiso   1.00
H1089  H     0.16111   0.70694   0.42815   0.00000  Uiso   1.00
H1090  H     0.19416   0.69279   0.36385   0.00000  Uiso   1.00
H1091  H     0.22077   0.95296   0.39272   0.00000  Uiso   1.00
H1092  H     0.18043   0.95349   0.44815   0.00000  Uiso   1.00
C1093  C     0.29142   0.68622   0.57557   0.00000  Uiso   1.00
C1094  C     0.33564   0.70987   0.55777   0.00000  Uiso   1.00
C1095  C     0.36316   0.74581   0.61304   0.00000  Uiso   1.00
H1096  H     0.34113   0.76775   0.64383   0.00000  Uiso   1.00
H1097  H     0.38208   0.72254   0.63818   0.00000  Uiso   1.00
H1098  H     0.38675   0.77446   0.59898   0.00000  Uiso   1.00
H1099  H     0.35551   0.67811   0.53771   0.00000  Uiso   1.00
H1100  H     0.32958   0.73221   0.52355   0.00000  Uiso   1.00
H1101  H     0.27415   0.71498   0.60645   0.00000  Uiso   1.00
H1102  H     0.30171   0.99415   0.60424   0.00000  Uiso   1.00
C1103  C     0.19176   0.79911   0.65307   0.00000  Uiso   1.00
C1104  C     0.15876   0.84149   0.66380   0.00000  Uiso   1.00
C1105  C     0.10972   0.81689   0.65064   0.00000  Uiso   1.00
H1106  H     0.10381   0.79076   0.60464   0.00000  Uiso   1.00
H1107  H     0.10133   0.79386   0.35049   0.00000  Uiso   1.00
H1108  H     0.08701   0.84779   0.65391   0.00000  Uiso   1.00
H1109  H     0.16348   0.86708   0.37609   0.00000  Uiso   1.00
H1110  H     0.16455   0.87083   0.63803   0.00000  Uiso   1.00
H1111  H     0.19084   0.77687   0.60579   0.00000  Uiso   1.00
H1112  H     0.17957   0.76910   0.34290   0.00000  Uiso   1.00
C1113  C     0.30459   0.87564   0.35317   0.00000  Uiso   1.00
C1114  C     0.31755   0.92656   0.33586   0.00000  Uiso   1.00
C1115  C     0.35769   0.95842   0.37699   0.00000  Uiso   1.00
H1116  H     0.34940   0.96834   0.42453   0.00000  Uiso   1.00
H1117  H     0.38743   0.93635   0.37366   0.00000  Uiso   1.00
H1118  H     0.36607   0.99511   0.36304   0.00000  Uiso   1.00
H1119  H     0.32733   0.91937   0.62271   0.00000  Uiso   1.00
H1120  H     0.28856   0.94973   0.34065   0.00000  Uiso   1.00
H1121  H     0.30115   0.88894   0.40064   0.00000  Uiso   1.00
H1122  H     0.33219   0.85079   0.34586   0.00000  Uiso   1.00
O1123  O     0.75326   0.76204   0.53992   0.00000  Uiso   1.00
O1124  O     0.74675   0.90462   0.46008   0.00000  Uiso   1.00
O1125  O     0.74480   0.75226   0.43612   0.00000  Uiso   1.00
O1126  O     0.75520   0.91441   0.56388   0.00000  Uiso   1.00
C1127  C     0.74662   0.73348   0.48467   0.00000  Uiso   1.00
C1128  C     0.75204   0.93309   0.51525   0.00000  Uiso   1.00
O1129  O     0.68936   0.83821   0.55191   0.00000  Uiso   1.00
O1130  O     0.81065   0.82845   0.44809   0.00000  Uiso   1.00
O1131  O     0.68090   0.82843   0.44810   0.00000  Uiso   1.00
O1132  O     0.81910   0.83824   0.55190   0.00000  Uiso   1.00
C1133  C     0.66471   0.83191   0.50029   0.00000  Uiso   1.00
C1134  C     0.83544   0.83642   0.49992   0.00000  Uiso   1.00
Cu1135 Cu    0.75501   0.83913   0.56146   0.00000  Uiso   1.00
Cu1136 Cu    0.74500   0.82754   0.43854   0.00000  Uiso   1.00
C1137  C     0.91264   0.88326   0.52673   0.00000  Uiso   1.00
C1138  C     0.58763   0.78681   0.47609   0.00000  Uiso   1.00
C1139  C     0.88394   0.83805   0.49898   0.00000  Uiso   1.00
C1140  C     0.61654   0.83201   0.50128   0.00000  Uiso   1.00
C1141  C     0.90117   0.79283   0.47238   0.00000  Uiso   1.00
C1142  C     0.59991   0.87795   0.52663   0.00000  Uiso   1.00
C1143  C     0.94758   0.79029   0.47697   0.00000  Uiso   1.00
C1144  C     0.55343   0.88048   0.52527   0.00000  Uiso   1.00
C1145  C     0.97715   0.83635   0.50167   0.00000  Uiso   1.00
C1146  C     0.52366   0.83438   0.50139   0.00000  Uiso   1.00
C1147  C     0.95990   0.88402   0.52679   0.00000  Uiso   1.00
C1148  C     0.54071   0.78645   0.47683   0.00000  Uiso   1.00
C1149  C     0.96428   0.74195   0.45755   0.00000  Uiso   1.00
C1150  C     0.53684   0.92849   0.54763   0.00000  Uiso   1.00
C1151  C     0.51101   0.73941   0.45482   0.00000  Uiso   1.00
C1152  C     0.98985   0.93083   0.55068   0.00000  Uiso   1.00
H1153  H     0.89728   0.91753   0.54673   0.00000  Uiso   1.00
H1154  H     0.60264   0.75215   0.45737   0.00000  Uiso   1.00
H1155  H     0.87765   0.75922   0.44952   0.00000  Uiso   1.00
H1156  H     0.62412   0.91159   0.54652   0.00000  Uiso   1.00
C1157  C     0.73883   0.67727   0.47827   0.00000  Uiso   1.00
C1158  C     0.75891   0.98914   0.52141   0.00000  Uiso   1.00
N1159  N     0.73745   0.81881   0.34617   0.00000  Uiso   1.00
N1160  N     0.76256   0.84786   0.65383   0.00000  Uiso   1.00
O1161  O     0.93500   0.69689   0.44331   0.00000  Uiso   1.00
H1162  H     0.91366   0.69926   0.47461   0.00000  Uiso   1.00
O1163  O     0.56671   0.97315   0.56659   0.00000  Uiso   1.00
H1164  H     0.58754   0.97416   0.53513   0.00000  Uiso   1.00
C1165  C     0.53095   0.68784   0.43190   0.00000  Uiso   1.00
C1166  C     0.99874   0.97043   0.40788   0.00000  Uiso   1.00
C1167  C     0.52346   0.92398   0.38214   0.00000  Uiso   1.00
H1168  H     0.53940   0.92970   0.34163   0.00000  Uiso   1.00
H1169  H     0.54940   0.91857   0.41648   0.00000  Uiso   1.00
H1170  H     0.99908   0.88809   0.36853   0.00000  Uiso   1.00
H1171  H     0.98036   0.96093   0.44482   0.00000  Uiso   1.00
H1172  H     0.97439   0.97492   0.37142   0.00000  Uiso   1.00
H1173  H     0.55165   0.69275   0.39524   0.00000  Uiso   1.00
H1174  H     0.55406   0.68192   0.46896   0.00000  Uiso   1.00
C1175  C     0.96994   0.98215   0.57533   0.00000  Uiso   1.00
C1176  C     0.50275   0.69906   0.59985   0.00000  Uiso   1.00
C1177  C     0.97896   0.74616   0.62515   0.00000  Uiso   1.00
H1178  H     0.95695   0.75449   0.58856   0.00000  Uiso   1.00
H1179  H     0.95923   0.73928   0.66221   0.00000  Uiso   1.00
H1180  H     0.50432   0.78068   0.64353   0.00000  Uiso   1.00
H1181  H     0.52642   0.69404   0.63667   0.00000  Uiso   1.00
H1182  H     0.52171   0.70835   0.56322   0.00000  Uiso   1.00
H1183  H     0.94685   0.98895   0.53879   0.00000  Uiso   1.00
H1184  H     0.94906   0.97673   0.61187   0.00000  Uiso   1.00
C1185  C     0.70355   0.97822   0.42760   0.00000  Uiso   1.00
C1186  C     0.67401   0.67582   0.39474   0.00000  Uiso   1.00
C1187  C     0.63422   0.97497   0.35563   0.00000  Uiso   1.00
H1188  H     0.64605   0.95055   0.64843   0.00000  Uiso   1.00
H1189  H     0.61644   0.95006   0.38118   0.00000  Uiso   1.00
H1190  H     0.61073   0.66669   0.34039   0.00000  Uiso   1.00
H1191  H     0.66111   0.70694   0.42815   0.00000  Uiso   1.00
H1192  H     0.69416   0.69279   0.36385   0.00000  Uiso   1.00
H1193  H     0.72077   0.95296   0.39272   0.00000  Uiso   1.00
H1194  H     0.68043   0.95349   0.44815   0.00000  Uiso   1.00
C1195  C     0.79142   0.68622   0.57557   0.00000  Uiso   1.00
C1196  C     0.83564   0.70987   0.55777   0.00000  Uiso   1.00
C1197  C     0.86316   0.74581   0.61304   0.00000  Uiso   1.00
H1198  H     0.84113   0.76775   0.64383   0.00000  Uiso   1.00
H1199  H     0.88208   0.72254   0.63818   0.00000  Uiso   1.00
H1200  H     0.88675   0.77446   0.59898   0.00000  Uiso   1.00
H1201  H     0.85551   0.67811   0.53771   0.00000  Uiso   1.00
H1202  H     0.82958   0.73221   0.52355   0.00000  Uiso   1.00
H1203  H     0.77415   0.71498   0.60645   0.00000  Uiso   1.00
H1204  H     0.80171   0.99415   0.60424   0.00000  Uiso   1.00
C1205  C     0.69176   0.79911   0.65307   0.00000  Uiso   1.00
C1206  C     0.65876   0.84149   0.66380   0.00000  Uiso   1.00
C1207  C     0.60972   0.81689   0.65064   0.00000  Uiso   1.00
H1208  H     0.60381   0.79076   0.60464   0.00000  Uiso   1.00
H1209  H     0.60133   0.79386   0.35049   0.00000  Uiso   1.00
H1210  H     0.58701   0.84779   0.65391   0.00000  Uiso   1.00
H1211  H     0.66348   0.86708   0.37609   0.00000  Uiso   1.00
H1212  H     0.66455   0.87083   0.63803   0.00000  Uiso   1.00
H1213  H     0.69084   0.77687   0.60579   0.00000  Uiso   1.00
H1214  H     0.67957   0.76910   0.34290   0.00000  Uiso   1.00
C1215  C     0.80459   0.87564   0.35317   0.00000  Uiso   1.00
C1216  C     0.81755   0.92656   0.33586   0.00000  Uiso   1.00
C1217  C     0.85769   0.95842   0.37699   0.00000  Uiso   1.00
H1218  H     0.84940   0.96834   0.42453   0.00000  Uiso   1.00
H1219  H     0.88743   0.93635   0.37366   0.00000  Uiso   1.00
H1220  H     0.86607   0.99511   0.36304   0.00000  Uiso   1.00
H1221  H     0.82733   0.91937   0.62271   0.00000  Uiso   1.00
H1222  H     0.78856   0.94973   0.34065   0.00000  Uiso   1.00
H1223  H     0.80115   0.88894   0.40064   0.00000  Uiso   1.00
H1224  H     0.83219   0.85079   0.34586   0.00000  Uiso   1.00
O1225  O     0.25326   0.09538   0.87326   0.00000  Uiso   1.00
O1226  O     0.24675   0.23796   0.79341   0.00000  Uiso   1.00
O1227  O     0.24480   0.08559   0.76945   0.00000  Uiso   1.00
O1228  O     0.25520   0.24774   0.89721   0.00000  Uiso   1.00
C1229  C     0.24662   0.06681   0.81800   0.00000  Uiso   1.00
C1230  C     0.25204   0.26643   0.84858   0.00000  Uiso   1.00
O1231  O     0.18936   0.17155   0.88524   0.00000  Uiso   1.00
O1232  O     0.31065   0.16179   0.78143   0.00000  Uiso   1.00
O1233  O     0.18090   0.16176   0.78143   0.00000  Uiso   1.00
O1234  O     0.31910   0.17157   0.88523   0.00000  Uiso   1.00
C1235  C     0.16471   0.16524   0.83362   0.00000  Uiso   1.00
C1236  C     0.33544   0.16976   0.83326   0.00000  Uiso   1.00
Cu1237 Cu    0.25501   0.17246   0.89479   0.00000  Uiso   1.00
Cu1238 Cu    0.24500   0.16087   0.77187   0.00000  Uiso   1.00
C1239  C     0.41264   0.21660   0.86007   0.00000  Uiso   1.00
C1240  C     0.08763   0.12014   0.80942   0.00000  Uiso   1.00
C1241  C     0.38394   0.17138   0.83231   0.00000  Uiso   1.00
C1242  C     0.11654   0.16534   0.83462   0.00000  Uiso   1.00
C1243  C     0.40117   0.12617   0.80571   0.00000  Uiso   1.00
C1244  C     0.09991   0.21128   0.85996   0.00000  Uiso   1.00
C1245  C     0.44758   0.12362   0.81031   0.00000  Uiso   1.00
C1246  C     0.05343   0.21381   0.85860   0.00000  Uiso   1.00
C1247  C     0.47715   0.16968   0.83501   0.00000  Uiso   1.00
C1248  C     0.02366   0.16772   0.83472   0.00000  Uiso   1.00
C1249  C     0.45990   0.21735   0.86013   0.00000  Uiso   1.00
C1250  C     0.04071   0.11978   0.81016   0.00000  Uiso   1.00
C1251  C     0.46428   0.07528   0.79088   0.00000  Uiso   1.00
C1252  C     0.03684   0.26183   0.88096   0.00000  Uiso   1.00
C1253  C     0.01101   0.07274   0.78815   0.00000  Uiso   1.00
C1254  C     0.48985   0.26416   0.88401   0.00000  Uiso   1.00
H1255  H     0.39728   0.25086   0.88006   0.00000  Uiso   1.00
H1256  H     0.10264   0.08548   0.79070   0.00000  Uiso   1.00
H1257  H     0.37765   0.09255   0.78285   0.00000  Uiso   1.00
H1258  H     0.12412   0.24492   0.87986   0.00000  Uiso   1.00
C1259  C     0.23883   0.01060   0.81160   0.00000  Uiso   1.00
C1260  C     0.25891   0.32247   0.85474   0.00000  Uiso   1.00
N1261  N     0.23745   0.15214   0.67951   0.00000  Uiso   1.00
N1262  N     0.26256   0.18119   0.98716   0.00000  Uiso   1.00
O1263  O     0.43500   0.03023   0.77664   0.00000  Uiso   1.00
H1264  H     0.41366   0.03259   0.80794   0.00000  Uiso   1.00
O1265  O     0.06671   0.30648   0.89992   0.00000  Uiso   1.00
H1266  H     0.08754   0.30750   0.86846   0.00000  Uiso   1.00
C1267  C     0.03095   0.02117   0.76523   0.00000  Uiso   1.00
C1268  C     0.49874   0.30376   0.74121   0.00000  Uiso   1.00
C1269  C     0.02346   0.25732   0.71548   0.00000  Uiso   1.00
H1270  H     0.03940   0.26303   0.67496   0.00000  Uiso   1.00
H1271  H     0.04940   0.25190   0.74981   0.00000  Uiso   1.00
H1272  H     0.49908   0.22142   0.70186   0.00000  Uiso   1.00
H1273  H     0.48036   0.29426   0.77815   0.00000  Uiso   1.00
H1274  H     0.47439   0.30825   0.70476   0.00000  Uiso   1.00
H1275  H     0.05165   0.02608   0.72857   0.00000  Uiso   1.00
H1276  H     0.05406   0.01526   0.80230   0.00000  Uiso   1.00
C1277  C     0.46994   0.31548   0.90867   0.00000  Uiso   1.00
C1278  C     0.00275   0.03240   0.93318   0.00000  Uiso   1.00
C1279  C     0.47896   0.07950   0.95848   0.00000  Uiso   1.00
H1280  H     0.45695   0.08783   0.92189   0.00000  Uiso   1.00
H1281  H     0.45923   0.07261   0.99555   0.00000  Uiso   1.00
H1282  H     0.00432   0.11401   0.97686   0.00000  Uiso   1.00
H1283  H     0.02642   0.02737   0.97000   0.00000  Uiso   1.00
H1284  H     0.02171   0.04168   0.89656   0.00000  Uiso   1.00
H1285  H     0.44685   0.32228   0.87212   0.00000  Uiso   1.00
H1286  H     0.44906   0.31006   0.94520   0.00000  Uiso   1.00
C1287  C     0.20355   0.31155   0.76093   0.00000  Uiso   1.00
C1288  C     0.17401   0.00915   0.72807   0.00000  Uiso   1.00
C1289  C     0.13422   0.30831   0.68896   0.00000  Uiso   1.00
H1290  H     0.14605   0.28389   0.98176   0.00000  Uiso   1.00
H1291  H     0.11644   0.28339   0.71452   0.00000  Uiso   1.00
H1292  H     0.11073   0.00002   0.67372   0.00000  Uiso   1.00
H1293  H     0.16111   0.04028   0.76148   0.00000  Uiso   1.00
H1294  H     0.19416   0.02612   0.69718   0.00000  Uiso   1.00
H1295  H     0.22077   0.28629   0.72605   0.00000  Uiso   1.00
H1296  H     0.18043   0.28682   0.78148   0.00000  Uiso   1.00
C1297  C     0.29142   0.01955   0.90890   0.00000  Uiso   1.00
C1298  C     0.33564   0.04320   0.89110   0.00000  Uiso   1.00
C1299  C     0.36316   0.07915   0.94638   0.00000  Uiso   1.00
H1300  H     0.34113   0.10108   0.97716   0.00000  Uiso   1.00
H1301  H     0.38208   0.05587   0.97152   0.00000  Uiso   1.00
H1302  H     0.38675   0.10780   0.93231   0.00000  Uiso   1.00
H1303  H     0.35551   0.01144   0.87104   0.00000  Uiso   1.00
H1304  H     0.32958   0.06554   0.85689   0.00000  Uiso   1.00
H1305  H     0.27415   0.04831   0.93979   0.00000  Uiso   1.00
H1306  H     0.30171   0.32749   0.93757   0.00000  Uiso   1.00
C1307  C     0.19176   0.13245   0.98640   0.00000  Uiso   1.00
C1308  C     0.15876   0.17482   0.99714   0.00000  Uiso   1.00
C1309  C     0.10972   0.15022   0.98397   0.00000  Uiso   1.00
H1310  H     0.10381   0.12409   0.93797   0.00000  Uiso   1.00
H1311  H     0.10133   0.12719   0.68382   0.00000  Uiso   1.00
H1312  H     0.08701   0.18112   0.98724   0.00000  Uiso   1.00
H1313  H     0.16348   0.20041   0.70942   0.00000  Uiso   1.00
H1314  H     0.16455   0.20416   0.97136   0.00000  Uiso   1.00
H1315  H     0.19084   0.11020   0.93912   0.00000  Uiso   1.00
H1316  H     0.17957   0.10243   0.67624   0.00000  Uiso   1.00
C1317  C     0.30459   0.20897   0.68650   0.00000  Uiso   1.00
C1318  C     0.31755   0.25989   0.66919   0.00000  Uiso   1.00
C1319  C     0.35769   0.29176   0.71033   0.00000  Uiso   1.00
H1320  H     0.34940   0.30167   0.75786   0.00000  Uiso   1.00
H1321  H     0.38743   0.26968   0.70699   0.00000  Uiso   1.00
H1322  H     0.36607   0.32844   0.69637   0.00000  Uiso   1.00
H1323  H     0.32733   0.25270   0.95605   0.00000  Uiso   1.00
H1324  H     0.28856   0.28307   0.67399   0.00000  Uiso   1.00
H1325  H     0.30115   0.22227   0.73397   0.00000  Uiso   1.00
H1326  H     0.33219   0.18413   0.67919   0.00000  Uiso   1.00
O1327  O     0.75326   0.09538   0.87326   0.00000  Uiso   1.00
O1328  O     0.74675   0.23796   0.79341   0.00000  Uiso   1.00
O1329  O     0.74480   0.08559   0.76945   0.00000  Uiso   1.00
O1330  O     0.75520   0.24774   0.89721   0.00000  Uiso   1.00
C1331  C     0.74662   0.06681   0.81800   0.00000  Uiso   1.00
C1332  C     0.75204   0.26643   0.84858   0.00000  Uiso   1.00
O1333  O     0.68936   0.17155   0.88524   0.00000  Uiso   1.00
O1334  O     0.81065   0.16179   0.78143   0.00000  Uiso   1.00
O1335  O     0.68090   0.16176   0.78143   0.00000  Uiso   1.00
O1336  O     0.81910   0.17157   0.88523   0.00000  Uiso   1.00
C1337  C     0.66471   0.16524   0.83362   0.00000  Uiso   1.00
C1338  C     0.83544   0.16976   0.83326   0.00000  Uiso   1.00
Cu1339 Cu    0.75501   0.17246   0.89479   0.00000  Uiso   1.00
Cu1340 Cu    0.74500   0.16087   0.77187   0.00000  Uiso   1.00
C1341  C     0.91264   0.21660   0.86007   0.00000  Uiso   1.00
C1342  C     0.58763   0.12014   0.80942   0.00000  Uiso   1.00
C1343  C     0.88394   0.17138   0.83231   0.00000  Uiso   1.00
C1344  C     0.61654   0.16534   0.83462   0.00000  Uiso   1.00
C1345  C     0.90117   0.12617   0.80571   0.00000  Uiso   1.00
C1346  C     0.59991   0.21128   0.85996   0.00000  Uiso   1.00
C1347  C     0.94758   0.12362   0.81031   0.00000  Uiso   1.00
C1348  C     0.55343   0.21381   0.85860   0.00000  Uiso   1.00
C1349  C     0.97715   0.16968   0.83501   0.00000  Uiso   1.00
C1350  C     0.52366   0.16772   0.83472   0.00000  Uiso   1.00
C1351  C     0.95990   0.21735   0.86013   0.00000  Uiso   1.00
C1352  C     0.54071   0.11978   0.81016   0.00000  Uiso   1.00
C1353  C     0.96428   0.07528   0.79088   0.00000  Uiso   1.00
C1354  C     0.53684   0.26183   0.88096   0.00000  Uiso   1.00
C1355  C     0.51101   0.07274   0.78815   0.00000  Uiso   1.00
C1356  C     0.98985   0.26416   0.88401   0.00000  Uiso   1.00
H1357  H     0.89728   0.25086   0.88006   0.00000  Uiso   1.00
H1358  H     0.60264   0.08548   0.79070   0.00000  Uiso   1.00
H1359  H     0.87765   0.09255   0.78285   0.00000  Uiso   1.00
H1360  H     0.62412   0.24492   0.87986   0.00000  Uiso   1.00
C1361  C     0.73883   0.01060   0.81160   0.00000  Uiso   1.00
C1362  C     0.75891   0.32247   0.85474   0.00000  Uiso   1.00
N1363  N     0.73745   0.15214   0.67951   0.00000  Uiso   1.00
N1364  N     0.76256   0.18119   0.98716   0.00000  Uiso   1.00
O1365  O     0.93500   0.03023   0.77664   0.00000  Uiso   1.00
H1366  H     0.91366   0.03259   0.80794   0.00000  Uiso   1.00
O1367  O     0.56671   0.30648   0.89992   0.00000  Uiso   1.00
H1368  H     0.58754   0.30750   0.86846   0.00000  Uiso   1.00
C1369  C     0.53095   0.02117   0.76523   0.00000  Uiso   1.00
C1370  C     0.99874   0.30376   0.74121   0.00000  Uiso   1.00
C1371  C     0.52346   0.25732   0.71548   0.00000  Uiso   1.00
H1372  H     0.53940   0.26303   0.67496   0.00000  Uiso   1.00
H1373  H     0.54940   0.25190   0.74981   0.00000  Uiso   1.00
H1374  H     0.99908   0.22142   0.70186   0.00000  Uiso   1.00
H1375  H     0.98036   0.29426   0.77815   0.00000  Uiso   1.00
H1376  H     0.97439   0.30825   0.70476   0.00000  Uiso   1.00
H1377  H     0.55165   0.02608   0.72857   0.00000  Uiso   1.00
H1378  H     0.55406   0.01526   0.80230   0.00000  Uiso   1.00
C1379  C     0.96994   0.31548   0.90867   0.00000  Uiso   1.00
C1380  C     0.50275   0.03240   0.93318   0.00000  Uiso   1.00
C1381  C     0.97896   0.07950   0.95848   0.00000  Uiso   1.00
H1382  H     0.95695   0.08783   0.92189   0.00000  Uiso   1.00
H1383  H     0.95923   0.07261   0.99555   0.00000  Uiso   1.00
H1384  H     0.50432   0.11401   0.97686   0.00000  Uiso   1.00
H1385  H     0.52642   0.02737   0.97000   0.00000  Uiso   1.00
H1386  H     0.52171   0.04168   0.89656   0.00000  Uiso   1.00
H1387  H     0.94685   0.32228   0.87212   0.00000  Uiso   1.00
H1388  H     0.94906   0.31006   0.94520   0.00000  Uiso   1.00
C1389  C     0.70355   0.31155   0.76093   0.00000  Uiso   1.00
C1390  C     0.67401   0.00915   0.72807   0.00000  Uiso   1.00
C1391  C     0.63422   0.30831   0.68896   0.00000  Uiso   1.00
H1392  H     0.64605   0.28389   0.98176   0.00000  Uiso   1.00
H1393  H     0.61644   0.28339   0.71452   0.00000  Uiso   1.00
H1394  H     0.61073   0.00002   0.67372   0.00000  Uiso   1.00
H1395  H     0.66111   0.04028   0.76148   0.00000  Uiso   1.00
H1396  H     0.69416   0.02612   0.69718   0.00000  Uiso   1.00
H1397  H     0.72077   0.28629   0.72605   0.00000  Uiso   1.00
H1398  H     0.68043   0.28682   0.78148   0.00000  Uiso   1.00
C1399  C     0.79142   0.01955   0.90890   0.00000  Uiso   1.00
C1400  C     0.83564   0.04320   0.89110   0.00000  Uiso   1.00
C1401  C     0.86316   0.07915   0.94638   0.00000  Uiso   1.00
H1402  H     0.84113   0.10108   0.97716   0.00000  Uiso   1.00
H1403  H     0.88208   0.05587   0.97152   0.00000  Uiso   1.00
H1404  H     0.88675   0.10780   0.93231   0.00000  Uiso   1.00
H1405  H     0.85551   0.01144   0.87104   0.00000  Uiso   1.00
H1406  H     0.82958   0.06554   0.85689   0.00000  Uiso   1.00
H1407  H     0.77415   0.04831   0.93979   0.00000  Uiso   1.00
H1408  H     0.80171   0.32749   0.93757   0.00000  Uiso   1.00
C1409  C     0.69176   0.13245   0.98640   0.00000  Uiso   1.00
C1410  C     0.65876   0.17482   0.99714   0.00000  Uiso   1.00
C1411  C     0.60972   0.15022   0.98397   0.00000  Uiso   1.00
H1412  H     0.60381   0.12409   0.93797   0.00000  Uiso   1.00
H1413  H     0.60133   0.12719   0.68382   0.00000  Uiso   1.00
H1414  H     0.58701   0.18112   0.98724   0.00000  Uiso   1.00
H1415  H     0.66348   0.20041   0.70942   0.00000  Uiso   1.00
H1416  H     0.66455   0.20416   0.97136   0.00000  Uiso   1.00
H1417  H     0.69084   0.11020   0.93912   0.00000  Uiso   1.00
H1418  H     0.67957   0.10243   0.67624   0.00000  Uiso   1.00
C1419  C     0.80459   0.20897   0.68650   0.00000  Uiso   1.00
C1420  C     0.81755   0.25989   0.66919   0.00000  Uiso   1.00
C1421  C     0.85769   0.29176   0.71033   0.00000  Uiso   1.00
H1422  H     0.84940   0.30167   0.75786   0.00000  Uiso   1.00
H1423  H     0.88743   0.26968   0.70699   0.00000  Uiso   1.00
H1424  H     0.86607   0.32844   0.69637   0.00000  Uiso   1.00
H1425  H     0.82733   0.25270   0.95605   0.00000  Uiso   1.00
H1426  H     0.78856   0.28307   0.67399   0.00000  Uiso   1.00
H1427  H     0.80115   0.22227   0.73397   0.00000  Uiso   1.00
H1428  H     0.83219   0.18413   0.67919   0.00000  Uiso   1.00
O1429  O     0.25326   0.42871   0.87326   0.00000  Uiso   1.00
O1430  O     0.24675   0.57129   0.79341   0.00000  Uiso   1.00
O1431  O     0.24480   0.41892   0.76945   0.00000  Uiso   1.00
O1432  O     0.25520   0.58108   0.89721   0.00000  Uiso   1.00
C1433  C     0.24662   0.40014   0.81800   0.00000  Uiso   1.00
C1434  C     0.25204   0.59976   0.84858   0.00000  Uiso   1.00
O1435  O     0.18936   0.50488   0.88524   0.00000  Uiso   1.00
O1436  O     0.31065   0.49512   0.78143   0.00000  Uiso   1.00
O1437  O     0.18090   0.49510   0.78143   0.00000  Uiso   1.00
O1438  O     0.31910   0.50490   0.88523   0.00000  Uiso   1.00
C1439  C     0.16471   0.49858   0.83362   0.00000  Uiso   1.00
C1440  C     0.33544   0.50309   0.83326   0.00000  Uiso   1.00
Cu1441 Cu    0.25501   0.50579   0.89479   0.00000  Uiso   1.00
Cu1442 Cu    0.24500   0.49421   0.77187   0.00000  Uiso   1.00
C1443  C     0.41264   0.54993   0.86007   0.00000  Uiso   1.00
C1444  C     0.08763   0.45348   0.80942   0.00000  Uiso   1.00
C1445  C     0.38394   0.50471   0.83231   0.00000  Uiso   1.00
C1446  C     0.11654   0.49867   0.83462   0.00000  Uiso   1.00
C1447  C     0.40117   0.45950   0.80571   0.00000  Uiso   1.00
C1448  C     0.09991   0.54461   0.85996   0.00000  Uiso   1.00
C1449  C     0.44758   0.45696   0.81031   0.00000  Uiso   1.00
C1450  C     0.05343   0.54714   0.85860   0.00000  Uiso   1.00
C1451  C     0.47715   0.50302   0.83501   0.00000  Uiso   1.00
C1452  C     0.02366   0.50105   0.83472   0.00000  Uiso   1.00
C1453  C     0.45990   0.55068   0.86013   0.00000  Uiso   1.00
C1454  C     0.04071   0.45312   0.81016   0.00000  Uiso   1.00
C1455  C     0.46428   0.40862   0.79088   0.00000  Uiso   1.00
C1456  C     0.03684   0.59516   0.88096   0.00000  Uiso   1.00
C1457  C     0.01101   0.40607   0.78815   0.00000  Uiso   1.00
C1458  C     0.48985   0.59750   0.88401   0.00000  Uiso   1.00
H1459  H     0.39728   0.58420   0.88006   0.00000  Uiso   1.00
H1460  H     0.10264   0.41882   0.79070   0.00000  Uiso   1.00
H1461  H     0.37765   0.42588   0.78285   0.00000  Uiso   1.00
H1462  H     0.12412   0.57825   0.87986   0.00000  Uiso   1.00
C1463  C     0.23883   0.34394   0.81160   0.00000  Uiso   1.00
C1464  C     0.25891   0.65581   0.85474   0.00000  Uiso   1.00
N1465  N     0.23745   0.48547   0.67951   0.00000  Uiso   1.00
N1466  N     0.26256   0.51453   0.98716   0.00000  Uiso   1.00
O1467  O     0.43500   0.36356   0.77664   0.00000  Uiso   1.00
H1468  H     0.41366   0.36593   0.80794   0.00000  Uiso   1.00
O1469  O     0.06671   0.63981   0.89992   0.00000  Uiso   1.00
H1470  H     0.08754   0.64083   0.86846   0.00000  Uiso   1.00
C1471  C     0.03095   0.35451   0.76523   0.00000  Uiso   1.00
C1472  C     0.49874   0.63709   0.74121   0.00000  Uiso   1.00
C1473  C     0.02346   0.59065   0.71548   0.00000  Uiso   1.00
H1474  H     0.03940   0.59637   0.67496   0.00000  Uiso   1.00
H1475  H     0.04940   0.58524   0.74981   0.00000  Uiso   1.00
H1476  H     0.49908   0.55476   0.70186   0.00000  Uiso   1.00
H1477  H     0.48036   0.62760   0.77815   0.00000  Uiso   1.00
H1478  H     0.47439   0.64158   0.70476   0.00000  Uiso   1.00
H1479  H     0.05165   0.35941   0.72857   0.00000  Uiso   1.00
H1480  H     0.05406   0.34859   0.80230   0.00000  Uiso   1.00
C1481  C     0.46994   0.64882   0.90867   0.00000  Uiso   1.00
C1482  C     0.00275   0.36573   0.93318   0.00000  Uiso   1.00
C1483  C     0.47896   0.41283   0.95848   0.00000  Uiso   1.00
H1484  H     0.45695   0.42116   0.92189   0.00000  Uiso   1.00
H1485  H     0.45923   0.40595   0.99555   0.00000  Uiso   1.00
H1486  H     0.00432   0.44735   0.97686   0.00000  Uiso   1.00
H1487  H     0.02642   0.36070   0.97000   0.00000  Uiso   1.00
H1488  H     0.02171   0.37501   0.89656   0.00000  Uiso   1.00
H1489  H     0.44685   0.65562   0.87212   0.00000  Uiso   1.00
H1490  H     0.44906   0.64339   0.94520   0.00000  Uiso   1.00
C1491  C     0.20355   0.64489   0.76093   0.00000  Uiso   1.00
C1492  C     0.17401   0.34249   0.72807   0.00000  Uiso   1.00
C1493  C     0.13422   0.64164   0.68896   0.00000  Uiso   1.00
H1494  H     0.14605   0.61722   0.98176   0.00000  Uiso   1.00
H1495  H     0.11644   0.61672   0.71452   0.00000  Uiso   1.00
H1496  H     0.11073   0.33335   0.67372   0.00000  Uiso   1.00
H1497  H     0.16111   0.37361   0.76148   0.00000  Uiso   1.00
H1498  H     0.19416   0.35946   0.69718   0.00000  Uiso   1.00
H1499  H     0.22077   0.61963   0.72605   0.00000  Uiso   1.00
H1500  H     0.18043   0.62015   0.78148   0.00000  Uiso   1.00
C1501  C     0.29142   0.35289   0.90890   0.00000  Uiso   1.00
C1502  C     0.33564   0.37653   0.89110   0.00000  Uiso   1.00
C1503  C     0.36316   0.41248   0.94638   0.00000  Uiso   1.00
H1504  H     0.34113   0.43442   0.97716   0.00000  Uiso   1.00
H1505  H     0.38208   0.38920   0.97152   0.00000  Uiso   1.00
H1506  H     0.38675   0.44113   0.93231   0.00000  Uiso   1.00
H1507  H     0.35551   0.34478   0.87104   0.00000  Uiso   1.00
H1508  H     0.32958   0.39887   0.85689   0.00000  Uiso   1.00
H1509  H     0.27415   0.38164   0.93979   0.00000  Uiso   1.00
H1510  H     0.30171   0.66082   0.93757   0.00000  Uiso   1.00
C1511  C     0.19176   0.46578   0.98640   0.00000  Uiso   1.00
C1512  C     0.15876   0.50816   0.99714   0.00000  Uiso   1.00
C1513  C     0.10972   0.48355   0.98397   0.00000  Uiso   1.00
H1514  H     0.10381   0.45742   0.93797   0.00000  Uiso   1.00
H1515  H     0.10133   0.46052   0.68382   0.00000  Uiso   1.00
H1516  H     0.08701   0.51446   0.98724   0.00000  Uiso   1.00
H1517  H     0.16348   0.53375   0.70942   0.00000  Uiso   1.00
H1518  H     0.16455   0.53749   0.97136   0.00000  Uiso   1.00
H1519  H     0.19084   0.44354   0.93912   0.00000  Uiso   1.00
H1520  H     0.17957   0.43576   0.67624   0.00000  Uiso   1.00
C1521  C     0.30459   0.54230   0.68650   0.00000  Uiso   1.00
C1522  C     0.31755   0.59322   0.66919   0.00000  Uiso   1.00
C1523  C     0.35769   0.62509   0.71033   0.00000  Uiso   1.00
H1524  H     0.34940   0.63501   0.75786   0.00000  Uiso   1.00
H1525  H     0.38743   0.60301   0.70699   0.00000  Uiso   1.00
H1526  H     0.36607   0.66177   0.69637   0.00000  Uiso   1.00
H1527  H     0.32733   0.58603   0.95605   0.00000  Uiso   1.00
H1528  H     0.28856   0.61640   0.67399   0.00000  Uiso   1.00
H1529  H     0.30115   0.55560   0.73397   0.00000  Uiso   1.00
H1530  H     0.33219   0.51746   0.67919   0.00000  Uiso   1.00
O1531  O     0.75326   0.42871   0.87326   0.00000  Uiso   1.00
O1532  O     0.74675   0.57129   0.79341   0.00000  Uiso   1.00
O1533  O     0.74480   0.41892   0.76945   0.00000  Uiso   1.00
O1534  O     0.75520   0.58108   0.89721   0.00000  Uiso   1.00
C1535  C     0.74662   0.40014   0.81800   0.00000  Uiso   1.00
C1536  C     0.75204   0.59976   0.84858   0.00000  Uiso   1.00
O1537  O     0.68936   0.50488   0.88524   0.00000  Uiso   1.00
O1538  O     0.81065   0.49512   0.78143   0.00000  Uiso   1.00
O1539  O     0.68090   0.49510   0.78143   0.00000  Uiso   1.00
O1540  O     0.81910   0.50490   0.88523   0.00000  Uiso   1.00
C1541  C     0.66471   0.49858   0.83362   0.00000  Uiso   1.00
C1542  C     0.83544   0.50309   0.83326   0.00000  Uiso   1.00
Cu1543 Cu    0.75501   0.50579   0.89479   0.00000  Uiso   1.00
Cu1544 Cu    0.74500   0.49421   0.77187   0.00000  Uiso   1.00
C1545  C     0.91264   0.54993   0.86007   0.00000  Uiso   1.00
C1546  C     0.58763   0.45348   0.80942   0.00000  Uiso   1.00
C1547  C     0.88394   0.50471   0.83231   0.00000  Uiso   1.00
C1548  C     0.61654   0.49867   0.83462   0.00000  Uiso   1.00
C1549  C     0.90117   0.45950   0.80571   0.00000  Uiso   1.00
C1550  C     0.59991   0.54461   0.85996   0.00000  Uiso   1.00
C1551  C     0.94758   0.45696   0.81031   0.00000  Uiso   1.00
C1552  C     0.55343   0.54714   0.85860   0.00000  Uiso   1.00
C1553  C     0.97715   0.50302   0.83501   0.00000  Uiso   1.00
C1554  C     0.52366   0.50105   0.83472   0.00000  Uiso   1.00
C1555  C     0.95990   0.55068   0.86013   0.00000  Uiso   1.00
C1556  C     0.54071   0.45312   0.81016   0.00000  Uiso   1.00
C1557  C     0.96428   0.40862   0.79088   0.00000  Uiso   1.00
C1558  C     0.53684   0.59516   0.88096   0.00000  Uiso   1.00
C1559  C     0.51101   0.40607   0.78815   0.00000  Uiso   1.00
C1560  C     0.98985   0.59750   0.88401   0.00000  Uiso   1.00
H1561  H     0.89728   0.58420   0.88006   0.00000  Uiso   1.00
H1562  H     0.60264   0.41882   0.79070   0.00000  Uiso   1.00
H1563  H     0.87765   0.42588   0.78285   0.00000  Uiso   1.00
H1564  H     0.62412   0.57825   0.87986   0.00000  Uiso   1.00
C1565  C     0.73883   0.34394   0.81160   0.00000  Uiso   1.00
C1566  C     0.75891   0.65581   0.85474   0.00000  Uiso   1.00
N1567  N     0.73745   0.48547   0.67951   0.00000  Uiso   1.00
N1568  N     0.76256   0.51453   0.98716   0.00000  Uiso   1.00
O1569  O     0.93500   0.36356   0.77664   0.00000  Uiso   1.00
H1570  H     0.91366   0.36593   0.80794   0.00000  Uiso   1.00
O1571  O     0.56671   0.63981   0.89992   0.00000  Uiso   1.00
H1572  H     0.58754   0.64083   0.86846   0.00000  Uiso   1.00
C1573  C     0.53095   0.35451   0.76523   0.00000  Uiso   1.00
C1574  C     0.99874   0.63709   0.74121   0.00000  Uiso   1.00
C1575  C     0.52346   0.59065   0.71548   0.00000  Uiso   1.00
H1576  H     0.53940   0.59637   0.67496   0.00000  Uiso   1.00
H1577  H     0.54940   0.58524   0.74981   0.00000  Uiso   1.00
H1578  H     0.99908   0.55476   0.70186   0.00000  Uiso   1.00
H1579  H     0.98036   0.62760   0.77815   0.00000  Uiso   1.00
H1580  H     0.97439   0.64158   0.70476   0.00000  Uiso   1.00
H1581  H     0.55165   0.35941   0.72857   0.00000  Uiso   1.00
H1582  H     0.55406   0.34859   0.80230   0.00000  Uiso   1.00
C1583  C     0.96994   0.64882   0.90867   0.00000  Uiso   1.00
C1584  C     0.50275   0.36573   0.93318   0.00000  Uiso   1.00
C1585  C     0.97896   0.41283   0.95848   0.00000  Uiso   1.00
H1586  H     0.95695   0.42116   0.92189   0.00000  Uiso   1.00
H1587  H     0.95923   0.40595   0.99555   0.00000  Uiso   1.00
H1588  H     0.50432   0.44735   0.97686   0.00000  Uiso   1.00
H1589  H     0.52642   0.36070   0.97000   0.00000  Uiso   1.00
H1590  H     0.52171   0.37501   0.89656   0.00000  Uiso   1.00
H1591  H     0.94685   0.65562   0.87212   0.00000  Uiso   1.00
H1592  H     0.94906   0.64339   0.94520   0.00000  Uiso   1.00
C1593  C     0.70355   0.64489   0.76093   0.00000  Uiso   1.00
C1594  C     0.67401   0.34249   0.72807   0.00000  Uiso   1.00
C1595  C     0.63422   0.64164   0.68896   0.00000  Uiso   1.00
H1596  H     0.64605   0.61722   0.98176   0.00000  Uiso   1.00
H1597  H     0.61644   0.61672   0.71452   0.00000  Uiso   1.00
H1598  H     0.61073   0.33335   0.67372   0.00000  Uiso   1.00
H1599  H     0.66111   0.37361   0.76148   0.00000  Uiso   1.00
H1600  H     0.69416   0.35946   0.69718   0.00000  Uiso   1.00
H1601  H     0.72077   0.61963   0.72605   0.00000  Uiso   1.00
H1602  H     0.68043   0.62015   0.78148   0.00000  Uiso   1.00
C1603  C     0.79142   0.35289   0.90890   0.00000  Uiso   1.00
C1604  C     0.83564   0.37653   0.89110   0.00000  Uiso   1.00
C1605  C     0.86316   0.41248   0.94638   0.00000  Uiso   1.00
H1606  H     0.84113   0.43442   0.97716   0.00000  Uiso   1.00
H1607  H     0.88208   0.38920   0.97152   0.00000  Uiso   1.00
H1608  H     0.88675   0.44113   0.93231   0.00000  Uiso   1.00
H1609  H     0.85551   0.34478   0.87104   0.00000  Uiso   1.00
H1610  H     0.82958   0.39887   0.85689   0.00000  Uiso   1.00
H1611  H     0.77415   0.38164   0.93979   0.00000  Uiso   1.00
H1612  H     0.80171   0.66082   0.93757   0.00000  Uiso   1.00
C1613  C     0.69176   0.46578   0.98640   0.00000  Uiso   1.00
C1614  C     0.65876   0.50816   0.99714   0.00000  Uiso   1.00
C1615  C     0.60972   0.48355   0.98397   0.00000  Uiso   1.00
H1616  H     0.60381   0.45742   0.93797   0.00000  Uiso   1.00
H1617  H     0.60133   0.46052   0.68382   0.00000  Uiso   1.00
H1618  H     0.58701   0.51446   0.98724   0.00000  Uiso   1.00
H1619  H     0.66348   0.53375   0.70942   0.00000  Uiso   1.00
H1620  H     0.66455   0.53749   0.97136   0.00000  Uiso   1.00
H1621  H     0.69084   0.44354   0.93912   0.00000  Uiso   1.00
H1622  H     0.67957   0.43576   0.67624   0.00000  Uiso   1.00
C1623  C     0.80459   0.54230   0.68650   0.00000  Uiso   1.00
C1624  C     0.81755   0.59322   0.66919   0.00000  Uiso   1.00
C1625  C     0.85769   0.62509   0.71033   0.00000  Uiso   1.00
H1626  H     0.84940   0.63501   0.75786   0.00000  Uiso   1.00
H1627  H     0.88743   0.60301   0.70699   0.00000  Uiso   1.00
H1628  H     0.86607   0.66177   0.69637   0.00000  Uiso   1.00
H1629  H     0.82733   0.58603   0.95605   0.00000  Uiso   1.00
H1630  H     0.78856   0.61640   0.67399   0.00000  Uiso   1.00
H1631  H     0.80115   0.55560   0.73397   0.00000  Uiso   1.00
H1632  H     0.83219   0.51746   0.67919   0.00000  Uiso   1.00
O1633  O     0.25326   0.76204   0.87326   0.00000  Uiso   1.00
O1634  O     0.24675   0.90462   0.79341   0.00000  Uiso   1.00
O1635  O     0.24480   0.75226   0.76945   0.00000  Uiso   1.00
O1636  O     0.25520   0.91441   0.89721   0.00000  Uiso   1.00
C1637  C     0.24662   0.73348   0.81800   0.00000  Uiso   1.00
C1638  C     0.25204   0.93309   0.84858   0.00000  Uiso   1.00
O1639  O     0.18936   0.83821   0.88524   0.00000  Uiso   1.00
O1640  O     0.31065   0.82845   0.78143   0.00000  Uiso   1.00
O1641  O     0.18090   0.82843   0.78143   0.00000  Uiso   1.00
O1642  O     0.31910   0.83824   0.88523   0.00000  Uiso   1.00
C1643  C     0.16471   0.83191   0.83362   0.00000  Uiso   1.00
C1644  C     0.33544   0.83642   0.83326   0.00000  Uiso   1.00
Cu1645 Cu    0.25501   0.83913   0.89479   0.00000  Uiso   1.00
Cu1646 Cu    0.24500   0.82754   0.77187   0.00000  Uiso   1.00
C1647  C     0.41264   0.88326   0.86007   0.00000  Uiso   1.00
C1648  C     0.08763   0.78681   0.80942   0.00000  Uiso   1.00
C1649  C     0.38394   0.83805   0.83231   0.00000  Uiso   1.00
C1650  C     0.11654   0.83201   0.83462   0.00000  Uiso   1.00
C1651  C     0.40117   0.79283   0.80571   0.00000  Uiso   1.00
C1652  C     0.09991   0.87795   0.85996   0.00000  Uiso   1.00
C1653  C     0.44758   0.79029   0.81031   0.00000  Uiso   1.00
C1654  C     0.05343   0.88048   0.85860   0.00000  Uiso   1.00
C1655  C     0.47715   0.83635   0.83501   0.00000  Uiso   1.00
C1656  C     0.02366   0.83438   0.83472   0.00000  Uiso   1.00
C1657  C     0.45990   0.88402   0.86013   0.00000  Uiso   1.00
C1658  C     0.04071   0.78645   0.81016   0.00000  Uiso   1.00
C1659  C     0.46428   0.74195   0.79088   0.00000  Uiso   1.00
C1660  C     0.03684   0.92849   0.88096   0.00000  Uiso   1.00
C1661  C     0.01101   0.73941   0.78815   0.00000  Uiso   1.00
C1662  C     0.48985   0.93083   0.88401   0.00000  Uiso   1.00
H1663  H     0.39728   0.91753   0.88006   0.00000  Uiso   1.00
H1664  H     0.10264   0.75215   0.79070   0.00000  Uiso   1.00
H1665  H     0.37765   0.75922   0.78285   0.00000  Uiso   1.00
H1666  H     0.12412   0.91159   0.87986   0.00000  Uiso   1.00
C1667  C     0.23883   0.67727   0.81160   0.00000  Uiso   1.00
C1668  C     0.25891   0.98914   0.85474   0.00000  Uiso   1.00
N1669  N     0.23745   0.81881   0.67951   0.00000  Uiso   1.00
N1670  N     0.26256   0.84786   0.98716   0.00000  Uiso   1.00
O1671  O     0.43500   0.69689   0.77664   0.00000  Uiso   1.00
H1672  H     0.41366   0.69926   0.80794   0.00000  Uiso   1.00
O1673  O     0.06671   0.97315   0.89992   0.00000  Uiso   1.00
H1674  H     0.08754   0.97416   0.86846   0.00000  Uiso   1.00
C1675  C     0.03095   0.68784   0.76523   0.00000  Uiso   1.00
C1676  C     0.49874   0.97043   0.74121   0.00000  Uiso   1.00
C1677  C     0.02346   0.92398   0.71548   0.00000  Uiso   1.00
H1678  H     0.03940   0.92970   0.67496   0.00000  Uiso   1.00
H1679  H     0.04940   0.91857   0.74981   0.00000  Uiso   1.00
H1680  H     0.49908   0.88809   0.70186   0.00000  Uiso   1.00
H1681  H     0.48036   0.96093   0.77815   0.00000  Uiso   1.00
H1682  H     0.47439   0.97492   0.70476   0.00000  Uiso   1.00
H1683  H     0.05165   0.69275   0.72857   0.00000  Uiso   1.00
H1684  H     0.05406   0.68192   0.80230   0.00000  Uiso   1.00
C1685  C     0.46994   0.98215   0.90867   0.00000  Uiso   1.00
C1686  C     0.00275   0.69906   0.93318   0.00000  Uiso   1.00
C1687  C     0.47896   0.74616   0.95848   0.00000  Uiso   1.00
H1688  H     0.45695   0.75449   0.92189   0.00000  Uiso   1.00
H1689  H     0.45923   0.73928   0.99555   0.00000  Uiso   1.00
H1690  H     0.00432   0.78068   0.97686   0.00000  Uiso   1.00
H1691  H     0.02642   0.69404   0.97000   0.00000  Uiso   1.00
H1692  H     0.02171   0.70835   0.89656   0.00000  Uiso   1.00
H1693  H     0.44685   0.98895   0.87212   0.00000  Uiso   1.00
H1694  H     0.44906   0.97673   0.94520   0.00000  Uiso   1.00
C1695  C     0.20355   0.97822   0.76093   0.00000  Uiso   1.00
C1696  C     0.17401   0.67582   0.72807   0.00000  Uiso   1.00
C1697  C     0.13422   0.97497   0.68896   0.00000  Uiso   1.00
H1698  H     0.14605   0.95055   0.98176   0.00000  Uiso   1.00
H1699  H     0.11644   0.95006   0.71452   0.00000  Uiso   1.00
H1700  H     0.11073   0.66669   0.67372   0.00000  Uiso   1.00
H1701  H     0.16111   0.70694   0.76148   0.00000  Uiso   1.00
H1702  H     0.19416   0.69279   0.69718   0.00000  Uiso   1.00
H1703  H     0.22077   0.95296   0.72605   0.00000  Uiso   1.00
H1704  H     0.18043   0.95349   0.78148   0.00000  Uiso   1.00
C1705  C     0.29142   0.68622   0.90890   0.00000  Uiso   1.00
C1706  C     0.33564   0.70987   0.89110   0.00000  Uiso   1.00
C1707  C     0.36316   0.74581   0.94638   0.00000  Uiso   1.00
H1708  H     0.34113   0.76775   0.97716   0.00000  Uiso   1.00
H1709  H     0.38208   0.72254   0.97152   0.00000  Uiso   1.00
H1710  H     0.38675   0.77446   0.93231   0.00000  Uiso   1.00
H1711  H     0.35551   0.67811   0.87104   0.00000  Uiso   1.00
H1712  H     0.32958   0.73221   0.85689   0.00000  Uiso   1.00
H1713  H     0.27415   0.71498   0.93979   0.00000  Uiso   1.00
H1714  H     0.30171   0.99415   0.93757   0.00000  Uiso   1.00
C1715  C     0.19176   0.79911   0.98640   0.00000  Uiso   1.00
C1716  C     0.15876   0.84149   0.99714   0.00000  Uiso   1.00
C1717  C     0.10972   0.81689   0.98397   0.00000  Uiso   1.00
H1718  H     0.10381   0.79076   0.93797   0.00000  Uiso   1.00
H1719  H     0.10133   0.79386   0.68382   0.00000  Uiso   1.00
H1720  H     0.08701   0.84779   0.98724   0.00000  Uiso   1.00
H1721  H     0.16348   0.86708   0.70942   0.00000  Uiso   1.00
H1722  H     0.16455   0.87083   0.97136   0.00000  Uiso   1.00
H1723  H     0.19084   0.77687   0.93912   0.00000  Uiso   1.00
H1724  H     0.17957   0.76910   0.67624   0.00000  Uiso   1.00
C1725  C     0.30459   0.87564   0.68650   0.00000  Uiso   1.00
C1726  C     0.31755   0.92656   0.66919   0.00000  Uiso   1.00
C1727  C     0.35769   0.95842   0.71033   0.00000  Uiso   1.00
H1728  H     0.34940   0.96834   0.75786   0.00000  Uiso   1.00
H1729  H     0.38743   0.93635   0.70699   0.00000  Uiso   1.00
H1730  H     0.36607   0.99511   0.69637   0.00000  Uiso   1.00
H1731  H     0.32733   0.91937   0.95605   0.00000  Uiso   1.00
H1732  H     0.28856   0.94973   0.67399   0.00000  Uiso   1.00
H1733  H     0.30115   0.88894   0.73397   0.00000  Uiso   1.00
H1734  H     0.33219   0.85079   0.67919   0.00000  Uiso   1.00
O1735  O     0.75326   0.76204   0.87326   0.00000  Uiso   1.00
O1736  O     0.74675   0.90462   0.79341   0.00000  Uiso   1.00
O1737  O     0.74480   0.75226   0.76945   0.00000  Uiso   1.00
O1738  O     0.75520   0.91441   0.89721   0.00000  Uiso   1.00
C1739  C     0.74662   0.73348   0.81800   0.00000  Uiso   1.00
C1740  C     0.75204   0.93309   0.84858   0.00000  Uiso   1.00
O1741  O     0.68936   0.83821   0.88524   0.00000  Uiso   1.00
O1742  O     0.81065   0.82845   0.78143   0.00000  Uiso   1.00
O1743  O     0.68090   0.82843   0.78143   0.00000  Uiso   1.00
O1744  O     0.81910   0.83824   0.88523   0.00000  Uiso   1.00
C1745  C     0.66471   0.83191   0.83362   0.00000  Uiso   1.00
C1746  C     0.83544   0.83642   0.83326   0.00000  Uiso   1.00
Cu1747 Cu    0.75501   0.83913   0.89479   0.00000  Uiso   1.00
Cu1748 Cu    0.74500   0.82754   0.77187   0.00000  Uiso   1.00
C1749  C     0.91264   0.88326   0.86007   0.00000  Uiso   1.00
C1750  C     0.58763   0.78681   0.80942   0.00000  Uiso   1.00
C1751  C     0.88394   0.83805   0.83231   0.00000  Uiso   1.00
C1752  C     0.61654   0.83201   0.83462   0.00000  Uiso   1.00
C1753  C     0.90117   0.79283   0.80571   0.00000  Uiso   1.00
C1754  C     0.59991   0.87795   0.85996   0.00000  Uiso   1.00
C1755  C     0.94758   0.79029   0.81031   0.00000  Uiso   1.00
C1756  C     0.55343   0.88048   0.85860   0.00000  Uiso   1.00
C1757  C     0.97715   0.83635   0.83501   0.00000  Uiso   1.00
C1758  C     0.52366   0.83438   0.83472   0.00000  Uiso   1.00
C1759  C     0.95990   0.88402   0.86013   0.00000  Uiso   1.00
C1760  C     0.54071   0.78645   0.81016   0.00000  Uiso   1.00
C1761  C     0.96428   0.74195   0.79088   0.00000  Uiso   1.00
C1762  C     0.53684   0.92849   0.88096   0.00000  Uiso   1.00
C1763  C     0.51101   0.73941   0.78815   0.00000  Uiso   1.00
C1764  C     0.98985   0.93083   0.88401   0.00000  Uiso   1.00
H1765  H     0.89728   0.91753   0.88006   0.00000  Uiso   1.00
H1766  H     0.60264   0.75215   0.79070   0.00000  Uiso   1.00
H1767  H     0.87765   0.75922   0.78285   0.00000  Uiso   1.00
H1768  H     0.62412   0.91159   0.87986   0.00000  Uiso   1.00
C1769  C     0.73883   0.67727   0.81160   0.00000  Uiso   1.00
C1770  C     0.75891   0.98914   0.85474   0.00000  Uiso   1.00
N1771  N     0.73745   0.81881   0.67951   0.00000  Uiso   1.00
N1772  N     0.76256   0.84786   0.98716   0.00000  Uiso   1.00
O1773  O     0.93500   0.69689   0.77664   0.00000  Uiso   1.00
H1774  H     0.91366   0.69926   0.80794   0.00000  Uiso   1.00
O1775  O     0.56671   0.97315   0.89992   0.00000  Uiso   1.00
H1776  H     0.58754   0.97416   0.86846   0.00000  Uiso   1.00
C1777  C     0.53095   0.68784   0.76523   0.00000  Uiso   1.00
C1778  C     0.99874   0.97043   0.74121   0.00000  Uiso   1.00
C1779  C     0.52346   0.92398   0.71548   0.00000  Uiso   1.00
H1780  H     0.53940   0.92970   0.67496   0.00000  Uiso   1.00
H1781  H     0.54940   0.91857   0.74981   0.00000  Uiso   1.00
H1782  H     0.99908   0.88809   0.70186   0.00000  Uiso   1.00
H1783  H     0.98036   0.96093   0.77815   0.00000  Uiso   1.00
H1784  H     0.97439   0.97492   0.70476   0.00000  Uiso   1.00
H1785  H     0.55165   0.69275   0.72857   0.00000  Uiso   1.00
H1786  H     0.55406   0.68192   0.80230   0.00000  Uiso   1.00
C1787  C     0.96994   0.98215   0.90867   0.00000  Uiso   1.00
C1788  C     0.50275   0.69906   0.93318   0.00000  Uiso   1.00
C1789  C     0.97896   0.74616   0.95848   0.00000  Uiso   1.00
H1790  H     0.95695   0.75449   0.92189   0.00000  Uiso   1.00
H1791  H     0.95923   0.73928   0.99555   0.00000  Uiso   1.00
H1792  H     0.50432   0.78068   0.97686   0.00000  Uiso   1.00
H1793  H     0.52642   0.69404   0.97000   0.00000  Uiso   1.00
H1794  H     0.52171   0.70835   0.89656   0.00000  Uiso   1.00
H1795  H     0.94685   0.98895   0.87212   0.00000  Uiso   1.00
H1796  H     0.94906   0.97673   0.94520   0.00000  Uiso   1.00
C1797  C     0.70355   0.97822   0.76093   0.00000  Uiso   1.00
C1798  C     0.67401   0.67582   0.72807   0.00000  Uiso   1.00
C1799  C     0.63422   0.97497   0.68896   0.00000  Uiso   1.00
H1800  H     0.64605   0.95055   0.98176   0.00000  Uiso   1.00
H1801  H     0.61644   0.95006   0.71452   0.00000  Uiso   1.00
H1802  H     0.61073   0.66669   0.67372   0.00000  Uiso   1.00
H1803  H     0.66111   0.70694   0.76148   0.00000  Uiso   1.00
H1804  H     0.69416   0.69279   0.69718   0.00000  Uiso   1.00
H1805  H     0.72077   0.95296   0.72605   0.00000  Uiso   1.00
H1806  H     0.68043   0.95349   0.78148   0.00000  Uiso   1.00
C1807  C     0.79142   0.68622   0.90890   0.00000  Uiso   1.00
C1808  C     0.83564   0.70987   0.89110   0.00000  Uiso   1.00
C1809  C     0.86316   0.74581   0.94638   0.00000  Uiso   1.00
H1810  H     0.84113   0.76775   0.97716   0.00000  Uiso   1.00
H1811  H     0.88208   0.72254   0.97152   0.00000  Uiso   1.00
H1812  H     0.88675   0.77446   0.93231   0.00000  Uiso   1.00
H1813  H     0.85551   0.67811   0.87104   0.00000  Uiso   1.00
H1814  H     0.82958   0.73221   0.85689   0.00000  Uiso   1.00
H1815  H     0.77415   0.71498   0.93979   0.00000  Uiso   1.00
H1816  H     0.80171   0.99415   0.93757   0.00000  Uiso   1.00
C1817  C     0.69176   0.79911   0.98640   0.00000  Uiso   1.00
C1818  C     0.65876   0.84149   0.99714   0.00000  Uiso   1.00
C1819  C     0.60972   0.81689   0.98397   0.00000  Uiso   1.00
H1820  H     0.60381   0.79076   0.93797   0.00000  Uiso   1.00
H1821  H     0.60133   0.79386   0.68382   0.00000  Uiso   1.00
H1822  H     0.58701   0.84779   0.98724   0.00000  Uiso   1.00
H1823  H     0.66348   0.86708   0.70942   0.00000  Uiso   1.00
H1824  H     0.66455   0.87083   0.97136   0.00000  Uiso   1.00
H1825  H     0.69084   0.77687   0.93912   0.00000  Uiso   1.00
H1826  H     0.67957   0.76910   0.67624   0.00000  Uiso   1.00
C1827  C     0.80459   0.87564   0.68650   0.00000  Uiso   1.00
C1828  C     0.81755   0.92656   0.66919   0.00000  Uiso   1.00
C1829  C     0.85769   0.95842   0.71033   0.00000  Uiso   1.00
H1830  H     0.84940   0.96834   0.75786   0.00000  Uiso   1.00
H1831  H     0.88743   0.93635   0.70699   0.00000  Uiso   1.00
H1832  H     0.86607   0.99511   0.69637   0.00000  Uiso   1.00
H1833  H     0.82733   0.91937   0.95605   0.00000  Uiso   1.00
H1834  H     0.78856   0.94973   0.67399   0.00000  Uiso   1.00
H1835  H     0.80115   0.88894   0.73397   0.00000  Uiso   1.00
H1836  H     0.83219   0.85079   0.67919   0.00000  Uiso   1.00
loop_
_geom_bond_atom_site_label_1
_geom_bond_atom_site_label_2
_geom_bond_distance
_geom_bond_site_symmetry_2
_ccdc_geom_bond_type
O1     C5      1.305   .     A
O1     Cu13    1.988   .     S
O2     C6      1.302   .     A
O2     Cu14    1.988   .     S
O3     Cu14    1.990   .     S
O3     C5      1.322   .     A
O4     Cu13    1.990   .     S
O4     C6      1.324   .     A
C5     C35     1.461   .     S
C6     C36     1.457   .     S
O7     C11     1.315   .     A
O7     Cu13    1.961   .     S
O8     C12     1.316   .     A
O8     Cu14    1.961   .     S
O9     Cu14    1.951   .     S
O9     C11     1.309   .     A
O10    C12     1.313   .     A
O10    Cu13    1.951   .     S
C11    C18     1.446   .     S
C12    C17     1.451   .     S
Cu13   Cu14    2.752   .     S
Cu13   N38     2.068   .     S
Cu14   N37     2.068   .     S
C15    C25     1.414   .     A
C15    C17     1.397   .     A
C15    H31     1.081   .     S
C16    C26     1.407   .     A
C16    H32     1.077   .     S
C16    C18     1.388   .     A
C17    C19     1.381   .     A
C18    C20     1.381   .     A
C19    C21     1.396   .     A
C19    H33     1.084   .     S
C20    H34     1.081   .     S
C20    C22     1.400   .     A
C21    C27     1.411   .     A
C21    C23     1.413   .     A
C22    C28     1.412   .     A
C22    C24     1.414   .     A
C23    C25     1.427   .     A
C23    C126    1.400   .     S
C24    C26     1.427   .     A
C24    C125    1.400   1_455 S
C25    C30     1.430   .     A
C26    C29     1.426   .     A
C27    O39     1.372   .     S
C27    C131    1.414   .     S
C28    O41     1.376   .     S
C28    C132    1.422   1_455 S
C29    C43     1.544   .     S
C29    C129    1.414   1_455 S
C30    C53     1.544   .     S
C30    C130    1.422   .     S
C35    C444    1.383   1_545 S
C35    C471    1.544   1_545 S
C36    C239    1.383   .     S
C36    C277    1.531   .     S
N37    N1262   1.294   1_554 S
N37    C1307   1.451   1_554 S
N38    N649    1.294   .     S
N38    C705    1.454   .     S
O39    H40     0.990   .     S
O41    H42     0.991   .     S
C43    H52     1.107   .     S
C43    H51     1.104   .     S
C43    C554    1.542   1_445 S
C44    H49     1.106   .     S
C44    H50     1.105   .     S
C44    C349    1.542   .     S
C44    C147    1.524   .     S
C45    H47     1.109   .     S
C45    H46     1.109   .     S
C45    C146    1.524   1_455 S
C45    H150    1.111   1_455 S
H48    C147    1.111   .     S
C53    H61     1.107   .     S
C53    H62     1.108   .     S
C53    C360    1.543   .     S
C54    H60     1.108   .     S
C54    H59     1.104   .     S
C54    C563    1.543   1_445 S
C54    C157    1.519   1_455 S
C55    H56     1.106   .     S
C55    H57     1.108   .     S
C55    C156    1.519   .     S
C55    H160    1.111   .     S
H58    C157    1.111   1_455 S
C63    H71     1.110   .     S
C63    H72     1.113   .     S
C63    C239    1.544   .     S
C63    C268    1.538   .     S
C64    H70     1.108   .     S
C64    H69     1.108   .     S
C64    C471    1.538   1_545 S
C64    C473    1.517   1_545 S
C65    H67     1.107   .     S
C65    C268    1.517   .     S
C65    H1290   1.104   1_554 S
C65    H272    1.108   .     S
H66    C677    1.104   .     S
H68    C473    1.108   1_545 S
C73    C74     1.534   .     S
C73    H81     1.109   .     S
C73    C444    1.531   1_545 S
C73    H490    1.097   1_545 S
C74    C75     1.525   .     S
C74    H79     1.112   .     S
C74    H80     1.105   .     S
C75    H76     1.106   .     S
C75    H77     1.107   .     S
C75    H78     1.108   .     S
H82    C277    1.097   .     S
C83    C84     1.560   .     S
C83    H91     1.103   .     S
C83    N649    1.451   .     S
C83    H704    1.106   .     S
C84    H90     1.092   .     S
C84    C85     1.528   .     S
C84    H701    1.096   .     S
C85    H86     1.109   .     S
C85    H88     1.110   .     S
C85    H699    1.110   .     S
H87    C1309   1.110   1_554 S
H89    C1308   1.096   1_554 S
H92    C1307   1.106   1_554 S
C93    C94     1.522   .     S
C93    H101    1.078   .     S
C93    H102    1.106   .     S
C93    N1262   1.454   1_554 S
C94    H100    1.111   .     S
C94    C95     1.522   .     S
C94    H1323   1.103   1_554 S
C95    H96     1.111   .     S
C95    H98     1.108   .     S
C95    H97     1.112   .     S
H99    C706    1.103   .     S
O103   C107    1.305   .     A
O103   Cu115   1.988   .     S
O104   C108    1.302   .     A
O104   Cu116   1.988   .     S
O105   Cu116   1.990   .     S
O105   C107    1.322   .     A
O106   Cu115   1.990   .     S
O106   C108    1.324   .     A
C107   C137    1.461   .     S
C108   C138    1.457   .     S
O109   C113    1.315   .     A
O109   Cu115   1.961   .     S
O110   C114    1.316   .     A
O110   Cu116   1.961   .     S
O111   Cu116   1.951   .     S
O111   C113    1.309   .     A
O112   C114    1.313   .     A
O112   Cu115   1.951   .     S
C113   C120    1.446   .     S
C114   C119    1.451   .     S
Cu115  Cu116   2.752   .     S
Cu115  N140    2.068   .     S
Cu116  N139    2.068   .     S
C117   C127    1.414   .     A
C117   C119    1.397   .     A
C117   H133    1.081   .     S
C118   C128    1.407   .     A
C118   H134    1.077   .     S
C118   C120    1.388   .     A
C119   C121    1.381   .     A
C120   C122    1.381   .     A
C121   C123    1.396   .     A
C121   H135    1.084   .     S
C122   H136    1.081   .     S
C122   C124    1.400   .     A
C123   C129    1.411   .     A
C123   C125    1.413   .     A
C124   C130    1.412   .     A
C124   C126    1.414   .     A
C125   C127    1.427   .     A
C125   C24     1.400   1_655 S
C126   C128    1.427   .     A
C127   C132    1.430   .     A
C128   C131    1.426   .     A
C129   O141    1.372   .     S
C129   C29     1.414   1_655 S
C130   O143    1.376   .     S
C131   C145    1.544   .     S
C132   C155    1.544   .     S
C132   C28     1.422   1_655 S
C137   C546    1.383   1_545 S
C137   C573    1.544   1_545 S
C138   C341    1.383   .     S
C138   C379    1.531   .     S
N139   N1364   1.294   1_554 S
N139   C1409   1.451   1_554 S
N140   N751    1.294   .     S
N140   C807    1.454   .     S
O141   H142    0.990   .     S
O143   H144    0.991   .     S
C145   H154    1.107   .     S
C145   H153    1.104   .     S
C145   C452    1.542   1_545 S
C146   H151    1.106   .     S
C146   H152    1.105   .     S
C146   C247    1.542   1_655 S
C146   C45     1.524   1_655 S
C147   H149    1.109   .     S
C147   H148    1.109   .     S
H150   C45     1.111   1_655 S
C155   H163    1.107   .     S
C155   H164    1.108   .     S
C155   C258    1.543   1_655 S
C156   H162    1.108   .     S
C156   H161    1.104   .     S
C156   C461    1.543   1_545 S
C157   H158    1.106   .     S
C157   H159    1.108   .     S
C157   C54     1.519   1_655 S
C157   H58     1.111   1_655 S
C165   H173    1.110   .     S
C165   H174    1.113   .     S
C165   C341    1.544   .     S
C165   C370    1.538   .     S
C166   H172    1.108   .     S
C166   H171    1.108   .     S
C166   C573    1.538   1_545 S
C166   C575    1.517   1_545 S
C167   H169    1.107   .     S
C167   C370    1.517   .     S
C167   H1392   1.104   1_554 S
C167   H374    1.108   .     S
H168   C779    1.104   .     S
H170   C575    1.108   1_545 S
C175   C176    1.534   .     S
C175   H183    1.109   .     S
C175   C546    1.531   1_545 S
C175   H592    1.097   1_545 S
C176   C177    1.525   .     S
C176   H181    1.112   .     S
C176   H182    1.105   .     S
C177   H178    1.106   .     S
C177   H179    1.107   .     S
C177   H180    1.108   .     S
H184   C379    1.097   .     S
C185   C186    1.560   .     S
C185   H193    1.103   .     S
C185   N751    1.451   .     S
C185   H806    1.106   .     S
C186   H192    1.092   .     S
C186   C187    1.528   .     S
C186   H803    1.096   .     S
C187   H188    1.109   .     S
C187   H190    1.110   .     S
C187   H801    1.110   .     S
H189   C1411   1.110   1_554 S
H191   C1410   1.096   1_554 S
H194   C1409   1.106   1_554 S
C195   C196    1.522   .     S
C195   H203    1.078   .     S
C195   H204    1.106   .     S
C195   N1364   1.454   1_554 S
C196   H202    1.111   .     S
C196   C197    1.522   .     S
C196   H1425   1.103   1_554 S
C197   H198    1.111   .     S
C197   H200    1.108   .     S
C197   H199    1.112   .     S
H201   C808    1.103   .     S
O205   C209    1.305   .     A
O205   Cu217   1.988   .     S
O206   C210    1.302   .     A
O206   Cu218   1.988   .     S
O207   Cu218   1.990   .     S
O207   C209    1.322   .     A
O208   Cu217   1.990   .     S
O208   C210    1.324   .     A
C209   C239    1.461   .     S
C210   C240    1.457   .     S
O211   C215    1.315   .     A
O211   Cu217   1.961   .     S
O212   C216    1.316   .     A
O212   Cu218   1.961   .     S
O213   Cu218   1.951   .     S
O213   C215    1.309   .     A
O214   C216    1.313   .     A
O214   Cu217   1.951   .     S
C215   C222    1.446   .     S
C216   C221    1.451   .     S
Cu217  Cu218   2.752   .     S
Cu217  N242    2.068   .     S
Cu218  N241    2.068   .     S
C219   C229    1.414   .     A
C219   C221    1.397   .     A
C219   H235    1.081   .     S
C220   C230    1.407   .     A
C220   H236    1.077   .     S
C220   C222    1.388   .     A
C221   C223    1.381   .     A
C222   C224    1.381   .     A
C223   C225    1.396   .     A
C223   H237    1.084   .     S
C224   H238    1.081   .     S
C224   C226    1.400   .     A
C225   C231    1.411   .     A
C225   C227    1.413   .     A
C226   C232    1.412   .     A
C226   C228    1.414   .     A
C227   C229    1.427   .     A
C227   C330    1.400   .     S
C228   C230    1.427   .     A
C228   C329    1.400   1_455 S
C229   C234    1.430   .     A
C230   C233    1.426   .     A
C231   O243    1.372   .     S
C231   C335    1.414   .     S
C232   O245    1.376   .     S
C232   C336    1.422   1_455 S
C233   C247    1.544   .     S
C233   C333    1.414   1_455 S
C234   C257    1.544   .     S
C234   C334    1.422   .     S
C240   C443    1.383   .     S
C240   C481    1.531   .     S
N241   N1466   1.294   1_554 S
N241   C1511   1.451   1_554 S
N242   N853    1.294   .     S
N242   C909    1.454   .     S
O243   H244    0.990   .     S
O245   H246    0.991   .     S
C247   H256    1.107   .     S
C247   H255    1.104   .     S
C247   C146    1.542   1_455 S
C248   H253    1.106   .     S
C248   H254    1.105   .     S
C248   C553    1.542   .     S
C248   C351    1.524   .     S
C249   H251    1.109   .     S
C249   H250    1.109   .     S
C249   C350    1.524   1_455 S
C249   H354    1.111   1_455 S
H252   C351    1.111   .     S
C257   H265    1.107   .     S
C257   H266    1.108   .     S
C257   C564    1.543   .     S
C258   H264    1.108   .     S
C258   H263    1.104   .     S
C258   C155    1.543   1_455 S
C258   C361    1.519   1_455 S
C259   H260    1.106   .     S
C259   H261    1.108   .     S
C259   C360    1.519   .     S
C259   H364    1.111   .     S
H262   C361    1.111   1_455 S
C267   H275    1.110   .     S
C267   H276    1.113   .     S
C267   C443    1.544   .     S
C267   C472    1.538   .     S
C268   H274    1.108   .     S
C268   H273    1.108   .     S
C269   H271    1.107   .     S
C269   C472    1.517   .     S
C269   H1494   1.104   1_554 S
C269   H476    1.108   .     S
H270   C881    1.104   .     S
C277   C278    1.534   .     S
C277   H285    1.109   .     S
C278   C279    1.525   .     S
C278   H283    1.112   .     S
C278   H284    1.105   .     S
C279   H280    1.106   .     S
C279   H281    1.107   .     S
C279   H282    1.108   .     S
H286   C481    1.097   .     S
C287   C288    1.560   .     S
C287   H295    1.103   .     S
C287   N853    1.451   .     S
C287   H908    1.106   .     S
C288   H294    1.092   .     S
C288   C289    1.528   .     S
C288   H905    1.096   .     S
C289   H290    1.109   .     S
C289   H292    1.110   .     S
C289   H903    1.110   .     S
H291   C1513   1.110   1_554 S
H293   C1512   1.096   1_554 S
H296   C1511   1.106   1_554 S
C297   C298    1.522   .     S
C297   H305    1.078   .     S
C297   H306    1.106   .     S
C297   N1466   1.454   1_554 S
C298   H304    1.111   .     S
C298   C299    1.522   .     S
C298   H1527   1.103   1_554 S
C299   H300    1.111   .     S
C299   H302    1.108   .     S
C299   H301    1.112   .     S
H303   C910    1.103   .     S
O307   C311    1.305   .     A
O307   Cu319   1.988   .     S
O308   C312    1.302   .     A
O308   Cu320   1.988   .     S
O309   Cu320   1.990   .     S
O309   C311    1.322   .     A
O310   Cu319   1.990   .     S
O310   C312    1.324   .     A
C311   C341    1.461   .     S
C312   C342    1.457   .     S
O313   C317    1.315   .     A
O313   Cu319   1.961   .     S
O314   C318    1.316   .     A
O314   Cu320   1.961   .     S
O315   Cu320   1.951   .     S
O315   C317    1.309   .     A
O316   C318    1.313   .     A
O316   Cu319   1.951   .     S
C317   C324    1.446   .     S
C318   C323    1.451   .     S
Cu319  Cu320   2.752   .     S
Cu319  N344    2.068   .     S
Cu320  N343    2.068   .     S
C321   C331    1.414   .     A
C321   C323    1.397   .     A
C321   H337    1.081   .     S
C322   C332    1.407   .     A
C322   H338    1.077   .     S
C322   C324    1.388   .     A
C323   C325    1.381   .     A
C324   C326    1.381   .     A
C325   C327    1.396   .     A
C325   H339    1.084   .     S
C326   H340    1.081   .     S
C326   C328    1.400   .     A
C327   C333    1.411   .     A
C327   C329    1.413   .     A
C328   C334    1.412   .     A
C328   C330    1.414   .     A
C329   C331    1.427   .     A
C329   C228    1.400   1_655 S
C330   C332    1.427   .     A
C331   C336    1.430   .     A
C332   C335    1.426   .     A
C333   O345    1.372   .     S
C333   C233    1.414   1_655 S
C334   O347    1.376   .     S
C335   C349    1.544   .     S
C336   C359    1.544   .     S
C336   C232    1.422   1_655 S
C342   C545    1.383   .     S
C342   C583    1.531   .     S
N343   N1568   1.294   1_554 S
N343   C1613   1.451   1_554 S
N344   N955    1.294   .     S
N344   C1011   1.454   .     S
O345   H346    0.990   .     S
O347   H348    0.991   .     S
C349   H358    1.107   .     S
C349   H357    1.104   .     S
C350   H355    1.106   .     S
C350   H356    1.105   .     S
C350   C451    1.542   1_655 S
C350   C249    1.524   1_655 S
C351   H353    1.109   .     S
C351   H352    1.109   .     S
H354   C249    1.111   1_655 S
C359   H367    1.107   .     S
C359   H368    1.108   .     S
C359   C462    1.543   1_655 S
C360   H366    1.108   .     S
C360   H365    1.104   .     S
C361   H362    1.106   .     S
C361   H363    1.108   .     S
C361   C258    1.519   1_655 S
C361   H262    1.111   1_655 S
C369   H377    1.110   .     S
C369   H378    1.113   .     S
C369   C545    1.544   .     S
C369   C574    1.538   .     S
C370   H376    1.108   .     S
C370   H375    1.108   .     S
C371   H373    1.107   .     S
C371   C574    1.517   .     S
C371   H1596   1.104   1_554 S
C371   H578    1.108   .     S
H372   C983    1.104   .     S
C379   C380    1.534   .     S
C379   H387    1.109   .     S
C380   C381    1.525   .     S
C380   H385    1.112   .     S
C380   H386    1.105   .     S
C381   H382    1.106   .     S
C381   H383    1.107   .     S
C381   H384    1.108   .     S
H388   C583    1.097   .     S
C389   C390    1.560   .     S
C389   H397    1.103   .     S
C389   N955    1.451   .     S
C389   H1010   1.106   .     S
C390   H396    1.092   .     S
C390   C391    1.528   .     S
C390   H1007   1.096   .     S
C391   H392    1.109   .     S
C391   H394    1.110   .     S
C391   H1005   1.110   .     S
H393   C1615   1.110   1_554 S
H395   C1614   1.096   1_554 S
H398   C1613   1.106   1_554 S
C399   C400    1.522   .     S
C399   H407    1.078   .     S
C399   H408    1.106   .     S
C399   N1568   1.454   1_554 S
C400   H406    1.111   .     S
C400   C401    1.522   .     S
C400   H1629   1.103   1_554 S
C401   H402    1.111   .     S
C401   H404    1.108   .     S
C401   H403    1.112   .     S
H405   C1012   1.103   .     S
O409   C413    1.305   .     A
O409   Cu421   1.988   .     S
O410   C414    1.302   .     A
O410   Cu422   1.988   .     S
O411   Cu422   1.990   .     S
O411   C413    1.322   .     A
O412   Cu421   1.990   .     S
O412   C414    1.324   .     A
C413   C443    1.461   .     S
C414   C444    1.457   .     S
O415   C419    1.315   .     A
O415   Cu421   1.961   .     S
O416   C420    1.316   .     A
O416   Cu422   1.961   .     S
O417   Cu422   1.951   .     S
O417   C419    1.309   .     A
O418   C420    1.313   .     A
O418   Cu421   1.951   .     S
C419   C426    1.446   .     S
C420   C425    1.451   .     S
Cu421  Cu422   2.752   .     S
Cu421  N446    2.068   .     S
Cu422  N445    2.068   .     S
C423   C433    1.414   .     A
C423   C425    1.397   .     A
C423   H439    1.081   .     S
C424   C434    1.407   .     A
C424   H440    1.077   .     S
C424   C426    1.388   .     A
C425   C427    1.381   .     A
C426   C428    1.381   .     A
C427   C429    1.396   .     A
C427   H441    1.084   .     S
C428   H442    1.081   .     S
C428   C430    1.400   .     A
C429   C435    1.411   .     A
C429   C431    1.413   .     A
C430   C436    1.412   .     A
C430   C432    1.414   .     A
C431   C433    1.427   .     A
C431   C534    1.400   .     S
C432   C434    1.427   .     A
C432   C533    1.400   1_455 S
C433   C438    1.430   .     A
C434   C437    1.426   .     A
C435   O447    1.372   .     S
C435   C539    1.414   .     S
C436   O449    1.376   .     S
C436   C540    1.422   1_455 S
C437   C451    1.544   .     S
C437   C537    1.414   1_455 S
C438   C461    1.544   .     S
C438   C538    1.422   .     S
C444   C35     1.383   1_565 S
C444   C73     1.531   1_565 S
N445   N1670   1.294   1_554 S
N445   C1715   1.451   1_554 S
N446   N1057   1.294   .     S
N446   C1113   1.454   .     S
O447   H448    0.990   .     S
O449   H450    0.991   .     S
C451   H460    1.107   .     S
C451   H459    1.104   .     S
C451   C350    1.542   1_455 S
C452   H457    1.106   .     S
C452   H458    1.105   .     S
C452   C145    1.542   1_565 S
C452   C555    1.524   .     S
C453   H455    1.109   .     S
C453   H454    1.109   .     S
C453   C554    1.524   1_455 S
C453   H558    1.111   1_455 S
H456   C555    1.111   .     S
C461   H469    1.107   .     S
C461   H470    1.108   .     S
C461   C156    1.543   1_565 S
C462   H468    1.108   .     S
C462   H467    1.104   .     S
C462   C359    1.543   1_455 S
C462   C565    1.519   1_455 S
C463   H464    1.106   .     S
C463   H465    1.108   .     S
C463   C564    1.519   .     S
C463   H568    1.111   .     S
H466   C565    1.111   1_455 S
C471   H479    1.110   .     S
C471   H480    1.113   .     S
C471   C35     1.544   1_565 S
C471   C64     1.538   1_565 S
C472   H478    1.108   .     S
C472   H477    1.108   .     S
C473   H475    1.107   .     S
C473   C64     1.517   1_565 S
C473   H1698   1.104   1_554 S
C473   H68     1.108   1_565 S
H474   C1085   1.104   .     S
C481   C482    1.534   .     S
C481   H489    1.109   .     S
C482   C483    1.525   .     S
C482   H487    1.112   .     S
C482   H488    1.105   .     S
C483   H484    1.106   .     S
C483   H485    1.107   .     S
C483   H486    1.108   .     S
H490   C73     1.097   1_565 S
C491   C492    1.560   .     S
C491   H499    1.103   .     S
C491   N1057   1.451   .     S
C491   H1112   1.106   .     S
C492   H498    1.092   .     S
C492   C493    1.528   .     S
C492   H1109   1.096   .     S
C493   H494    1.109   .     S
C493   H496    1.110   .     S
C493   H1107   1.110   .     S
H495   C1717   1.110   1_554 S
H497   C1716   1.096   1_554 S
H500   C1715   1.106   1_554 S
C501   C502    1.522   .     S
C501   H509    1.078   .     S
C501   H510    1.106   .     S
C501   N1670   1.454   1_554 S
C502   H508    1.111   .     S
C502   C503    1.522   .     S
C502   H1731   1.103   1_554 S
C503   H504    1.111   .     S
C503   H506    1.108   .     S
C503   H505    1.112   .     S
H507   C1114   1.103   .     S
O511   C515    1.305   .     A
O511   Cu523   1.988   .     S
O512   C516    1.302   .     A
O512   Cu524   1.988   .     S
O513   Cu524   1.990   .     S
O513   C515    1.322   .     A
O514   Cu523   1.990   .     S
O514   C516    1.324   .     A
C515   C545    1.461   .     S
C516   C546    1.457   .     S
O517   C521    1.315   .     A
O517   Cu523   1.961   .     S
O518   C522    1.316   .     A
O518   Cu524   1.961   .     S
O519   Cu524   1.951   .     S
O519   C521    1.309   .     A
O520   C522    1.313   .     A
O520   Cu523   1.951   .     S
C521   C528    1.446   .     S
C522   C527    1.451   .     S
Cu523  Cu524   2.752   .     S
Cu523  N548    2.068   .     S
Cu524  N547    2.068   .     S
C525   C535    1.414   .     A
C525   C527    1.397   .     A
C525   H541    1.081   .     S
C526   C536    1.407   .     A
C526   H542    1.077   .     S
C526   C528    1.388   .     A
C527   C529    1.381   .     A
C528   C530    1.381   .     A
C529   C531    1.396   .     A
C529   H543    1.084   .     S
C530   H544    1.081   .     S
C530   C532    1.400   .     A
C531   C537    1.411   .     A
C531   C533    1.413   .     A
C532   C538    1.412   .     A
C532   C534    1.414   .     A
C533   C535    1.427   .     A
C533   C432    1.400   1_655 S
C534   C536    1.427   .     A
C535   C540    1.430   .     A
C536   C539    1.426   .     A
C537   O549    1.372   .     S
C537   C437    1.414   1_655 S
C538   O551    1.376   .     S
C539   C553    1.544   .     S
C540   C563    1.544   .     S
C540   C436    1.422   1_655 S
C546   C137    1.383   1_565 S
C546   C175    1.531   1_565 S
N547   N1772   1.294   1_554 S
N547   C1817   1.451   1_554 S
N548   N1159   1.294   .     S
N548   C1215   1.454   .     S
O549   H550    0.990   .     S
O551   H552    0.991   .     S
C553   H562    1.107   .     S
C553   H561    1.104   .     S
C554   H559    1.106   .     S
C554   H560    1.105   .     S
C554   C43     1.542   1_665 S
C554   C453    1.524   1_655 S
C555   H557    1.109   .     S
C555   H556    1.109   .     S
H558   C453    1.111   1_655 S
C563   H571    1.107   .     S
C563   H572    1.108   .     S
C563   C54     1.543   1_665 S
C564   H570    1.108   .     S
C564   H569    1.104   .     S
C565   H566    1.106   .     S
C565   H567    1.108   .     S
C565   C462    1.519   1_655 S
C565   H466    1.111   1_655 S
C573   H581    1.110   .     S
C573   H582    1.113   .     S
C573   C137    1.544   1_565 S
C573   C166    1.538   1_565 S
C574   H580    1.108   .     S
C574   H579    1.108   .     S
C575   H577    1.107   .     S
C575   C166    1.517   1_565 S
C575   H1800   1.104   1_554 S
C575   H170    1.108   1_565 S
H576   C1187   1.104   .     S
C583   C584    1.534   .     S
C583   H591    1.109   .     S
C584   C585    1.525   .     S
C584   H589    1.112   .     S
C584   H590    1.105   .     S
C585   H586    1.106   .     S
C585   H587    1.107   .     S
C585   H588    1.108   .     S
H592   C175    1.097   1_565 S
C593   C594    1.560   .     S
C593   H601    1.103   .     S
C593   N1159   1.451   .     S
C593   H1214   1.106   .     S
C594   H600    1.092   .     S
C594   C595    1.528   .     S
C594   H1211   1.096   .     S
C595   H596    1.109   .     S
C595   H598    1.110   .     S
C595   H1209   1.110   .     S
H597   C1819   1.110   1_554 S
H599   C1818   1.096   1_554 S
H602   C1817   1.106   1_554 S
C603   C604    1.522   .     S
C603   H611    1.078   .     S
C603   H612    1.106   .     S
C603   N1772   1.454   1_554 S
C604   H610    1.111   .     S
C604   C605    1.522   .     S
C604   H1833   1.103   1_554 S
C605   H606    1.111   .     S
C605   H608    1.108   .     S
C605   H607    1.112   .     S
H609   C1216   1.103   .     S
O613   C617    1.305   .     A
O613   Cu625   1.988   .     S
O614   C618    1.302   .     A
O614   Cu626   1.988   .     S
O615   Cu626   1.990   .     S
O615   C617    1.322   .     A
O616   Cu625   1.990   .     S
O616   C618    1.324   .     A
C617   C647    1.461   .     S
C618   C648    1.457   .     S
O619   C623    1.315   .     A
O619   Cu625   1.961   .     S
O620   C624    1.316   .     A
O620   Cu626   1.961   .     S
O621   Cu626   1.951   .     S
O621   C623    1.309   .     A
O622   C624    1.313   .     A
O622   Cu625   1.951   .     S
C623   C630    1.446   .     S
C624   C629    1.451   .     S
Cu625  Cu626   2.752   .     S
Cu625  N650    2.068   .     S
Cu626  N649    2.068   .     S
C627   C637    1.414   .     A
C627   C629    1.397   .     A
C627   H643    1.081   .     S
C628   C638    1.407   .     A
C628   H644    1.077   .     S
C628   C630    1.388   .     A
C629   C631    1.381   .     A
C630   C632    1.381   .     A
C631   C633    1.396   .     A
C631   H645    1.084   .     S
C632   H646    1.081   .     S
C632   C634    1.400   .     A
C633   C639    1.411   .     A
C633   C635    1.413   .     A
C634   C640    1.412   .     A
C634   C636    1.414   .     A
C635   C637    1.427   .     A
C635   C738    1.400   .     S
C636   C638    1.427   .     A
C636   C737    1.400   1_455 S
C637   C642    1.430   .     A
C638   C641    1.426   .     A
C639   O651    1.372   .     S
C639   C743    1.414   .     S
C640   O653    1.376   .     S
C640   C744    1.422   1_455 S
C641   C655    1.544   .     S
C641   C741    1.414   1_455 S
C642   C665    1.544   .     S
C642   C742    1.422   .     S
C647   C1056   1.383   1_545 S
C647   C1083   1.544   1_545 S
C648   C851    1.383   .     S
C648   C889    1.531   .     S
N650   N1261   1.294   .     S
N650   C1317   1.454   .     S
O651   H652    0.990   .     S
O653   H654    0.991   .     S
C655   H664    1.107   .     S
C655   H663    1.104   .     S
C655   C1166   1.542   1_445 S
C656   H661    1.106   .     S
C656   H662    1.105   .     S
C656   C961    1.542   .     S
C656   C759    1.524   .     S
C657   H659    1.109   .     S
C657   H658    1.109   .     S
C657   C758    1.524   1_455 S
C657   H762    1.111   1_455 S
H660   C759    1.111   .     S
C665   H673    1.107   .     S
C665   H674    1.108   .     S
C665   C972    1.543   .     S
C666   H672    1.108   .     S
C666   H671    1.104   .     S
C666   C1175   1.543   1_445 S
C666   C769    1.519   1_455 S
C667   H668    1.106   .     S
C667   H669    1.108   .     S
C667   C768    1.519   .     S
C667   H772    1.111   .     S
H670   C769    1.111   1_455 S
C675   H683    1.110   .     S
C675   H684    1.113   .     S
C675   C851    1.544   .     S
C675   C880    1.538   .     S
C676   H682    1.108   .     S
C676   H681    1.108   .     S
C676   C1083   1.538   1_545 S
C676   C1085   1.517   1_545 S
C677   H679    1.107   .     S
C677   C880    1.517   .     S
C677   H884    1.108   .     S
H678   C1289   1.104   .     S
H680   C1085   1.108   1_545 S
C685   C686    1.534   .     S
C685   H693    1.109   .     S
C685   C1056   1.531   1_545 S
C685   H1102   1.097   1_545 S
C686   C687    1.525   .     S
C686   H691    1.112   .     S
C686   H692    1.105   .     S
C687   H688    1.106   .     S
C687   H689    1.107   .     S
C687   H690    1.108   .     S
H694   C889    1.097   .     S
C695   C696    1.560   .     S
C695   H703    1.103   .     S
C695   N1261   1.451   .     S
C695   H1316   1.106   .     S
C696   H702    1.092   .     S
C696   C697    1.528   .     S
C696   H1313   1.096   .     S
C697   H698    1.109   .     S
C697   H700    1.110   .     S
C697   H1311   1.110   .     S
C705   C706    1.522   .     S
C705   H713    1.078   .     S
C705   H714    1.106   .     S
C706   H712    1.111   .     S
C706   C707    1.522   .     S
C707   H708    1.111   .     S
C707   H710    1.108   .     S
C707   H709    1.112   .     S
H711   C1318   1.103   .     S
O715   C719    1.305   .     A
O715   Cu727   1.988   .     S
O716   C720    1.302   .     A
O716   Cu728   1.988   .     S
O717   Cu728   1.990   .     S
O717   C719    1.322   .     A
O718   Cu727   1.990   .     S
O718   C720    1.324   .     A
C719   C749    1.461   .     S
C720   C750    1.457   .     S
O721   C725    1.315   .     A
O721   Cu727   1.961   .     S
O722   C726    1.316   .     A
O722   Cu728   1.961   .     S
O723   Cu728   1.951   .     S
O723   C725    1.309   .     A
O724   C726    1.313   .     A
O724   Cu727   1.951   .     S
C725   C732    1.446   .     S
C726   C731    1.451   .     S
Cu727  Cu728   2.752   .     S
Cu727  N752    2.068   .     S
Cu728  N751    2.068   .     S
C729   C739    1.414   .     A
C729   C731    1.397   .     A
C729   H745    1.081   .     S
C730   C740    1.407   .     A
C730   H746    1.077   .     S
C730   C732    1.388   .     A
C731   C733    1.381   .     A
C732   C734    1.381   .     A
C733   C735    1.396   .     A
C733   H747    1.084   .     S
C734   H748    1.081   .     S
C734   C736    1.400   .     A
C735   C741    1.411   .     A
C735   C737    1.413   .     A
C736   C742    1.412   .     A
C736   C738    1.414   .     A
C737   C739    1.427   .     A
C737   C636    1.400   1_655 S
C738   C740    1.427   .     A
C739   C744    1.430   .     A
C740   C743    1.426   .     A
C741   O753    1.372   .     S
C741   C641    1.414   1_655 S
C742   O755    1.376   .     S
C743   C757    1.544   .     S
C744   C767    1.544   .     S
C744   C640    1.422   1_655 S
C749   C1158   1.383   1_545 S
C749   C1185   1.544   1_545 S
C750   C953    1.383   .     S
C750   C991    1.531   .     S
N752   N1363   1.294   .     S
N752   C1419   1.454   .     S
O753   H754    0.990   .     S
O755   H756    0.991   .     S
C757   H766    1.107   .     S
C757   H765    1.104   .     S
C757   C1064   1.542   1_545 S
C758   H763    1.106   .     S
C758   H764    1.105   .     S
C758   C859    1.542   1_655 S
C758   C657    1.524   1_655 S
C759   H761    1.109   .     S
C759   H760    1.109   .     S
H762   C657    1.111   1_655 S
C767   H775    1.107   .     S
C767   H776    1.108   .     S
C767   C870    1.543   1_655 S
C768   H774    1.108   .     S
C768   H773    1.104   .     S
C768   C1073   1.543   1_545 S
C769   H770    1.106   .     S
C769   H771    1.108   .     S
C769   C666    1.519   1_655 S
C769   H670    1.111   1_655 S
C777   H785    1.110   .     S
C777   H786    1.113   .     S
C777   C953    1.544   .     S
C777   C982    1.538   .     S
C778   H784    1.108   .     S
C778   H783    1.108   .     S
C778   C1185   1.538   1_545 S
C778   C1187   1.517   1_545 S
C779   H781    1.107   .     S
C779   C982    1.517   .     S
C779   H986    1.108   .     S
H780   C1391   1.104   .     S
H782   C1187   1.108   1_545 S
C787   C788    1.534   .     S
C787   H795    1.109   .     S
C787   C1158   1.531   1_545 S
C787   H1204   1.097   1_545 S
C788   C789    1.525   .     S
C788   H793    1.112   .     S
C788   H794    1.105   .     S
C789   H790    1.106   .     S
C789   H791    1.107   .     S
C789   H792    1.108   .     S
H796   C991    1.097   .     S
C797   C798    1.560   .     S
C797   H805    1.103   .     S
C797   N1363   1.451   .     S
C797   H1418   1.106   .     S
C798   H804    1.092   .     S
C798   C799    1.528   .     S
C798   H1415   1.096   .     S
C799   H800    1.109   .     S
C799   H802    1.110   .     S
C799   H1413   1.110   .     S
C807   C808    1.522   .     S
C807   H815    1.078   .     S
C807   H816    1.106   .     S
C808   H814    1.111   .     S
C808   C809    1.522   .     S
C809   H810    1.111   .     S
C809   H812    1.108   .     S
C809   H811    1.112   .     S
H813   C1420   1.103   .     S
O817   C821    1.305   .     A
O817   Cu829   1.988   .     S
O818   C822    1.302   .     A
O818   Cu830   1.988   .     S
O819   Cu830   1.990   .     S
O819   C821    1.322   .     A
O820   Cu829   1.990   .     S
O820   C822    1.324   .     A
C821   C851    1.461   .     S
C822   C852    1.457   .     S
O823   C827    1.315   .     A
O823   Cu829   1.961   .     S
O824   C828    1.316   .     A
O824   Cu830   1.961   .     S
O825   Cu830   1.951   .     S
O825   C827    1.309   .     A
O826   C828    1.313   .     A
O826   Cu829   1.951   .     S
C827   C834    1.446   .     S
C828   C833    1.451   .     S
Cu829  Cu830   2.752   .     S
Cu829  N854    2.068   .     S
Cu830  N853    2.068   .     S
C831   C841    1.414   .     A
C831   C833    1.397   .     A
C831   H847    1.081   .     S
C832   C842    1.407   .     A
C832   H848    1.077   .     S
C832   C834    1.388   .     A
C833   C835    1.381   .     A
C834   C836    1.381   .     A
C835   C837    1.396   .     A
C835   H849    1.084   .     S
C836   H850    1.081   .     S
C836   C838    1.400   .     A
C837   C843    1.411   .     A
C837   C839    1.413   .     A
C838   C844    1.412   .     A
C838   C840    1.414   .     A
C839   C841    1.427   .     A
C839   C942    1.400   .     S
C840   C842    1.427   .     A
C840   C941    1.400   1_455 S
C841   C846    1.430   .     A
C842   C845    1.426   .     A
C843   O855    1.372   .     S
C843   C947    1.414   .     S
C844   O857    1.376   .     S
C844   C948    1.422   1_455 S
C845   C859    1.544   .     S
C845   C945    1.414   1_455 S
C846   C869    1.544   .     S
C846   C946    1.422   .     S
C852   C1055   1.383   .     S
C852   C1093   1.531   .     S
N854   N1465   1.294   .     S
N854   C1521   1.454   .     S
O855   H856    0.990   .     S
O857   H858    0.991   .     S
C859   H868    1.107   .     S
C859   H867    1.104   .     S
C859   C758    1.542   1_455 S
C860   H865    1.106   .     S
C860   H866    1.105   .     S
C860   C1165   1.542   .     S
C860   C963    1.524   .     S
C861   H863    1.109   .     S
C861   H862    1.109   .     S
C861   C962    1.524   1_455 S
C861   H966    1.111   1_455 S
H864   C963    1.111   .     S
C869   H877    1.107   .     S
C869   H878    1.108   .     S
C869   C1176   1.543   .     S
C870   H876    1.108   .     S
C870   H875    1.104   .     S
C870   C767    1.543   1_455 S
C870   C973    1.519   1_455 S
C871   H872    1.106   .     S
C871   H873    1.108   .     S
C871   C972    1.519   .     S
C871   H976    1.111   .     S
H874   C973    1.111   1_455 S
C879   H887    1.110   .     S
C879   H888    1.113   .     S
C879   C1055   1.544   .     S
C879   C1084   1.538   .     S
C880   H886    1.108   .     S
C880   H885    1.108   .     S
C881   H883    1.107   .     S
C881   C1084   1.517   .     S
C881   H1088   1.108   .     S
H882   C1493   1.104   .     S
C889   C890    1.534   .     S
C889   H897    1.109   .     S
C890   C891    1.525   .     S
C890   H895    1.112   .     S
C890   H896    1.105   .     S
C891   H892    1.106   .     S
C891   H893    1.107   .     S
C891   H894    1.108   .     S
H898   C1093   1.097   .     S
C899   C900    1.560   .     S
C899   H907    1.103   .     S
C899   N1465   1.451   .     S
C899   H1520   1.106   .     S
C900   H906    1.092   .     S
C900   C901    1.528   .     S
C900   H1517   1.096   .     S
C901   H902    1.109   .     S
C901   H904    1.110   .     S
C901   H1515   1.110   .     S
C909   C910    1.522   .     S
C909   H917    1.078   .     S
C909   H918    1.106   .     S
C910   H916    1.111   .     S
C910   C911    1.522   .     S
C911   H912    1.111   .     S
C911   H914    1.108   .     S
C911   H913    1.112   .     S
H915   C1522   1.103   .     S
O919   C923    1.305   .     A
O919   Cu931   1.988   .     S
O920   C924    1.302   .     A
O920   Cu932   1.988   .     S
O921   Cu932   1.990   .     S
O921   C923    1.322   .     A
O922   Cu931   1.990   .     S
O922   C924    1.324   .     A
C923   C953    1.461   .     S
C924   C954    1.457   .     S
O925   C929    1.315   .     A
O925   Cu931   1.961   .     S
O926   C930    1.316   .     A
O926   Cu932   1.961   .     S
O927   Cu932   1.951   .     S
O927   C929    1.309   .     A
O928   C930    1.313   .     A
O928   Cu931   1.951   .     S
C929   C936    1.446   .     S
C930   C935    1.451   .     S
Cu931  Cu932   2.752   .     S
Cu931  N956    2.068   .     S
Cu932  N955    2.068   .     S
C933   C943    1.414   .     A
C933   C935    1.397   .     A
C933   H949    1.081   .     S
C934   C944    1.407   .     A
C934   H950    1.077   .     S
C934   C936    1.388   .     A
C935   C937    1.381   .     A
C936   C938    1.381   .     A
C937   C939    1.396   .     A
C937   H951    1.084   .     S
C938   H952    1.081   .     S
C938   C940    1.400   .     A
C939   C945    1.411   .     A
C939   C941    1.413   .     A
C940   C946    1.412   .     A
C940   C942    1.414   .     A
C941   C943    1.427   .     A
C941   C840    1.400   1_655 S
C942   C944    1.427   .     A
C943   C948    1.430   .     A
C944   C947    1.426   .     A
C945   O957    1.372   .     S
C945   C845    1.414   1_655 S
C946   O959    1.376   .     S
C947   C961    1.544   .     S
C948   C971    1.544   .     S
C948   C844    1.422   1_655 S
C954   C1157   1.383   .     S
C954   C1195   1.531   .     S
N956   N1567   1.294   .     S
N956   C1623   1.454   .     S
O957   H958    0.990   .     S
O959   H960    0.991   .     S
C961   H970    1.107   .     S
C961   H969    1.104   .     S
C962   H967    1.106   .     S
C962   H968    1.105   .     S
C962   C1063   1.542   1_655 S
C962   C861    1.524   1_655 S
C963   H965    1.109   .     S
C963   H964    1.109   .     S
H966   C861    1.111   1_655 S
C971   H979    1.107   .     S
C971   H980    1.108   .     S
C971   C1074   1.543   1_655 S
C972   H978    1.108   .     S
C972   H977    1.104   .     S
C973   H974    1.106   .     S
C973   H975    1.108   .     S
C973   C870    1.519   1_655 S
C973   H874    1.111   1_655 S
C981   H989    1.110   .     S
C981   H990    1.113   .     S
C981   C1157   1.544   .     S
C981   C1186   1.538   .     S
C982   H988    1.108   .     S
C982   H987    1.108   .     S
C983   H985    1.107   .     S
C983   C1186   1.517   .     S
C983   H1190   1.108   .     S
H984   C1595   1.104   .     S
C991   C992    1.534   .     S
C991   H999    1.109   .     S
C992   C993    1.525   .     S
C992   H997    1.112   .     S
C992   H998    1.105   .     S
C993   H994    1.106   .     S
C993   H995    1.107   .     S
C993   H996    1.108   .     S
H1000  C1195   1.097   .     S
C1001  C1002   1.560   .     S
C1001  H1009   1.103   .     S
C1001  N1567   1.451   .     S
C1001  H1622   1.106   .     S
C1002  H1008   1.092   .     S
C1002  C1003   1.528   .     S
C1002  H1619   1.096   .     S
C1003  H1004   1.109   .     S
C1003  H1006   1.110   .     S
C1003  H1617   1.110   .     S
C1011  C1012   1.522   .     S
C1011  H1019   1.078   .     S
C1011  H1020   1.106   .     S
C1012  H1018   1.111   .     S
C1012  C1013   1.522   .     S
C1013  H1014   1.111   .     S
C1013  H1016   1.108   .     S
C1013  H1015   1.112   .     S
H1017  C1624   1.103   .     S
O1021  C1025   1.305   .     A
O1021  Cu1033  1.988   .     S
O1022  C1026   1.302   .     A
O1022  Cu1034  1.988   .     S
O1023  Cu1034  1.990   .     S
O1023  C1025   1.322   .     A
O1024  Cu1033  1.990   .     S
O1024  C1026   1.324   .     A
C1025  C1055   1.461   .     S
C1026  C1056   1.457   .     S
O1027  C1031   1.315   .     A
O1027  Cu1033  1.961   .     S
O1028  C1032   1.316   .     A
O1028  Cu1034  1.961   .     S
O1029  Cu1034  1.951   .     S
O1029  C1031   1.309   .     A
O1030  C1032   1.313   .     A
O1030  Cu1033  1.951   .     S
C1031  C1038   1.446   .     S
C1032  C1037   1.451   .     S
Cu1033 Cu1034  2.752   .     S
Cu1033 N1058   2.068   .     S
Cu1034 N1057   2.068   .     S
C1035  C1045   1.414   .     A
C1035  C1037   1.397   .     A
C1035  H1051   1.081   .     S
C1036  C1046   1.407   .     A
C1036  H1052   1.077   .     S
C1036  C1038   1.388   .     A
C1037  C1039   1.381   .     A
C1038  C1040   1.381   .     A
C1039  C1041   1.396   .     A
C1039  H1053   1.084   .     S
C1040  H1054   1.081   .     S
C1040  C1042   1.400   .     A
C1041  C1047   1.411   .     A
C1041  C1043   1.413   .     A
C1042  C1048   1.412   .     A
C1042  C1044   1.414   .     A
C1043  C1045   1.427   .     A
C1043  C1146   1.400   .     S
C1044  C1046   1.427   .     A
C1044  C1145   1.400   1_455 S
C1045  C1050   1.430   .     A
C1046  C1049   1.426   .     A
C1047  O1059   1.372   .     S
C1047  C1151   1.414   .     S
C1048  O1061   1.376   .     S
C1048  C1152   1.422   1_455 S
C1049  C1063   1.544   .     S
C1049  C1149   1.414   1_455 S
C1050  C1073   1.544   .     S
C1050  C1150   1.422   .     S
C1056  C647    1.383   1_565 S
C1056  C685    1.531   1_565 S
N1058  N1669   1.294   .     S
N1058  C1725   1.454   .     S
O1059  H1060   0.990   .     S
O1061  H1062   0.991   .     S
C1063  H1072   1.107   .     S
C1063  H1071   1.104   .     S
C1063  C962    1.542   1_455 S
C1064  H1069   1.106   .     S
C1064  H1070   1.105   .     S
C1064  C757    1.542   1_565 S
C1064  C1167   1.524   .     S
C1065  H1067   1.109   .     S
C1065  H1066   1.109   .     S
C1065  C1166   1.524   1_455 S
C1065  H1170   1.111   1_455 S
H1068  C1167   1.111   .     S
C1073  H1081   1.107   .     S
C1073  H1082   1.108   .     S
C1073  C768    1.543   1_565 S
C1074  H1080   1.108   .     S
C1074  H1079   1.104   .     S
C1074  C971    1.543   1_455 S
C1074  C1177   1.519   1_455 S
C1075  H1076   1.106   .     S
C1075  H1077   1.108   .     S
C1075  C1176   1.519   .     S
C1075  H1180   1.111   .     S
H1078  C1177   1.111   1_455 S
C1083  H1091   1.110   .     S
C1083  H1092   1.113   .     S
C1083  C647    1.544   1_565 S
C1083  C676    1.538   1_565 S
C1084  H1090   1.108   .     S
C1084  H1089   1.108   .     S
C1085  H1087   1.107   .     S
C1085  C676    1.517   1_565 S
C1085  H680    1.108   1_565 S
H1086  C1697   1.104   .     S
C1093  C1094   1.534   .     S
C1093  H1101   1.109   .     S
C1094  C1095   1.525   .     S
C1094  H1099   1.112   .     S
C1094  H1100   1.105   .     S
C1095  H1096   1.106   .     S
C1095  H1097   1.107   .     S
C1095  H1098   1.108   .     S
H1102  C685    1.097   1_565 S
C1103  C1104   1.560   .     S
C1103  H1111   1.103   .     S
C1103  N1669   1.451   .     S
C1103  H1724   1.106   .     S
C1104  H1110   1.092   .     S
C1104  C1105   1.528   .     S
C1104  H1721   1.096   .     S
C1105  H1106   1.109   .     S
C1105  H1108   1.110   .     S
C1105  H1719   1.110   .     S
C1113  C1114   1.522   .     S
C1113  H1121   1.078   .     S
C1113  H1122   1.106   .     S
C1114  H1120   1.111   .     S
C1114  C1115   1.522   .     S
C1115  H1116   1.111   .     S
C1115  H1118   1.108   .     S
C1115  H1117   1.112   .     S
H1119  C1726   1.103   .     S
O1123  C1127   1.305   .     A
O1123  Cu1135  1.988   .     S
O1124  C1128   1.302   .     A
O1124  Cu1136  1.988   .     S
O1125  Cu1136  1.990   .     S
O1125  C1127   1.322   .     A
O1126  Cu1135  1.990   .     S
O1126  C1128   1.324   .     A
C1127  C1157   1.461   .     S
C1128  C1158   1.457   .     S
O1129  C1133   1.315   .     A
O1129  Cu1135  1.961   .     S
O1130  C1134   1.316   .     A
O1130  Cu1136  1.961   .     S
O1131  Cu1136  1.951   .     S
O1131  C1133   1.309   .     A
O1132  C1134   1.313   .     A
O1132  Cu1135  1.951   .     S
C1133  C1140   1.446   .     S
C1134  C1139   1.451   .     S
Cu1135 Cu1136  2.752   .     S
Cu1135 N1160   2.068   .     S
Cu1136 N1159   2.068   .     S
C1137  C1147   1.414   .     A
C1137  C1139   1.397   .     A
C1137  H1153   1.081   .     S
C1138  C1148   1.407   .     A
C1138  H1154   1.077   .     S
C1138  C1140   1.388   .     A
C1139  C1141   1.381   .     A
C1140  C1142   1.381   .     A
C1141  C1143   1.396   .     A
C1141  H1155   1.084   .     S
C1142  H1156   1.081   .     S
C1142  C1144   1.400   .     A
C1143  C1149   1.411   .     A
C1143  C1145   1.413   .     A
C1144  C1150   1.412   .     A
C1144  C1146   1.414   .     A
C1145  C1147   1.427   .     A
C1145  C1044   1.400   1_655 S
C1146  C1148   1.427   .     A
C1147  C1152   1.430   .     A
C1148  C1151   1.426   .     A
C1149  O1161   1.372   .     S
C1149  C1049   1.414   1_655 S
C1150  O1163   1.376   .     S
C1151  C1165   1.544   .     S
C1152  C1175   1.544   .     S
C1152  C1048   1.422   1_655 S
C1158  C749    1.383   1_565 S
C1158  C787    1.531   1_565 S
N1160  N1771   1.294   .     S
N1160  C1827   1.454   .     S
O1161  H1162   0.990   .     S
O1163  H1164   0.991   .     S
C1165  H1174   1.107   .     S
C1165  H1173   1.104   .     S
C1166  H1171   1.106   .     S
C1166  H1172   1.105   .     S
C1166  C655    1.542   1_665 S
C1166  C1065   1.524   1_655 S
C1167  H1169   1.109   .     S
C1167  H1168   1.109   .     S
H1170  C1065   1.111   1_655 S
C1175  H1183   1.107   .     S
C1175  H1184   1.108   .     S
C1175  C666    1.543   1_665 S
C1176  H1182   1.108   .     S
C1176  H1181   1.104   .     S
C1177  H1178   1.106   .     S
C1177  H1179   1.108   .     S
C1177  C1074   1.519   1_655 S
C1177  H1078   1.111   1_655 S
C1185  H1193   1.110   .     S
C1185  H1194   1.113   .     S
C1185  C749    1.544   1_565 S
C1185  C778    1.538   1_565 S
C1186  H1192   1.108   .     S
C1186  H1191   1.108   .     S
C1187  H1189   1.107   .     S
C1187  C778    1.517   1_565 S
C1187  H782    1.108   1_565 S
H1188  C1799   1.104   .     S
C1195  C1196   1.534   .     S
C1195  H1203   1.109   .     S
C1196  C1197   1.525   .     S
C1196  H1201   1.112   .     S
C1196  H1202   1.105   .     S
C1197  H1198   1.106   .     S
C1197  H1199   1.107   .     S
C1197  H1200   1.108   .     S
H1204  C787    1.097   1_565 S
C1205  C1206   1.560   .     S
C1205  H1213   1.103   .     S
C1205  N1771   1.451   .     S
C1205  H1826   1.106   .     S
C1206  H1212   1.092   .     S
C1206  C1207   1.528   .     S
C1206  H1823   1.096   .     S
C1207  H1208   1.109   .     S
C1207  H1210   1.110   .     S
C1207  H1821   1.110   .     S
C1215  C1216   1.522   .     S
C1215  H1223   1.078   .     S
C1215  H1224   1.106   .     S
C1216  H1222   1.111   .     S
C1216  C1217   1.522   .     S
C1217  H1218   1.111   .     S
C1217  H1220   1.108   .     S
C1217  H1219   1.112   .     S
H1221  C1828   1.103   .     S
O1225  C1229   1.305   .     A
O1225  Cu1237  1.988   .     S
O1226  C1230   1.302   .     A
O1226  Cu1238  1.988   .     S
O1227  Cu1238  1.990   .     S
O1227  C1229   1.322   .     A
O1228  Cu1237  1.990   .     S
O1228  C1230   1.324   .     A
C1229  C1259   1.461   .     S
C1230  C1260   1.457   .     S
O1231  C1235   1.315   .     A
O1231  Cu1237  1.961   .     S
O1232  C1236   1.316   .     A
O1232  Cu1238  1.961   .     S
O1233  Cu1238  1.951   .     S
O1233  C1235   1.309   .     A
O1234  C1236   1.313   .     A
O1234  Cu1237  1.951   .     S
C1235  C1242   1.446   .     S
C1236  C1241   1.451   .     S
Cu1237 Cu1238  2.752   .     S
Cu1237 N1262   2.068   .     S
Cu1238 N1261   2.068   .     S
C1239  C1249   1.414   .     A
C1239  C1241   1.397   .     A
C1239  H1255   1.081   .     S
C1240  C1250   1.407   .     A
C1240  H1256   1.077   .     S
C1240  C1242   1.388   .     A
C1241  C1243   1.381   .     A
C1242  C1244   1.381   .     A
C1243  C1245   1.396   .     A
C1243  H1257   1.084   .     S
C1244  H1258   1.081   .     S
C1244  C1246   1.400   .     A
C1245  C1251   1.411   .     A
C1245  C1247   1.413   .     A
C1246  C1252   1.412   .     A
C1246  C1248   1.414   .     A
C1247  C1249   1.427   .     A
C1247  C1350   1.400   .     S
C1248  C1250   1.427   .     A
C1248  C1349   1.400   1_455 S
C1249  C1254   1.430   .     A
C1250  C1253   1.426   .     A
C1251  O1263   1.372   .     S
C1251  C1355   1.414   .     S
C1252  O1265   1.376   .     S
C1252  C1356   1.422   1_455 S
C1253  C1267   1.544   .     S
C1253  C1353   1.414   1_455 S
C1254  C1277   1.544   .     S
C1254  C1354   1.422   .     S
C1259  C1668   1.383   1_545 S
C1259  C1695   1.544   1_545 S
C1260  C1463   1.383   .     S
C1260  C1501   1.531   .     S
N1262  N37     1.294   1_556 S
N1262  C93     1.454   1_556 S
O1263  H1264   0.990   .     S
O1265  H1266   0.991   .     S
C1267  H1276   1.107   .     S
C1267  H1275   1.104   .     S
C1267  C1778   1.542   1_445 S
C1268  H1273   1.106   .     S
C1268  H1274   1.105   .     S
C1268  C1573   1.542   .     S
C1268  C1371   1.524   .     S
C1269  H1271   1.109   .     S
C1269  H1270   1.109   .     S
C1269  C1370   1.524   1_455 S
C1269  H1374   1.111   1_455 S
H1272  C1371   1.111   .     S
C1277  H1285   1.107   .     S
C1277  H1286   1.108   .     S
C1277  C1584   1.543   .     S
C1278  H1284   1.108   .     S
C1278  H1283   1.104   .     S
C1278  C1787   1.543   1_445 S
C1278  C1381   1.519   1_455 S
C1279  H1280   1.106   .     S
C1279  H1281   1.108   .     S
C1279  C1380   1.519   .     S
C1279  H1384   1.111   .     S
H1282  C1381   1.111   1_455 S
C1287  H1295   1.110   .     S
C1287  H1296   1.113   .     S
C1287  C1463   1.544   .     S
C1287  C1492   1.538   .     S
C1288  H1294   1.108   .     S
C1288  H1293   1.108   .     S
C1288  C1695   1.538   1_545 S
C1288  C1697   1.517   1_545 S
C1289  H1291   1.107   .     S
C1289  C1492   1.517   .     S
C1289  H1496   1.108   .     S
H1290  C65     1.104   1_556 S
H1292  C1697   1.108   1_545 S
C1297  C1298   1.534   .     S
C1297  H1305   1.109   .     S
C1297  C1668   1.531   1_545 S
C1297  H1714   1.097   1_545 S
C1298  C1299   1.525   .     S
C1298  H1303   1.112   .     S
C1298  H1304   1.105   .     S
C1299  H1300   1.106   .     S
C1299  H1301   1.107   .     S
C1299  H1302   1.108   .     S
H1306  C1501   1.097   .     S
C1307  C1308   1.560   .     S
C1307  H1315   1.103   .     S
C1307  N37     1.451   1_556 S
C1307  H92     1.106   1_556 S
C1308  H1314   1.092   .     S
C1308  C1309   1.528   .     S
C1308  H89     1.096   1_556 S
C1309  H1310   1.109   .     S
C1309  H1312   1.110   .     S
C1309  H87     1.110   1_556 S
C1317  C1318   1.522   .     S
C1317  H1325   1.078   .     S
C1317  H1326   1.106   .     S
C1318  H1324   1.111   .     S
C1318  C1319   1.522   .     S
C1319  H1320   1.111   .     S
C1319  H1322   1.108   .     S
C1319  H1321   1.112   .     S
H1323  C94     1.103   1_556 S
O1327  C1331   1.305   .     A
O1327  Cu1339  1.988   .     S
O1328  C1332   1.302   .     A
O1328  Cu1340  1.988   .     S
O1329  Cu1340  1.990   .     S
O1329  C1331   1.322   .     A
O1330  Cu1339  1.990   .     S
O1330  C1332   1.324   .     A
C1331  C1361   1.461   .     S
C1332  C1362   1.457   .     S
O1333  C1337   1.315   .     A
O1333  Cu1339  1.961   .     S
O1334  C1338   1.316   .     A
O1334  Cu1340  1.961   .     S
O1335  Cu1340  1.951   .     S
O1335  C1337   1.309   .     A
O1336  C1338   1.313   .     A
O1336  Cu1339  1.951   .     S
C1337  C1344   1.446   .     S
C1338  C1343   1.451   .     S
Cu1339 Cu1340  2.752   .     S
Cu1339 N1364   2.068   .     S
Cu1340 N1363   2.068   .     S
C1341  C1351   1.414   .     A
C1341  C1343   1.397   .     A
C1341  H1357   1.081   .     S
C1342  C1352   1.407   .     A
C1342  H1358   1.077   .     S
C1342  C1344   1.388   .     A
C1343  C1345   1.381   .     A
C1344  C1346   1.381   .     A
C1345  C1347   1.396   .     A
C1345  H1359   1.084   .     S
C1346  H1360   1.081   .     S
C1346  C1348   1.400   .     A
C1347  C1353   1.411   .     A
C1347  C1349   1.413   .     A
C1348  C1354   1.412   .     A
C1348  C1350   1.414   .     A
C1349  C1351   1.427   .     A
C1349  C1248   1.400   1_655 S
C1350  C1352   1.427   .     A
C1351  C1356   1.430   .     A
C1352  C1355   1.426   .     A
C1353  O1365   1.372   .     S
C1353  C1253   1.414   1_655 S
C1354  O1367   1.376   .     S
C1355  C1369   1.544   .     S
C1356  C1379   1.544   .     S
C1356  C1252   1.422   1_655 S
C1361  C1770   1.383   1_545 S
C1361  C1797   1.544   1_545 S
C1362  C1565   1.383   .     S
C1362  C1603   1.531   .     S
N1364  N139    1.294   1_556 S
N1364  C195    1.454   1_556 S
O1365  H1366   0.990   .     S
O1367  H1368   0.991   .     S
C1369  H1378   1.107   .     S
C1369  H1377   1.104   .     S
C1369  C1676   1.542   1_545 S
C1370  H1375   1.106   .     S
C1370  H1376   1.105   .     S
C1370  C1471   1.542   1_655 S
C1370  C1269   1.524   1_655 S
C1371  H1373   1.109   .     S
C1371  H1372   1.109   .     S
H1374  C1269   1.111   1_655 S
C1379  H1387   1.107   .     S
C1379  H1388   1.108   .     S
C1379  C1482   1.543   1_655 S
C1380  H1386   1.108   .     S
C1380  H1385   1.104   .     S
C1380  C1685   1.543   1_545 S
C1381  H1382   1.106   .     S
C1381  H1383   1.108   .     S
C1381  C1278   1.519   1_655 S
C1381  H1282   1.111   1_655 S
C1389  H1397   1.110   .     S
C1389  H1398   1.113   .     S
C1389  C1565   1.544   .     S
C1389  C1594   1.538   .     S
C1390  H1396   1.108   .     S
C1390  H1395   1.108   .     S
C1390  C1797   1.538   1_545 S
C1390  C1799   1.517   1_545 S
C1391  H1393   1.107   .     S
C1391  C1594   1.517   .     S
C1391  H1598   1.108   .     S
H1392  C167    1.104   1_556 S
H1394  C1799   1.108   1_545 S
C1399  C1400   1.534   .     S
C1399  H1407   1.109   .     S
C1399  C1770   1.531   1_545 S
C1399  H1816   1.097   1_545 S
C1400  C1401   1.525   .     S
C1400  H1405   1.112   .     S
C1400  H1406   1.105   .     S
C1401  H1402   1.106   .     S
C1401  H1403   1.107   .     S
C1401  H1404   1.108   .     S
H1408  C1603   1.097   .     S
C1409  C1410   1.560   .     S
C1409  H1417   1.103   .     S
C1409  N139    1.451   1_556 S
C1409  H194    1.106   1_556 S
C1410  H1416   1.092   .     S
C1410  C1411   1.528   .     S
C1410  H191    1.096   1_556 S
C1411  H1412   1.109   .     S
C1411  H1414   1.110   .     S
C1411  H189    1.110   1_556 S
C1419  C1420   1.522   .     S
C1419  H1427   1.078   .     S
C1419  H1428   1.106   .     S
C1420  H1426   1.111   .     S
C1420  C1421   1.522   .     S
C1421  H1422   1.111   .     S
C1421  H1424   1.108   .     S
C1421  H1423   1.112   .     S
H1425  C196    1.103   1_556 S
O1429  C1433   1.305   .     A
O1429  Cu1441  1.988   .     S
O1430  C1434   1.302   .     A
O1430  Cu1442  1.988   .     S
O1431  Cu1442  1.990   .     S
O1431  C1433   1.322   .     A
O1432  Cu1441  1.990   .     S
O1432  C1434   1.324   .     A
C1433  C1463   1.461   .     S
C1434  C1464   1.457   .     S
O1435  C1439   1.315   .     A
O1435  Cu1441  1.961   .     S
O1436  C1440   1.316   .     A
O1436  Cu1442  1.961   .     S
O1437  Cu1442  1.951   .     S
O1437  C1439   1.309   .     A
O1438  C1440   1.313   .     A
O1438  Cu1441  1.951   .     S
C1439  C1446   1.446   .     S
C1440  C1445   1.451   .     S
Cu1441 Cu1442  2.752   .     S
Cu1441 N1466   2.068   .     S
Cu1442 N1465   2.068   .     S
C1443  C1453   1.414   .     A
C1443  C1445   1.397   .     A
C1443  H1459   1.081   .     S
C1444  C1454   1.407   .     A
C1444  H1460   1.077   .     S
C1444  C1446   1.388   .     A
C1445  C1447   1.381   .     A
C1446  C1448   1.381   .     A
C1447  C1449   1.396   .     A
C1447  H1461   1.084   .     S
C1448  H1462   1.081   .     S
C1448  C1450   1.400   .     A
C1449  C1455   1.411   .     A
C1449  C1451   1.413   .     A
C1450  C1456   1.412   .     A
C1450  C1452   1.414   .     A
C1451  C1453   1.427   .     A
C1451  C1554   1.400   .     S
C1452  C1454   1.427   .     A
C1452  C1553   1.400   1_455 S
C1453  C1458   1.430   .     A
C1454  C1457   1.426   .     A
C1455  O1467   1.372   .     S
C1455  C1559   1.414   .     S
C1456  O1469   1.376   .     S
C1456  C1560   1.422   1_455 S
C1457  C1471   1.544   .     S
C1457  C1557   1.414   1_455 S
C1458  C1481   1.544   .     S
C1458  C1558   1.422   .     S
C1464  C1667   1.383   .     S
C1464  C1705   1.531   .     S
N1466  N241    1.294   1_556 S
N1466  C297    1.454   1_556 S
O1467  H1468   0.990   .     S
O1469  H1470   0.991   .     S
C1471  H1480   1.107   .     S
C1471  H1479   1.104   .     S
C1471  C1370   1.542   1_455 S
C1472  H1477   1.106   .     S
C1472  H1478   1.105   .     S
C1472  C1777   1.542   .     S
C1472  C1575   1.524   .     S
C1473  H1475   1.109   .     S
C1473  H1474   1.109   .     S
C1473  C1574   1.524   1_455 S
C1473  H1578   1.111   1_455 S
H1476  C1575   1.111   .     S
C1481  H1489   1.107   .     S
C1481  H1490   1.108   .     S
C1481  C1788   1.543   .     S
C1482  H1488   1.108   .     S
C1482  H1487   1.104   .     S
C1482  C1379   1.543   1_455 S
C1482  C1585   1.519   1_455 S
C1483  H1484   1.106   .     S
C1483  H1485   1.108   .     S
C1483  C1584   1.519   .     S
C1483  H1588   1.111   .     S
H1486  C1585   1.111   1_455 S
C1491  H1499   1.110   .     S
C1491  H1500   1.113   .     S
C1491  C1667   1.544   .     S
C1491  C1696   1.538   .     S
C1492  H1498   1.108   .     S
C1492  H1497   1.108   .     S
C1493  H1495   1.107   .     S
C1493  C1696   1.517   .     S
C1493  H1700   1.108   .     S
H1494  C269    1.104   1_556 S
C1501  C1502   1.534   .     S
C1501  H1509   1.109   .     S
C1502  C1503   1.525   .     S
C1502  H1507   1.112   .     S
C1502  H1508   1.105   .     S
C1503  H1504   1.106   .     S
C1503  H1505   1.107   .     S
C1503  H1506   1.108   .     S
H1510  C1705   1.097   .     S
C1511  C1512   1.560   .     S
C1511  H1519   1.103   .     S
C1511  N241    1.451   1_556 S
C1511  H296    1.106   1_556 S
C1512  H1518   1.092   .     S
C1512  C1513   1.528   .     S
C1512  H293    1.096   1_556 S
C1513  H1514   1.109   .     S
C1513  H1516   1.110   .     S
C1513  H291    1.110   1_556 S
C1521  C1522   1.522   .     S
C1521  H1529   1.078   .     S
C1521  H1530   1.106   .     S
C1522  H1528   1.111   .     S
C1522  C1523   1.522   .     S
C1523  H1524   1.111   .     S
C1523  H1526   1.108   .     S
C1523  H1525   1.112   .     S
H1527  C298    1.103   1_556 S
O1531  C1535   1.305   .     A
O1531  Cu1543  1.988   .     S
O1532  C1536   1.302   .     A
O1532  Cu1544  1.988   .     S
O1533  Cu1544  1.990   .     S
O1533  C1535   1.322   .     A
O1534  Cu1543  1.990   .     S
O1534  C1536   1.324   .     A
C1535  C1565   1.461   .     S
C1536  C1566   1.457   .     S
O1537  C1541   1.315   .     A
O1537  Cu1543  1.961   .     S
O1538  C1542   1.316   .     A
O1538  Cu1544  1.961   .     S
O1539  Cu1544  1.951   .     S
O1539  C1541   1.309   .     A
O1540  C1542   1.313   .     A
O1540  Cu1543  1.951   .     S
C1541  C1548   1.446   .     S
C1542  C1547   1.451   .     S
Cu1543 Cu1544  2.752   .     S
Cu1543 N1568   2.068   .     S
Cu1544 N1567   2.068   .     S
C1545  C1555   1.414   .     A
C1545  C1547   1.397   .     A
C1545  H1561   1.081   .     S
C1546  C1556   1.407   .     A
C1546  H1562   1.077   .     S
C1546  C1548   1.388   .     A
C1547  C1549   1.381   .     A
C1548  C1550   1.381   .     A
C1549  C1551   1.396   .     A
C1549  H1563   1.084   .     S
C1550  H1564   1.081   .     S
C1550  C1552   1.400   .     A
C1551  C1557   1.411   .     A
C1551  C1553   1.413   .     A
C1552  C1558   1.412   .     A
C1552  C1554   1.414   .     A
C1553  C1555   1.427   .     A
C1553  C1452   1.400   1_655 S
C1554  C1556   1.427   .     A
C1555  C1560   1.430   .     A
C1556  C1559   1.426   .     A
C1557  O1569   1.372   .     S
C1557  C1457   1.414   1_655 S
C1558  O1571   1.376   .     S
C1559  C1573   1.544   .     S
C1560  C1583   1.544   .     S
C1560  C1456   1.422   1_655 S
C1566  C1769   1.383   .     S
C1566  C1807   1.531   .     S
N1568  N343    1.294   1_556 S
N1568  C399    1.454   1_556 S
O1569  H1570   0.990   .     S
O1571  H1572   0.991   .     S
C1573  H1582   1.107   .     S
C1573  H1581   1.104   .     S
C1574  H1579   1.106   .     S
C1574  H1580   1.105   .     S
C1574  C1675   1.542   1_655 S
C1574  C1473   1.524   1_655 S
C1575  H1577   1.109   .     S
C1575  H1576   1.109   .     S
H1578  C1473   1.111   1_655 S
C1583  H1591   1.107   .     S
C1583  H1592   1.108   .     S
C1583  C1686   1.543   1_655 S
C1584  H1590   1.108   .     S
C1584  H1589   1.104   .     S
C1585  H1586   1.106   .     S
C1585  H1587   1.108   .     S
C1585  C1482   1.519   1_655 S
C1585  H1486   1.111   1_655 S
C1593  H1601   1.110   .     S
C1593  H1602   1.113   .     S
C1593  C1769   1.544   .     S
C1593  C1798   1.538   .     S
C1594  H1600   1.108   .     S
C1594  H1599   1.108   .     S
C1595  H1597   1.107   .     S
C1595  C1798   1.517   .     S
C1595  H1802   1.108   .     S
H1596  C371    1.104   1_556 S
C1603  C1604   1.534   .     S
C1603  H1611   1.109   .     S
C1604  C1605   1.525   .     S
C1604  H1609   1.112   .     S
C1604  H1610   1.105   .     S
C1605  H1606   1.106   .     S
C1605  H1607   1.107   .     S
C1605  H1608   1.108   .     S
H1612  C1807   1.097   .     S
C1613  C1614   1.560   .     S
C1613  H1621   1.103   .     S
C1613  N343    1.451   1_556 S
C1613  H398    1.106   1_556 S
C1614  H1620   1.092   .     S
C1614  C1615   1.528   .     S
C1614  H395    1.096   1_556 S
C1615  H1616   1.109   .     S
C1615  H1618   1.110   .     S
C1615  H393    1.110   1_556 S
C1623  C1624   1.522   .     S
C1623  H1631   1.078   .     S
C1623  H1632   1.106   .     S
C1624  H1630   1.111   .     S
C1624  C1625   1.522   .     S
C1625  H1626   1.111   .     S
C1625  H1628   1.108   .     S
C1625  H1627   1.112   .     S
H1629  C400    1.103   1_556 S
O1633  C1637   1.305   .     A
O1633  Cu1645  1.988   .     S
O1634  C1638   1.302   .     A
O1634  Cu1646  1.988   .     S
O1635  Cu1646  1.990   .     S
O1635  C1637   1.322   .     A
O1636  Cu1645  1.990   .     S
O1636  C1638   1.324   .     A
C1637  C1667   1.461   .     S
C1638  C1668   1.457   .     S
O1639  C1643   1.315   .     A
O1639  Cu1645  1.961   .     S
O1640  C1644   1.316   .     A
O1640  Cu1646  1.961   .     S
O1641  Cu1646  1.951   .     S
O1641  C1643   1.309   .     A
O1642  C1644   1.313   .     A
O1642  Cu1645  1.951   .     S
C1643  C1650   1.446   .     S
C1644  C1649   1.451   .     S
Cu1645 Cu1646  2.752   .     S
Cu1645 N1670   2.068   .     S
Cu1646 N1669   2.068   .     S
C1647  C1657   1.414   .     A
C1647  C1649   1.397   .     A
C1647  H1663   1.081   .     S
C1648  C1658   1.407   .     A
C1648  H1664   1.077   .     S
C1648  C1650   1.388   .     A
C1649  C1651   1.381   .     A
C1650  C1652   1.381   .     A
C1651  C1653   1.396   .     A
C1651  H1665   1.084   .     S
C1652  H1666   1.081   .     S
C1652  C1654   1.400   .     A
C1653  C1659   1.411   .     A
C1653  C1655   1.413   .     A
C1654  C1660   1.412   .     A
C1654  C1656   1.414   .     A
C1655  C1657   1.427   .     A
C1655  C1758   1.400   .     S
C1656  C1658   1.427   .     A
C1656  C1757   1.400   1_455 S
C1657  C1662   1.430   .     A
C1658  C1661   1.426   .     A
C1659  O1671   1.372   .     S
C1659  C1763   1.414   .     S
C1660  O1673   1.376   .     S
C1660  C1764   1.422   1_455 S
C1661  C1675   1.544   .     S
C1661  C1761   1.414   1_455 S
C1662  C1685   1.544   .     S
C1662  C1762   1.422   .     S
C1668  C1259   1.383   1_565 S
C1668  C1297   1.531   1_565 S
N1670  N445    1.294   1_556 S
N1670  C501    1.454   1_556 S
O1671  H1672   0.990   .     S
O1673  H1674   0.991   .     S
C1675  H1684   1.107   .     S
C1675  H1683   1.104   .     S
C1675  C1574   1.542   1_455 S
C1676  H1681   1.106   .     S
C1676  H1682   1.105   .     S
C1676  C1369   1.542   1_565 S
C1676  C1779   1.524   .     S
C1677  H1679   1.109   .     S
C1677  H1678   1.109   .     S
C1677  C1778   1.524   1_455 S
C1677  H1782   1.111   1_455 S
H1680  C1779   1.111   .     S
C1685  H1693   1.107   .     S
C1685  H1694   1.108   .     S
C1685  C1380   1.543   1_565 S
C1686  H1692   1.108   .     S
C1686  H1691   1.104   .     S
C1686  C1583   1.543   1_455 S
C1686  C1789   1.519   1_455 S
C1687  H1688   1.106   .     S
C1687  H1689   1.108   .     S
C1687  C1788   1.519   .     S
C1687  H1792   1.111   .     S
H1690  C1789   1.111   1_455 S
C1695  H1703   1.110   .     S
C1695  H1704   1.113   .     S
C1695  C1259   1.544   1_565 S
C1695  C1288   1.538   1_565 S
C1696  H1702   1.108   .     S
C1696  H1701   1.108   .     S
C1697  H1699   1.107   .     S
C1697  C1288   1.517   1_565 S
C1697  H1292   1.108   1_565 S
H1698  C473    1.104   1_556 S
C1705  C1706   1.534   .     S
C1705  H1713   1.109   .     S
C1706  C1707   1.525   .     S
C1706  H1711   1.112   .     S
C1706  H1712   1.105   .     S
C1707  H1708   1.106   .     S
C1707  H1709   1.107   .     S
C1707  H1710   1.108   .     S
H1714  C1297   1.097   1_565 S
C1715  C1716   1.560   .     S
C1715  H1723   1.103   .     S
C1715  N445    1.451   1_556 S
C1715  H500    1.106   1_556 S
C1716  H1722   1.092   .     S
C1716  C1717   1.528   .     S
C1716  H497    1.096   1_556 S
C1717  H1718   1.109   .     S
C1717  H1720   1.110   .     S
C1717  H495    1.110   1_556 S
C1725  C1726   1.522   .     S
C1725  H1733   1.078   .     S
C1725  H1734   1.106   .     S
C1726  H1732   1.111   .     S
C1726  C1727   1.522   .     S
C1727  H1728   1.111   .     S
C1727  H1730   1.108   .     S
C1727  H1729   1.112   .     S
H1731  C502    1.103   1_556 S
O1735  C1739   1.305   .     A
O1735  Cu1747  1.988   .     S
O1736  C1740   1.302   .     A
O1736  Cu1748  1.988   .     S
O1737  Cu1748  1.990   .     S
O1737  C1739   1.322   .     A
O1738  Cu1747  1.990   .     S
O1738  C1740   1.324   .     A
C1739  C1769   1.461   .     S
C1740  C1770   1.457   .     S
O1741  C1745   1.315   .     A
O1741  Cu1747  1.961   .     S
O1742  C1746   1.316   .     A
O1742  Cu1748  1.961   .     S
O1743  Cu1748  1.951   .     S
O1743  C1745   1.309   .     A
O1744  C1746   1.313   .     A
O1744  Cu1747  1.951   .     S
C1745  C1752   1.446   .     S
C1746  C1751   1.451   .     S
Cu1747 Cu1748  2.752   .     S
Cu1747 N1772   2.068   .     S
Cu1748 N1771   2.068   .     S
C1749  C1759   1.414   .     A
C1749  C1751   1.397   .     A
C1749  H1765   1.081   .     S
C1750  C1760   1.407   .     A
C1750  H1766   1.077   .     S
C1750  C1752   1.388   .     A
C1751  C1753   1.381   .     A
C1752  C1754   1.381   .     A
C1753  C1755   1.396   .     A
C1753  H1767   1.084   .     S
C1754  H1768   1.081   .     S
C1754  C1756   1.400   .     A
C1755  C1761   1.411   .     A
C1755  C1757   1.413   .     A
C1756  C1762   1.412   .     A
C1756  C1758   1.414   .     A
C1757  C1759   1.427   .     A
C1757  C1656   1.400   1_655 S
C1758  C1760   1.427   .     A
C1759  C1764   1.430   .     A
C1760  C1763   1.426   .     A
C1761  O1773   1.372   .     S
C1761  C1661   1.414   1_655 S
C1762  O1775   1.376   .     S
C1763  C1777   1.544   .     S
C1764  C1787   1.544   .     S
C1764  C1660   1.422   1_655 S
C1770  C1361   1.383   1_565 S
C1770  C1399   1.531   1_565 S
N1772  N547    1.294   1_556 S
N1772  C603    1.454   1_556 S
O1773  H1774   0.990   .     S
O1775  H1776   0.991   .     S
C1777  H1786   1.107   .     S
C1777  H1785   1.104   .     S
C1778  H1783   1.106   .     S
C1778  H1784   1.105   .     S
C1778  C1267   1.542   1_665 S
C1778  C1677   1.524   1_655 S
C1779  H1781   1.109   .     S
C1779  H1780   1.109   .     S
H1782  C1677   1.111   1_655 S
C1787  H1795   1.107   .     S
C1787  H1796   1.108   .     S
C1787  C1278   1.543   1_665 S
C1788  H1794   1.108   .     S
C1788  H1793   1.104   .     S
C1789  H1790   1.106   .     S
C1789  H1791   1.108   .     S
C1789  C1686   1.519   1_655 S
C1789  H1690   1.111   1_655 S
C1797  H1805   1.110   .     S
C1797  H1806   1.113   .     S
C1797  C1361   1.544   1_565 S
C1797  C1390   1.538   1_565 S
C1798  H1804   1.108   .     S
C1798  H1803   1.108   .     S
C1799  H1801   1.107   .     S
C1799  C1390   1.517   1_565 S
C1799  H1394   1.108   1_565 S
H1800  C575    1.104   1_556 S
C1807  C1808   1.534   .     S
C1807  H1815   1.109   .     S
C1808  C1809   1.525   .     S
C1808  H1813   1.112   .     S
C1808  H1814   1.105   .     S
C1809  H1810   1.106   .     S
C1809  H1811   1.107   .     S
C1809  H1812   1.108   .     S
H1816  C1399   1.097   1_565 S
C1817  C1818   1.560   .     S
C1817  H1825   1.103   .     S
C1817  N547    1.451   1_556 S
C1817  H602    1.106   1_556 S
C1818  H1824   1.092   .     S
C1818  C1819   1.528   .     S
C1818  H599    1.096   1_556 S
C1819  H1820   1.109   .     S
C1819  H1822   1.110   .     S
C1819  H597    1.110   1_556 S
C1827  C1828   1.522   .     S
C1827  H1835   1.078   .     S
C1827  H1836   1.106   .     S
C1828  H1834   1.111   .     S
C1828  C1829   1.522   .     S
C1829  H1830   1.111   .     S
C1829  H1832   1.108   .     S
C1829  H1831   1.112   .     S
H1833  C604    1.103   1_556 S
