data_str_m2_o1_o16_pcu_sym.32
_audit_creation_date              2020-01-03
_audit_creation_method            'Materials Studio'
_symmetry_space_group_name_H-M    'P1'
_symmetry_Int_Tables_number       1
_symmetry_cell_setting            triclinic
loop_
_symmetry_equiv_pos_as_xyz
  x,y,z
_cell_length_a                    28.5875
_cell_length_b                    32.4329
_cell_length_c                    26.7477
_cell_angle_alpha                 90.1268
_cell_angle_beta                  73.1459
_cell_angle_gamma                 90.0235
loop_
_atom_site_label
_atom_site_type_symbol
_atom_site_fract_x
_atom_site_fract_y
_atom_site_fract_z
_atom_site_U_iso_or_equiv
_atom_site_adp_type
_atom_site_occupancy
C1     C     0.16663   0.24592   0.25017   0.00000  Uiso   1.00
C2     C     0.12772   0.14689   0.40448   0.00000  Uiso   1.00
C3     C     0.20977   0.31224   0.23134   0.00000  Uiso   1.00
C4     C     0.14125   0.16024   0.34911   0.00000  Uiso   1.00
C5     C     0.20928   0.02153   0.23253   0.00000  Uiso   1.00
C6     C     0.16545   0.04273   0.25491   0.00000  Uiso   1.00
C7     C     0.12177   0.02064   0.27800   0.00000  Uiso   1.00
C8     C     0.12240   0.31131   0.27434   0.00000  Uiso   1.00
C9     C     0.16624   0.29047   0.25153   0.00000  Uiso   1.00
C10    C     0.29924   0.19067   0.28441   0.00000  Uiso   1.00
C11    C     0.01547   0.19061   0.28445   0.00000  Uiso   1.00
C12    C     0.14824   0.14222   0.48695   0.00000  Uiso   1.00
C13    C     0.03407   0.14261   0.21564   0.00000  Uiso   1.00
C14    C     0.31781   0.14261   0.21567   0.00000  Uiso   1.00
C15    C     0.16610   0.08741   0.25198   0.00000  Uiso   1.00
C16    C     0.19261   0.16669   0.14986   0.00000  Uiso   1.00
C17    C     0.26893   0.16370   0.00903   0.00000  Uiso   1.00
C18    C     0.20719   0.16414   0.09268   0.00000  Uiso   1.00
C19    C     0.07816   0.14171   0.43178   0.00000  Uiso   1.00
C20    C     0.06416   0.13383   0.48518   0.00000  Uiso   1.00
C21    C     0.09817   0.13621   0.01307   0.00000  Uiso   1.00
C22    C     0.16343   0.14065   0.43161   0.00000  Uiso   1.00
C23    C     0.18387   0.14950   0.01354   0.00000  Uiso   1.00
C24    C     0.23379   0.15226   0.48452   0.00000  Uiso   1.00
C25    C     0.24839   0.14155   0.43184   0.00000  Uiso   1.00
C26    C     0.21343   0.13235   0.40616   0.00000  Uiso   1.00
C27    C     0.17138   0.15587   0.06771   0.00000  Uiso   1.00
C28    C     0.25598   0.16893   0.06298   0.00000  Uiso   1.00
Cu29   Cu    0.11978   0.16666   0.25000   0.00000  Uiso   1.00
Cu30   Cu    0.21355   0.16667   0.25000   0.00000  Uiso   1.00
H31    H     0.28401   0.17653   0.08138   0.00000  Uiso   1.00
H32    H     0.13389   0.15457   0.09136   0.00000  Uiso   1.00
H33    H     0.05023   0.14334   0.41181   0.00000  Uiso   1.00
H34    H     0.08433   0.13193   0.05471   0.00000  Uiso   1.00
H35    H     0.02654   0.12714   0.00580   0.00000  Uiso   1.00
H36    H     0.24390   0.29634   0.21362   0.00000  Uiso   1.00
H37    H     0.08614   0.06430   0.32246   0.00000  Uiso   1.00
H38    H     0.26261   0.10692   0.34786   0.00000  Uiso   1.00
H39    H     0.24309   0.03793   0.21501   0.00000  Uiso   1.00
H40    H     0.08889   0.29435   0.29141   0.00000  Uiso   1.00
H41    H     0.27313   0.20991   0.31200   0.00000  Uiso   1.00
H42    H     0.02667   0.20983   0.31203   0.00000  Uiso   1.00
H43    H     0.06016   0.12329   0.18813   0.00000  Uiso   1.00
H44    H     0.30658   0.12330   0.18819   0.00000  Uiso   1.00
H45    H     0.28697   0.13870   0.41123   0.00000  Uiso   1.00
H46    H     0.30635   0.16864   0.48614   0.00000  Uiso   1.00
N47    N     0.04931   0.16666   0.24999   0.00000  Uiso   1.00
N48    N     0.28402   0.16669   0.25000   0.00000  Uiso   1.00
O49    O     0.12708   0.22678   0.25001   0.00000  Uiso   1.00
O50    O     0.22666   0.11091   0.35941   0.00000  Uiso   1.00
O51    O     0.20627   0.22679   0.25001   0.00000  Uiso   1.00
O52    O     0.10775   0.16665   0.32549   0.00000  Uiso   1.00
O53    O     0.18694   0.16666   0.32549   0.00000  Uiso   1.00
O54    O     0.12706   0.10654   0.25000   0.00000  Uiso   1.00
O55    O     0.20625   0.10655   0.25000   0.00000  Uiso   1.00
O56    O     0.14640   0.16667   0.17451   0.00000  Uiso   1.00
O57    O     0.22559   0.16668   0.17451   0.00000  Uiso   1.00
O58    O     0.07843   0.03919   0.30525   0.00000  Uiso   1.00
C59    C     0.49997   0.24592   0.25017   0.00000  Uiso   1.00
C60    C     0.46105   0.14689   0.40448   0.00000  Uiso   1.00
C61    C     0.54310   0.31224   0.23134   0.00000  Uiso   1.00
C62    C     0.47459   0.16024   0.34911   0.00000  Uiso   1.00
C63    C     0.54262   0.02153   0.23253   0.00000  Uiso   1.00
C64    C     0.49879   0.04273   0.25491   0.00000  Uiso   1.00
C65    C     0.45510   0.02064   0.27800   0.00000  Uiso   1.00
C66    C     0.45573   0.31131   0.27434   0.00000  Uiso   1.00
C67    C     0.49957   0.29047   0.25153   0.00000  Uiso   1.00
C68    C     0.63257   0.19067   0.28441   0.00000  Uiso   1.00
C69    C     0.34881   0.19061   0.28445   0.00000  Uiso   1.00
C70    C     0.48158   0.14222   0.48695   0.00000  Uiso   1.00
C71    C     0.36741   0.14261   0.21564   0.00000  Uiso   1.00
C72    C     0.65115   0.14261   0.21567   0.00000  Uiso   1.00
C73    C     0.49943   0.08741   0.25198   0.00000  Uiso   1.00
C74    C     0.52594   0.16669   0.14986   0.00000  Uiso   1.00
C75    C     0.60226   0.16370   0.00903   0.00000  Uiso   1.00
C76    C     0.54053   0.16414   0.09268   0.00000  Uiso   1.00
C77    C     0.41149   0.14171   0.43178   0.00000  Uiso   1.00
C78    C     0.39750   0.13383   0.48518   0.00000  Uiso   1.00
C79    C     0.43150   0.13621   0.01307   0.00000  Uiso   1.00
C80    C     0.49676   0.14065   0.43161   0.00000  Uiso   1.00
C81    C     0.51721   0.14950   0.01354   0.00000  Uiso   1.00
C82    C     0.56713   0.15226   0.48452   0.00000  Uiso   1.00
C83    C     0.58172   0.14155   0.43184   0.00000  Uiso   1.00
C84    C     0.54676   0.13235   0.40616   0.00000  Uiso   1.00
C85    C     0.50471   0.15587   0.06771   0.00000  Uiso   1.00
C86    C     0.58931   0.16893   0.06298   0.00000  Uiso   1.00
Cu87   Cu    0.45311   0.16666   0.25000   0.00000  Uiso   1.00
Cu88   Cu    0.54689   0.16667   0.25000   0.00000  Uiso   1.00
H89    H     0.61734   0.17653   0.08138   0.00000  Uiso   1.00
H90    H     0.46723   0.15457   0.09136   0.00000  Uiso   1.00
H91    H     0.38356   0.14334   0.41181   0.00000  Uiso   1.00
H92    H     0.41766   0.13193   0.05471   0.00000  Uiso   1.00
H93    H     0.35988   0.12714   0.00580   0.00000  Uiso   1.00
H94    H     0.57724   0.29634   0.21362   0.00000  Uiso   1.00
H95    H     0.41948   0.06430   0.32246   0.00000  Uiso   1.00
H96    H     0.59594   0.10692   0.34786   0.00000  Uiso   1.00
H97    H     0.57642   0.03793   0.21501   0.00000  Uiso   1.00
H98    H     0.42222   0.29435   0.29141   0.00000  Uiso   1.00
H99    H     0.60647   0.20991   0.31200   0.00000  Uiso   1.00
H100   H     0.36001   0.20983   0.31203   0.00000  Uiso   1.00
H101   H     0.39349   0.12329   0.18813   0.00000  Uiso   1.00
H102   H     0.63991   0.12330   0.18819   0.00000  Uiso   1.00
H103   H     0.62031   0.13870   0.41123   0.00000  Uiso   1.00
H104   H     0.63968   0.16864   0.48614   0.00000  Uiso   1.00
N105   N     0.38265   0.16666   0.24999   0.00000  Uiso   1.00
N106   N     0.61735   0.16669   0.25000   0.00000  Uiso   1.00
O107   O     0.46042   0.22678   0.25001   0.00000  Uiso   1.00
O108   O     0.55999   0.11091   0.35941   0.00000  Uiso   1.00
O109   O     0.53961   0.22679   0.25001   0.00000  Uiso   1.00
O110   O     0.44108   0.16665   0.32549   0.00000  Uiso   1.00
O111   O     0.52027   0.16666   0.32549   0.00000  Uiso   1.00
O112   O     0.46039   0.10654   0.25000   0.00000  Uiso   1.00
O113   O     0.53958   0.10655   0.25000   0.00000  Uiso   1.00
O114   O     0.47973   0.16667   0.17451   0.00000  Uiso   1.00
O115   O     0.55892   0.16668   0.17451   0.00000  Uiso   1.00
O116   O     0.41176   0.03919   0.30525   0.00000  Uiso   1.00
C117   C     0.83330   0.24592   0.25017   0.00000  Uiso   1.00
C118   C     0.79438   0.14689   0.40448   0.00000  Uiso   1.00
C119   C     0.87643   0.31224   0.23134   0.00000  Uiso   1.00
C120   C     0.80792   0.16024   0.34911   0.00000  Uiso   1.00
C121   C     0.87595   0.02153   0.23253   0.00000  Uiso   1.00
C122   C     0.83212   0.04273   0.25491   0.00000  Uiso   1.00
C123   C     0.78843   0.02064   0.27800   0.00000  Uiso   1.00
C124   C     0.78906   0.31131   0.27434   0.00000  Uiso   1.00
C125   C     0.83290   0.29047   0.25153   0.00000  Uiso   1.00
C126   C     0.96591   0.19067   0.28441   0.00000  Uiso   1.00
C127   C     0.68214   0.19061   0.28445   0.00000  Uiso   1.00
C128   C     0.81491   0.14222   0.48695   0.00000  Uiso   1.00
C129   C     0.70074   0.14261   0.21564   0.00000  Uiso   1.00
C130   C     0.98448   0.14261   0.21567   0.00000  Uiso   1.00
C131   C     0.83276   0.08741   0.25198   0.00000  Uiso   1.00
C132   C     0.85928   0.16669   0.14986   0.00000  Uiso   1.00
C133   C     0.93560   0.16370   0.00903   0.00000  Uiso   1.00
C134   C     0.87386   0.16414   0.09268   0.00000  Uiso   1.00
C135   C     0.74482   0.14171   0.43178   0.00000  Uiso   1.00
C136   C     0.73083   0.13383   0.48518   0.00000  Uiso   1.00
C137   C     0.76483   0.13621   0.01307   0.00000  Uiso   1.00
C138   C     0.83009   0.14065   0.43161   0.00000  Uiso   1.00
C139   C     0.85054   0.14950   0.01354   0.00000  Uiso   1.00
C140   C     0.90046   0.15226   0.48452   0.00000  Uiso   1.00
C141   C     0.91506   0.14155   0.43184   0.00000  Uiso   1.00
C142   C     0.88009   0.13235   0.40616   0.00000  Uiso   1.00
C143   C     0.83805   0.15587   0.06771   0.00000  Uiso   1.00
C144   C     0.92264   0.16893   0.06298   0.00000  Uiso   1.00
Cu145  Cu    0.78645   0.16666   0.25000   0.00000  Uiso   1.00
Cu146  Cu    0.88022   0.16667   0.25000   0.00000  Uiso   1.00
H147   H     0.95068   0.17653   0.08138   0.00000  Uiso   1.00
H148   H     0.80056   0.15457   0.09136   0.00000  Uiso   1.00
H149   H     0.71690   0.14334   0.41181   0.00000  Uiso   1.00
H150   H     0.75099   0.13193   0.05471   0.00000  Uiso   1.00
H151   H     0.69321   0.12714   0.00580   0.00000  Uiso   1.00
H152   H     0.91057   0.29634   0.21362   0.00000  Uiso   1.00
H153   H     0.75281   0.06430   0.32246   0.00000  Uiso   1.00
H154   H     0.92928   0.10692   0.34786   0.00000  Uiso   1.00
H155   H     0.90975   0.03793   0.21501   0.00000  Uiso   1.00
H156   H     0.75556   0.29435   0.29141   0.00000  Uiso   1.00
H157   H     0.93980   0.20991   0.31200   0.00000  Uiso   1.00
H158   H     0.69334   0.20983   0.31203   0.00000  Uiso   1.00
H159   H     0.72682   0.12329   0.18813   0.00000  Uiso   1.00
H160   H     0.97325   0.12330   0.18819   0.00000  Uiso   1.00
H161   H     0.95364   0.13870   0.41123   0.00000  Uiso   1.00
H162   H     0.97302   0.16864   0.48614   0.00000  Uiso   1.00
N163   N     0.71598   0.16666   0.24999   0.00000  Uiso   1.00
N164   N     0.95069   0.16669   0.25000   0.00000  Uiso   1.00
O165   O     0.79375   0.22678   0.25001   0.00000  Uiso   1.00
O166   O     0.89333   0.11091   0.35941   0.00000  Uiso   1.00
O167   O     0.87294   0.22679   0.25001   0.00000  Uiso   1.00
O168   O     0.77441   0.16665   0.32549   0.00000  Uiso   1.00
O169   O     0.85360   0.16666   0.32549   0.00000  Uiso   1.00
O170   O     0.79373   0.10654   0.25000   0.00000  Uiso   1.00
O171   O     0.87292   0.10655   0.25000   0.00000  Uiso   1.00
O172   O     0.81306   0.16667   0.17451   0.00000  Uiso   1.00
O173   O     0.89225   0.16668   0.17451   0.00000  Uiso   1.00
O174   O     0.74510   0.03919   0.30525   0.00000  Uiso   1.00
C175   C     0.16663   0.57925   0.25017   0.00000  Uiso   1.00
C176   C     0.12772   0.48023   0.40448   0.00000  Uiso   1.00
C177   C     0.20977   0.64557   0.23134   0.00000  Uiso   1.00
C178   C     0.14125   0.49358   0.34911   0.00000  Uiso   1.00
C179   C     0.20928   0.35486   0.23253   0.00000  Uiso   1.00
C180   C     0.16545   0.37607   0.25491   0.00000  Uiso   1.00
C181   C     0.12177   0.35398   0.27800   0.00000  Uiso   1.00
C182   C     0.12240   0.64464   0.27434   0.00000  Uiso   1.00
C183   C     0.16624   0.62380   0.25153   0.00000  Uiso   1.00
C184   C     0.29924   0.52400   0.28441   0.00000  Uiso   1.00
C185   C     0.01547   0.52394   0.28445   0.00000  Uiso   1.00
C186   C     0.14824   0.47556   0.48695   0.00000  Uiso   1.00
C187   C     0.03407   0.47595   0.21564   0.00000  Uiso   1.00
C188   C     0.31781   0.47594   0.21567   0.00000  Uiso   1.00
C189   C     0.16610   0.42074   0.25198   0.00000  Uiso   1.00
C190   C     0.19261   0.50002   0.14986   0.00000  Uiso   1.00
C191   C     0.26893   0.49704   0.00903   0.00000  Uiso   1.00
C192   C     0.20719   0.49747   0.09268   0.00000  Uiso   1.00
C193   C     0.07816   0.47504   0.43178   0.00000  Uiso   1.00
C194   C     0.06416   0.46716   0.48518   0.00000  Uiso   1.00
C195   C     0.09817   0.46955   0.01307   0.00000  Uiso   1.00
C196   C     0.16343   0.47399   0.43161   0.00000  Uiso   1.00
C197   C     0.18387   0.48283   0.01354   0.00000  Uiso   1.00
C198   C     0.23379   0.48559   0.48452   0.00000  Uiso   1.00
C199   C     0.24839   0.47489   0.43184   0.00000  Uiso   1.00
C200   C     0.21343   0.46569   0.40616   0.00000  Uiso   1.00
C201   C     0.17138   0.48920   0.06771   0.00000  Uiso   1.00
C202   C     0.25598   0.50226   0.06298   0.00000  Uiso   1.00
Cu203  Cu    0.11978   0.49999   0.25000   0.00000  Uiso   1.00
Cu204  Cu    0.21355   0.50001   0.25000   0.00000  Uiso   1.00
H205   H     0.28401   0.50986   0.08138   0.00000  Uiso   1.00
H206   H     0.13389   0.48790   0.09136   0.00000  Uiso   1.00
H207   H     0.05023   0.47667   0.41181   0.00000  Uiso   1.00
H208   H     0.08433   0.46526   0.05471   0.00000  Uiso   1.00
H209   H     0.02654   0.46047   0.00580   0.00000  Uiso   1.00
H210   H     0.24390   0.62967   0.21362   0.00000  Uiso   1.00
H211   H     0.08614   0.39763   0.32246   0.00000  Uiso   1.00
H212   H     0.26261   0.44026   0.34786   0.00000  Uiso   1.00
H213   H     0.24309   0.37126   0.21501   0.00000  Uiso   1.00
H214   H     0.08889   0.62768   0.29141   0.00000  Uiso   1.00
H215   H     0.27313   0.54324   0.31200   0.00000  Uiso   1.00
H216   H     0.02667   0.54316   0.31203   0.00000  Uiso   1.00
H217   H     0.06016   0.45663   0.18813   0.00000  Uiso   1.00
H218   H     0.30658   0.45664   0.18819   0.00000  Uiso   1.00
H219   H     0.28697   0.47204   0.41123   0.00000  Uiso   1.00
H220   H     0.30635   0.50197   0.48614   0.00000  Uiso   1.00
N221   N     0.04931   0.49999   0.24999   0.00000  Uiso   1.00
N222   N     0.28402   0.50002   0.25000   0.00000  Uiso   1.00
O223   O     0.12708   0.56011   0.25001   0.00000  Uiso   1.00
O224   O     0.22666   0.44424   0.35941   0.00000  Uiso   1.00
O225   O     0.20627   0.56012   0.25001   0.00000  Uiso   1.00
O226   O     0.10775   0.49998   0.32549   0.00000  Uiso   1.00
O227   O     0.18694   0.49999   0.32549   0.00000  Uiso   1.00
O228   O     0.12706   0.43988   0.25000   0.00000  Uiso   1.00
O229   O     0.20625   0.43989   0.25000   0.00000  Uiso   1.00
O230   O     0.14640   0.50001   0.17451   0.00000  Uiso   1.00
O231   O     0.22559   0.50002   0.17451   0.00000  Uiso   1.00
O232   O     0.07843   0.37252   0.30525   0.00000  Uiso   1.00
C233   C     0.49997   0.57925   0.25017   0.00000  Uiso   1.00
C234   C     0.46105   0.48023   0.40448   0.00000  Uiso   1.00
C235   C     0.54310   0.64557   0.23134   0.00000  Uiso   1.00
C236   C     0.47459   0.49358   0.34911   0.00000  Uiso   1.00
C237   C     0.54262   0.35486   0.23253   0.00000  Uiso   1.00
C238   C     0.49879   0.37607   0.25491   0.00000  Uiso   1.00
C239   C     0.45510   0.35398   0.27800   0.00000  Uiso   1.00
C240   C     0.45573   0.64464   0.27434   0.00000  Uiso   1.00
C241   C     0.49957   0.62380   0.25153   0.00000  Uiso   1.00
C242   C     0.63257   0.52400   0.28441   0.00000  Uiso   1.00
C243   C     0.34881   0.52394   0.28445   0.00000  Uiso   1.00
C244   C     0.48158   0.47556   0.48695   0.00000  Uiso   1.00
C245   C     0.36741   0.47595   0.21564   0.00000  Uiso   1.00
C246   C     0.65115   0.47594   0.21567   0.00000  Uiso   1.00
C247   C     0.49943   0.42074   0.25198   0.00000  Uiso   1.00
C248   C     0.52594   0.50002   0.14986   0.00000  Uiso   1.00
C249   C     0.60226   0.49704   0.00903   0.00000  Uiso   1.00
C250   C     0.54053   0.49747   0.09268   0.00000  Uiso   1.00
C251   C     0.41149   0.47504   0.43178   0.00000  Uiso   1.00
C252   C     0.39750   0.46716   0.48518   0.00000  Uiso   1.00
C253   C     0.43150   0.46955   0.01307   0.00000  Uiso   1.00
C254   C     0.49676   0.47399   0.43161   0.00000  Uiso   1.00
C255   C     0.51721   0.48283   0.01354   0.00000  Uiso   1.00
C256   C     0.56713   0.48559   0.48452   0.00000  Uiso   1.00
C257   C     0.58172   0.47489   0.43184   0.00000  Uiso   1.00
C258   C     0.54676   0.46569   0.40616   0.00000  Uiso   1.00
C259   C     0.50471   0.48920   0.06771   0.00000  Uiso   1.00
C260   C     0.58931   0.50226   0.06298   0.00000  Uiso   1.00
Cu261  Cu    0.45311   0.49999   0.25000   0.00000  Uiso   1.00
Cu262  Cu    0.54689   0.50001   0.25000   0.00000  Uiso   1.00
H263   H     0.61734   0.50986   0.08138   0.00000  Uiso   1.00
H264   H     0.46723   0.48790   0.09136   0.00000  Uiso   1.00
H265   H     0.38356   0.47667   0.41181   0.00000  Uiso   1.00
H266   H     0.41766   0.46526   0.05471   0.00000  Uiso   1.00
H267   H     0.35988   0.46047   0.00580   0.00000  Uiso   1.00
H268   H     0.57724   0.62967   0.21362   0.00000  Uiso   1.00
H269   H     0.41948   0.39763   0.32246   0.00000  Uiso   1.00
H270   H     0.59594   0.44026   0.34786   0.00000  Uiso   1.00
H271   H     0.57642   0.37126   0.21501   0.00000  Uiso   1.00
H272   H     0.42222   0.62768   0.29141   0.00000  Uiso   1.00
H273   H     0.60647   0.54324   0.31200   0.00000  Uiso   1.00
H274   H     0.36001   0.54316   0.31203   0.00000  Uiso   1.00
H275   H     0.39349   0.45663   0.18813   0.00000  Uiso   1.00
H276   H     0.63991   0.45664   0.18819   0.00000  Uiso   1.00
H277   H     0.62031   0.47204   0.41123   0.00000  Uiso   1.00
H278   H     0.63968   0.50197   0.48614   0.00000  Uiso   1.00
N279   N     0.38265   0.49999   0.24999   0.00000  Uiso   1.00
N280   N     0.61735   0.50002   0.25000   0.00000  Uiso   1.00
O281   O     0.46042   0.56011   0.25001   0.00000  Uiso   1.00
O282   O     0.55999   0.44424   0.35941   0.00000  Uiso   1.00
O283   O     0.53961   0.56012   0.25001   0.00000  Uiso   1.00
O284   O     0.44108   0.49998   0.32549   0.00000  Uiso   1.00
O285   O     0.52027   0.49999   0.32549   0.00000  Uiso   1.00
O286   O     0.46039   0.43988   0.25000   0.00000  Uiso   1.00
O287   O     0.53958   0.43989   0.25000   0.00000  Uiso   1.00
O288   O     0.47973   0.50001   0.17451   0.00000  Uiso   1.00
O289   O     0.55892   0.50002   0.17451   0.00000  Uiso   1.00
O290   O     0.41176   0.37252   0.30525   0.00000  Uiso   1.00
C291   C     0.83330   0.57925   0.25017   0.00000  Uiso   1.00
C292   C     0.79438   0.48023   0.40448   0.00000  Uiso   1.00
C293   C     0.87643   0.64557   0.23134   0.00000  Uiso   1.00
C294   C     0.80792   0.49358   0.34911   0.00000  Uiso   1.00
C295   C     0.87595   0.35486   0.23253   0.00000  Uiso   1.00
C296   C     0.83212   0.37607   0.25491   0.00000  Uiso   1.00
C297   C     0.78843   0.35398   0.27800   0.00000  Uiso   1.00
C298   C     0.78906   0.64464   0.27434   0.00000  Uiso   1.00
C299   C     0.83290   0.62380   0.25153   0.00000  Uiso   1.00
C300   C     0.96591   0.52400   0.28441   0.00000  Uiso   1.00
C301   C     0.68214   0.52394   0.28445   0.00000  Uiso   1.00
C302   C     0.81491   0.47556   0.48695   0.00000  Uiso   1.00
C303   C     0.70074   0.47595   0.21564   0.00000  Uiso   1.00
C304   C     0.98448   0.47594   0.21567   0.00000  Uiso   1.00
C305   C     0.83276   0.42074   0.25198   0.00000  Uiso   1.00
C306   C     0.85928   0.50002   0.14986   0.00000  Uiso   1.00
C307   C     0.93560   0.49704   0.00903   0.00000  Uiso   1.00
C308   C     0.87386   0.49747   0.09268   0.00000  Uiso   1.00
C309   C     0.74482   0.47504   0.43178   0.00000  Uiso   1.00
C310   C     0.73083   0.46716   0.48518   0.00000  Uiso   1.00
C311   C     0.76483   0.46955   0.01307   0.00000  Uiso   1.00
C312   C     0.83009   0.47399   0.43161   0.00000  Uiso   1.00
C313   C     0.85054   0.48283   0.01354   0.00000  Uiso   1.00
C314   C     0.90046   0.48559   0.48452   0.00000  Uiso   1.00
C315   C     0.91506   0.47489   0.43184   0.00000  Uiso   1.00
C316   C     0.88009   0.46569   0.40616   0.00000  Uiso   1.00
C317   C     0.83805   0.48920   0.06771   0.00000  Uiso   1.00
C318   C     0.92264   0.50226   0.06298   0.00000  Uiso   1.00
Cu319  Cu    0.78645   0.49999   0.25000   0.00000  Uiso   1.00
Cu320  Cu    0.88022   0.50001   0.25000   0.00000  Uiso   1.00
H321   H     0.95068   0.50986   0.08138   0.00000  Uiso   1.00
H322   H     0.80056   0.48790   0.09136   0.00000  Uiso   1.00
H323   H     0.71690   0.47667   0.41181   0.00000  Uiso   1.00
H324   H     0.75099   0.46526   0.05471   0.00000  Uiso   1.00
H325   H     0.69321   0.46047   0.00580   0.00000  Uiso   1.00
H326   H     0.91057   0.62967   0.21362   0.00000  Uiso   1.00
H327   H     0.75281   0.39763   0.32246   0.00000  Uiso   1.00
H328   H     0.92928   0.44026   0.34786   0.00000  Uiso   1.00
H329   H     0.90975   0.37126   0.21501   0.00000  Uiso   1.00
H330   H     0.75556   0.62768   0.29141   0.00000  Uiso   1.00
H331   H     0.93980   0.54324   0.31200   0.00000  Uiso   1.00
H332   H     0.69334   0.54316   0.31203   0.00000  Uiso   1.00
H333   H     0.72682   0.45663   0.18813   0.00000  Uiso   1.00
H334   H     0.97325   0.45664   0.18819   0.00000  Uiso   1.00
H335   H     0.95364   0.47204   0.41123   0.00000  Uiso   1.00
H336   H     0.97302   0.50197   0.48614   0.00000  Uiso   1.00
N337   N     0.71598   0.49999   0.24999   0.00000  Uiso   1.00
N338   N     0.95069   0.50002   0.25000   0.00000  Uiso   1.00
O339   O     0.79375   0.56011   0.25001   0.00000  Uiso   1.00
O340   O     0.89333   0.44424   0.35941   0.00000  Uiso   1.00
O341   O     0.87294   0.56012   0.25001   0.00000  Uiso   1.00
O342   O     0.77441   0.49998   0.32549   0.00000  Uiso   1.00
O343   O     0.85360   0.49999   0.32549   0.00000  Uiso   1.00
O344   O     0.79373   0.43988   0.25000   0.00000  Uiso   1.00
O345   O     0.87292   0.43989   0.25000   0.00000  Uiso   1.00
O346   O     0.81306   0.50001   0.17451   0.00000  Uiso   1.00
O347   O     0.89225   0.50002   0.17451   0.00000  Uiso   1.00
O348   O     0.74510   0.37252   0.30525   0.00000  Uiso   1.00
C349   C     0.16663   0.91259   0.25017   0.00000  Uiso   1.00
C350   C     0.12772   0.81356   0.40448   0.00000  Uiso   1.00
C351   C     0.20977   0.97891   0.23134   0.00000  Uiso   1.00
C352   C     0.14125   0.82691   0.34911   0.00000  Uiso   1.00
C353   C     0.20928   0.68820   0.23253   0.00000  Uiso   1.00
C354   C     0.16545   0.70940   0.25491   0.00000  Uiso   1.00
C355   C     0.12177   0.68731   0.27800   0.00000  Uiso   1.00
C356   C     0.12240   0.97797   0.27434   0.00000  Uiso   1.00
C357   C     0.16624   0.95713   0.25153   0.00000  Uiso   1.00
C358   C     0.29924   0.85733   0.28441   0.00000  Uiso   1.00
C359   C     0.01547   0.85728   0.28445   0.00000  Uiso   1.00
C360   C     0.14824   0.80889   0.48695   0.00000  Uiso   1.00
C361   C     0.03407   0.80928   0.21564   0.00000  Uiso   1.00
C362   C     0.31781   0.80928   0.21567   0.00000  Uiso   1.00
C363   C     0.16610   0.75408   0.25198   0.00000  Uiso   1.00
C364   C     0.19261   0.83336   0.14986   0.00000  Uiso   1.00
C365   C     0.26893   0.83037   0.00903   0.00000  Uiso   1.00
C366   C     0.20719   0.83080   0.09268   0.00000  Uiso   1.00
C367   C     0.07816   0.80837   0.43178   0.00000  Uiso   1.00
C368   C     0.06416   0.80050   0.48518   0.00000  Uiso   1.00
C369   C     0.09817   0.80288   0.01307   0.00000  Uiso   1.00
C370   C     0.16343   0.80732   0.43161   0.00000  Uiso   1.00
C371   C     0.18387   0.81617   0.01354   0.00000  Uiso   1.00
C372   C     0.23379   0.81893   0.48452   0.00000  Uiso   1.00
C373   C     0.24839   0.80822   0.43184   0.00000  Uiso   1.00
C374   C     0.21343   0.79902   0.40616   0.00000  Uiso   1.00
C375   C     0.17138   0.82254   0.06771   0.00000  Uiso   1.00
C376   C     0.25598   0.83559   0.06298   0.00000  Uiso   1.00
Cu377  Cu    0.11978   0.83333   0.25000   0.00000  Uiso   1.00
Cu378  Cu    0.21355   0.83334   0.25000   0.00000  Uiso   1.00
H379   H     0.28401   0.84320   0.08138   0.00000  Uiso   1.00
H380   H     0.13389   0.82124   0.09136   0.00000  Uiso   1.00
H381   H     0.05023   0.81001   0.41181   0.00000  Uiso   1.00
H382   H     0.08433   0.79860   0.05471   0.00000  Uiso   1.00
H383   H     0.02654   0.79380   0.00580   0.00000  Uiso   1.00
H384   H     0.24390   0.96301   0.21362   0.00000  Uiso   1.00
H385   H     0.08614   0.73096   0.32246   0.00000  Uiso   1.00
H386   H     0.26261   0.77359   0.34786   0.00000  Uiso   1.00
H387   H     0.24309   0.70460   0.21501   0.00000  Uiso   1.00
H388   H     0.08889   0.96102   0.29141   0.00000  Uiso   1.00
H389   H     0.27313   0.87657   0.31200   0.00000  Uiso   1.00
H390   H     0.02667   0.87649   0.31203   0.00000  Uiso   1.00
H391   H     0.06016   0.78996   0.18813   0.00000  Uiso   1.00
H392   H     0.30658   0.78997   0.18819   0.00000  Uiso   1.00
H393   H     0.28697   0.80537   0.41123   0.00000  Uiso   1.00
H394   H     0.30635   0.83530   0.48614   0.00000  Uiso   1.00
N395   N     0.04931   0.83332   0.24999   0.00000  Uiso   1.00
N396   N     0.28402   0.83335   0.25000   0.00000  Uiso   1.00
O397   O     0.12708   0.89345   0.25001   0.00000  Uiso   1.00
O398   O     0.22666   0.77758   0.35941   0.00000  Uiso   1.00
O399   O     0.20627   0.89346   0.25001   0.00000  Uiso   1.00
O400   O     0.10775   0.83332   0.32549   0.00000  Uiso   1.00
O401   O     0.18694   0.83333   0.32549   0.00000  Uiso   1.00
O402   O     0.12706   0.77321   0.25000   0.00000  Uiso   1.00
O403   O     0.20625   0.77322   0.25000   0.00000  Uiso   1.00
O404   O     0.14640   0.83334   0.17451   0.00000  Uiso   1.00
O405   O     0.22559   0.83335   0.17451   0.00000  Uiso   1.00
O406   O     0.07843   0.70586   0.30525   0.00000  Uiso   1.00
C407   C     0.49997   0.91259   0.25017   0.00000  Uiso   1.00
C408   C     0.46105   0.81356   0.40448   0.00000  Uiso   1.00
C409   C     0.54310   0.97891   0.23134   0.00000  Uiso   1.00
C410   C     0.47459   0.82691   0.34911   0.00000  Uiso   1.00
C411   C     0.54262   0.68820   0.23253   0.00000  Uiso   1.00
C412   C     0.49879   0.70940   0.25491   0.00000  Uiso   1.00
C413   C     0.45510   0.68731   0.27800   0.00000  Uiso   1.00
C414   C     0.45573   0.97797   0.27434   0.00000  Uiso   1.00
C415   C     0.49957   0.95713   0.25153   0.00000  Uiso   1.00
C416   C     0.63257   0.85733   0.28441   0.00000  Uiso   1.00
C417   C     0.34881   0.85728   0.28445   0.00000  Uiso   1.00
C418   C     0.48158   0.80889   0.48695   0.00000  Uiso   1.00
C419   C     0.36741   0.80928   0.21564   0.00000  Uiso   1.00
C420   C     0.65115   0.80928   0.21567   0.00000  Uiso   1.00
C421   C     0.49943   0.75408   0.25198   0.00000  Uiso   1.00
C422   C     0.52594   0.83336   0.14986   0.00000  Uiso   1.00
C423   C     0.60226   0.83037   0.00903   0.00000  Uiso   1.00
C424   C     0.54053   0.83080   0.09268   0.00000  Uiso   1.00
C425   C     0.41149   0.80837   0.43178   0.00000  Uiso   1.00
C426   C     0.39750   0.80050   0.48518   0.00000  Uiso   1.00
C427   C     0.43150   0.80288   0.01307   0.00000  Uiso   1.00
C428   C     0.49676   0.80732   0.43161   0.00000  Uiso   1.00
C429   C     0.51721   0.81617   0.01354   0.00000  Uiso   1.00
C430   C     0.56713   0.81893   0.48452   0.00000  Uiso   1.00
C431   C     0.58172   0.80822   0.43184   0.00000  Uiso   1.00
C432   C     0.54676   0.79902   0.40616   0.00000  Uiso   1.00
C433   C     0.50471   0.82254   0.06771   0.00000  Uiso   1.00
C434   C     0.58931   0.83559   0.06298   0.00000  Uiso   1.00
Cu435  Cu    0.45311   0.83333   0.25000   0.00000  Uiso   1.00
Cu436  Cu    0.54689   0.83334   0.25000   0.00000  Uiso   1.00
H437   H     0.61734   0.84320   0.08138   0.00000  Uiso   1.00
H438   H     0.46723   0.82124   0.09136   0.00000  Uiso   1.00
H439   H     0.38356   0.81001   0.41181   0.00000  Uiso   1.00
H440   H     0.41766   0.79860   0.05471   0.00000  Uiso   1.00
H441   H     0.35988   0.79380   0.00580   0.00000  Uiso   1.00
H442   H     0.57724   0.96301   0.21362   0.00000  Uiso   1.00
H443   H     0.41948   0.73096   0.32246   0.00000  Uiso   1.00
H444   H     0.59594   0.77359   0.34786   0.00000  Uiso   1.00
H445   H     0.57642   0.70460   0.21501   0.00000  Uiso   1.00
H446   H     0.42222   0.96102   0.29141   0.00000  Uiso   1.00
H447   H     0.60647   0.87657   0.31200   0.00000  Uiso   1.00
H448   H     0.36001   0.87649   0.31203   0.00000  Uiso   1.00
H449   H     0.39349   0.78996   0.18813   0.00000  Uiso   1.00
H450   H     0.63991   0.78997   0.18819   0.00000  Uiso   1.00
H451   H     0.62031   0.80537   0.41123   0.00000  Uiso   1.00
H452   H     0.63968   0.83530   0.48614   0.00000  Uiso   1.00
N453   N     0.38265   0.83332   0.24999   0.00000  Uiso   1.00
N454   N     0.61735   0.83335   0.25000   0.00000  Uiso   1.00
O455   O     0.46042   0.89345   0.25001   0.00000  Uiso   1.00
O456   O     0.55999   0.77758   0.35941   0.00000  Uiso   1.00
O457   O     0.53961   0.89346   0.25001   0.00000  Uiso   1.00
O458   O     0.44108   0.83332   0.32549   0.00000  Uiso   1.00
O459   O     0.52027   0.83333   0.32549   0.00000  Uiso   1.00
O460   O     0.46039   0.77321   0.25000   0.00000  Uiso   1.00
O461   O     0.53958   0.77322   0.25000   0.00000  Uiso   1.00
O462   O     0.47973   0.83334   0.17451   0.00000  Uiso   1.00
O463   O     0.55892   0.83335   0.17451   0.00000  Uiso   1.00
O464   O     0.41176   0.70586   0.30525   0.00000  Uiso   1.00
C465   C     0.83330   0.91259   0.25017   0.00000  Uiso   1.00
C466   C     0.79438   0.81356   0.40448   0.00000  Uiso   1.00
C467   C     0.87643   0.97891   0.23134   0.00000  Uiso   1.00
C468   C     0.80792   0.82691   0.34911   0.00000  Uiso   1.00
C469   C     0.87595   0.68820   0.23253   0.00000  Uiso   1.00
C470   C     0.83212   0.70940   0.25491   0.00000  Uiso   1.00
C471   C     0.78843   0.68731   0.27800   0.00000  Uiso   1.00
C472   C     0.78906   0.97797   0.27434   0.00000  Uiso   1.00
C473   C     0.83290   0.95713   0.25153   0.00000  Uiso   1.00
C474   C     0.96591   0.85733   0.28441   0.00000  Uiso   1.00
C475   C     0.68214   0.85728   0.28445   0.00000  Uiso   1.00
C476   C     0.81491   0.80889   0.48695   0.00000  Uiso   1.00
C477   C     0.70074   0.80928   0.21564   0.00000  Uiso   1.00
C478   C     0.98448   0.80928   0.21567   0.00000  Uiso   1.00
C479   C     0.83276   0.75408   0.25198   0.00000  Uiso   1.00
C480   C     0.85928   0.83336   0.14986   0.00000  Uiso   1.00
C481   C     0.93560   0.83037   0.00903   0.00000  Uiso   1.00
C482   C     0.87386   0.83080   0.09268   0.00000  Uiso   1.00
C483   C     0.74482   0.80837   0.43178   0.00000  Uiso   1.00
C484   C     0.73083   0.80050   0.48518   0.00000  Uiso   1.00
C485   C     0.76483   0.80288   0.01307   0.00000  Uiso   1.00
C486   C     0.83009   0.80732   0.43161   0.00000  Uiso   1.00
C487   C     0.85054   0.81617   0.01354   0.00000  Uiso   1.00
C488   C     0.90046   0.81893   0.48452   0.00000  Uiso   1.00
C489   C     0.91506   0.80822   0.43184   0.00000  Uiso   1.00
C490   C     0.88009   0.79902   0.40616   0.00000  Uiso   1.00
C491   C     0.83805   0.82254   0.06771   0.00000  Uiso   1.00
C492   C     0.92264   0.83559   0.06298   0.00000  Uiso   1.00
Cu493  Cu    0.78645   0.83333   0.25000   0.00000  Uiso   1.00
Cu494  Cu    0.88022   0.83334   0.25000   0.00000  Uiso   1.00
H495   H     0.95068   0.84320   0.08138   0.00000  Uiso   1.00
H496   H     0.80056   0.82124   0.09136   0.00000  Uiso   1.00
H497   H     0.71690   0.81001   0.41181   0.00000  Uiso   1.00
H498   H     0.75099   0.79860   0.05471   0.00000  Uiso   1.00
H499   H     0.69321   0.79380   0.00580   0.00000  Uiso   1.00
H500   H     0.91057   0.96301   0.21362   0.00000  Uiso   1.00
H501   H     0.75281   0.73096   0.32246   0.00000  Uiso   1.00
H502   H     0.92928   0.77359   0.34786   0.00000  Uiso   1.00
H503   H     0.90975   0.70460   0.21501   0.00000  Uiso   1.00
H504   H     0.75556   0.96102   0.29141   0.00000  Uiso   1.00
H505   H     0.93980   0.87657   0.31200   0.00000  Uiso   1.00
H506   H     0.69334   0.87649   0.31203   0.00000  Uiso   1.00
H507   H     0.72682   0.78996   0.18813   0.00000  Uiso   1.00
H508   H     0.97325   0.78997   0.18819   0.00000  Uiso   1.00
H509   H     0.95364   0.80537   0.41123   0.00000  Uiso   1.00
H510   H     0.97302   0.83530   0.48614   0.00000  Uiso   1.00
N511   N     0.71598   0.83332   0.24999   0.00000  Uiso   1.00
N512   N     0.95069   0.83335   0.25000   0.00000  Uiso   1.00
O513   O     0.79375   0.89345   0.25001   0.00000  Uiso   1.00
O514   O     0.89333   0.77758   0.35941   0.00000  Uiso   1.00
O515   O     0.87294   0.89346   0.25001   0.00000  Uiso   1.00
O516   O     0.77441   0.83332   0.32549   0.00000  Uiso   1.00
O517   O     0.85360   0.83333   0.32549   0.00000  Uiso   1.00
O518   O     0.79373   0.77321   0.25000   0.00000  Uiso   1.00
O519   O     0.87292   0.77322   0.25000   0.00000  Uiso   1.00
O520   O     0.81306   0.83334   0.17451   0.00000  Uiso   1.00
O521   O     0.89225   0.83335   0.17451   0.00000  Uiso   1.00
O522   O     0.74510   0.70586   0.30525   0.00000  Uiso   1.00
C523   C     0.16663   0.24592   0.75017   0.00000  Uiso   1.00
C524   C     0.12772   0.14689   0.90448   0.00000  Uiso   1.00
C525   C     0.20977   0.31224   0.73134   0.00000  Uiso   1.00
C526   C     0.14125   0.16024   0.84911   0.00000  Uiso   1.00
C527   C     0.20928   0.02153   0.73253   0.00000  Uiso   1.00
C528   C     0.16545   0.04273   0.75491   0.00000  Uiso   1.00
C529   C     0.12177   0.02064   0.77800   0.00000  Uiso   1.00
C530   C     0.12240   0.31131   0.77434   0.00000  Uiso   1.00
C531   C     0.16624   0.29047   0.75153   0.00000  Uiso   1.00
C532   C     0.29924   0.19067   0.78441   0.00000  Uiso   1.00
C533   C     0.01547   0.19061   0.78445   0.00000  Uiso   1.00
C534   C     0.14824   0.14222   0.98695   0.00000  Uiso   1.00
C535   C     0.03407   0.14261   0.71564   0.00000  Uiso   1.00
C536   C     0.31781   0.14261   0.71567   0.00000  Uiso   1.00
C537   C     0.16610   0.08741   0.75198   0.00000  Uiso   1.00
C538   C     0.19261   0.16669   0.64986   0.00000  Uiso   1.00
C539   C     0.26893   0.16370   0.50903   0.00000  Uiso   1.00
C540   C     0.20719   0.16414   0.59268   0.00000  Uiso   1.00
C541   C     0.07816   0.14171   0.93178   0.00000  Uiso   1.00
C542   C     0.06416   0.13383   0.98518   0.00000  Uiso   1.00
C543   C     0.09817   0.13621   0.51307   0.00000  Uiso   1.00
C544   C     0.16343   0.14065   0.93161   0.00000  Uiso   1.00
C545   C     0.18387   0.14950   0.51354   0.00000  Uiso   1.00
C546   C     0.23379   0.15226   0.98452   0.00000  Uiso   1.00
C547   C     0.24839   0.14155   0.93184   0.00000  Uiso   1.00
C548   C     0.21343   0.13235   0.90616   0.00000  Uiso   1.00
C549   C     0.17138   0.15587   0.56771   0.00000  Uiso   1.00
C550   C     0.25598   0.16893   0.56298   0.00000  Uiso   1.00
Cu551  Cu    0.11978   0.16666   0.75000   0.00000  Uiso   1.00
Cu552  Cu    0.21355   0.16667   0.75000   0.00000  Uiso   1.00
H553   H     0.28401   0.17653   0.58138   0.00000  Uiso   1.00
H554   H     0.13389   0.15457   0.59136   0.00000  Uiso   1.00
H555   H     0.05023   0.14334   0.91181   0.00000  Uiso   1.00
H556   H     0.08433   0.13193   0.55471   0.00000  Uiso   1.00
H557   H     0.02654   0.12714   0.50580   0.00000  Uiso   1.00
H558   H     0.24390   0.29634   0.71362   0.00000  Uiso   1.00
H559   H     0.08614   0.06430   0.82246   0.00000  Uiso   1.00
H560   H     0.26261   0.10692   0.84786   0.00000  Uiso   1.00
H561   H     0.24309   0.03793   0.71501   0.00000  Uiso   1.00
H562   H     0.08889   0.29435   0.79141   0.00000  Uiso   1.00
H563   H     0.27313   0.20991   0.81200   0.00000  Uiso   1.00
H564   H     0.02667   0.20983   0.81203   0.00000  Uiso   1.00
H565   H     0.06016   0.12329   0.68813   0.00000  Uiso   1.00
H566   H     0.30658   0.12330   0.68819   0.00000  Uiso   1.00
H567   H     0.28697   0.13870   0.91123   0.00000  Uiso   1.00
H568   H     0.30635   0.16864   0.98614   0.00000  Uiso   1.00
N569   N     0.04931   0.16666   0.74999   0.00000  Uiso   1.00
N570   N     0.28402   0.16669   0.75000   0.00000  Uiso   1.00
O571   O     0.12708   0.22678   0.75001   0.00000  Uiso   1.00
O572   O     0.22666   0.11091   0.85941   0.00000  Uiso   1.00
O573   O     0.20627   0.22679   0.75001   0.00000  Uiso   1.00
O574   O     0.10775   0.16665   0.82549   0.00000  Uiso   1.00
O575   O     0.18694   0.16666   0.82549   0.00000  Uiso   1.00
O576   O     0.12706   0.10654   0.75000   0.00000  Uiso   1.00
O577   O     0.20625   0.10655   0.75000   0.00000  Uiso   1.00
O578   O     0.14640   0.16667   0.67451   0.00000  Uiso   1.00
O579   O     0.22559   0.16668   0.67451   0.00000  Uiso   1.00
O580   O     0.07843   0.03919   0.80525   0.00000  Uiso   1.00
C581   C     0.49997   0.24592   0.75017   0.00000  Uiso   1.00
C582   C     0.46105   0.14689   0.90448   0.00000  Uiso   1.00
C583   C     0.54310   0.31224   0.73134   0.00000  Uiso   1.00
C584   C     0.47459   0.16024   0.84911   0.00000  Uiso   1.00
C585   C     0.54262   0.02153   0.73253   0.00000  Uiso   1.00
C586   C     0.49879   0.04273   0.75491   0.00000  Uiso   1.00
C587   C     0.45510   0.02064   0.77800   0.00000  Uiso   1.00
C588   C     0.45573   0.31131   0.77434   0.00000  Uiso   1.00
C589   C     0.49957   0.29047   0.75153   0.00000  Uiso   1.00
C590   C     0.63257   0.19067   0.78441   0.00000  Uiso   1.00
C591   C     0.34881   0.19061   0.78445   0.00000  Uiso   1.00
C592   C     0.48158   0.14222   0.98695   0.00000  Uiso   1.00
C593   C     0.36741   0.14261   0.71564   0.00000  Uiso   1.00
C594   C     0.65115   0.14261   0.71567   0.00000  Uiso   1.00
C595   C     0.49943   0.08741   0.75198   0.00000  Uiso   1.00
C596   C     0.52594   0.16669   0.64986   0.00000  Uiso   1.00
C597   C     0.60226   0.16370   0.50903   0.00000  Uiso   1.00
C598   C     0.54053   0.16414   0.59268   0.00000  Uiso   1.00
C599   C     0.41149   0.14171   0.93178   0.00000  Uiso   1.00
C600   C     0.39750   0.13383   0.98518   0.00000  Uiso   1.00
C601   C     0.43150   0.13621   0.51307   0.00000  Uiso   1.00
C602   C     0.49676   0.14065   0.93161   0.00000  Uiso   1.00
C603   C     0.51721   0.14950   0.51354   0.00000  Uiso   1.00
C604   C     0.56713   0.15226   0.98452   0.00000  Uiso   1.00
C605   C     0.58172   0.14155   0.93184   0.00000  Uiso   1.00
C606   C     0.54676   0.13235   0.90616   0.00000  Uiso   1.00
C607   C     0.50471   0.15587   0.56771   0.00000  Uiso   1.00
C608   C     0.58931   0.16893   0.56298   0.00000  Uiso   1.00
Cu609  Cu    0.45311   0.16666   0.75000   0.00000  Uiso   1.00
Cu610  Cu    0.54689   0.16667   0.75000   0.00000  Uiso   1.00
H611   H     0.61734   0.17653   0.58138   0.00000  Uiso   1.00
H612   H     0.46723   0.15457   0.59136   0.00000  Uiso   1.00
H613   H     0.38356   0.14334   0.91181   0.00000  Uiso   1.00
H614   H     0.41766   0.13193   0.55471   0.00000  Uiso   1.00
H615   H     0.35988   0.12714   0.50580   0.00000  Uiso   1.00
H616   H     0.57724   0.29634   0.71362   0.00000  Uiso   1.00
H617   H     0.41948   0.06430   0.82246   0.00000  Uiso   1.00
H618   H     0.59594   0.10692   0.84786   0.00000  Uiso   1.00
H619   H     0.57642   0.03793   0.71501   0.00000  Uiso   1.00
H620   H     0.42222   0.29435   0.79141   0.00000  Uiso   1.00
H621   H     0.60647   0.20991   0.81200   0.00000  Uiso   1.00
H622   H     0.36001   0.20983   0.81203   0.00000  Uiso   1.00
H623   H     0.39349   0.12329   0.68813   0.00000  Uiso   1.00
H624   H     0.63991   0.12330   0.68819   0.00000  Uiso   1.00
H625   H     0.62031   0.13870   0.91123   0.00000  Uiso   1.00
H626   H     0.63968   0.16864   0.98614   0.00000  Uiso   1.00
N627   N     0.38265   0.16666   0.74999   0.00000  Uiso   1.00
N628   N     0.61735   0.16669   0.75000   0.00000  Uiso   1.00
O629   O     0.46042   0.22678   0.75001   0.00000  Uiso   1.00
O630   O     0.55999   0.11091   0.85941   0.00000  Uiso   1.00
O631   O     0.53961   0.22679   0.75001   0.00000  Uiso   1.00
O632   O     0.44108   0.16665   0.82549   0.00000  Uiso   1.00
O633   O     0.52027   0.16666   0.82549   0.00000  Uiso   1.00
O634   O     0.46039   0.10654   0.75000   0.00000  Uiso   1.00
O635   O     0.53958   0.10655   0.75000   0.00000  Uiso   1.00
O636   O     0.47973   0.16667   0.67451   0.00000  Uiso   1.00
O637   O     0.55892   0.16668   0.67451   0.00000  Uiso   1.00
O638   O     0.41176   0.03919   0.80525   0.00000  Uiso   1.00
C639   C     0.83330   0.24592   0.75017   0.00000  Uiso   1.00
C640   C     0.79438   0.14689   0.90448   0.00000  Uiso   1.00
C641   C     0.87643   0.31224   0.73134   0.00000  Uiso   1.00
C642   C     0.80792   0.16024   0.84911   0.00000  Uiso   1.00
C643   C     0.87595   0.02153   0.73253   0.00000  Uiso   1.00
C644   C     0.83212   0.04273   0.75491   0.00000  Uiso   1.00
C645   C     0.78843   0.02064   0.77800   0.00000  Uiso   1.00
C646   C     0.78906   0.31131   0.77434   0.00000  Uiso   1.00
C647   C     0.83290   0.29047   0.75153   0.00000  Uiso   1.00
C648   C     0.96591   0.19067   0.78441   0.00000  Uiso   1.00
C649   C     0.68214   0.19061   0.78445   0.00000  Uiso   1.00
C650   C     0.81491   0.14222   0.98695   0.00000  Uiso   1.00
C651   C     0.70074   0.14261   0.71564   0.00000  Uiso   1.00
C652   C     0.98448   0.14261   0.71567   0.00000  Uiso   1.00
C653   C     0.83276   0.08741   0.75198   0.00000  Uiso   1.00
C654   C     0.85928   0.16669   0.64986   0.00000  Uiso   1.00
C655   C     0.93560   0.16370   0.50903   0.00000  Uiso   1.00
C656   C     0.87386   0.16414   0.59268   0.00000  Uiso   1.00
C657   C     0.74482   0.14171   0.93178   0.00000  Uiso   1.00
C658   C     0.73083   0.13383   0.98518   0.00000  Uiso   1.00
C659   C     0.76483   0.13621   0.51307   0.00000  Uiso   1.00
C660   C     0.83009   0.14065   0.93161   0.00000  Uiso   1.00
C661   C     0.85054   0.14950   0.51354   0.00000  Uiso   1.00
C662   C     0.90046   0.15226   0.98452   0.00000  Uiso   1.00
C663   C     0.91506   0.14155   0.93184   0.00000  Uiso   1.00
C664   C     0.88009   0.13235   0.90616   0.00000  Uiso   1.00
C665   C     0.83805   0.15587   0.56771   0.00000  Uiso   1.00
C666   C     0.92264   0.16893   0.56298   0.00000  Uiso   1.00
Cu667  Cu    0.78645   0.16666   0.75000   0.00000  Uiso   1.00
Cu668  Cu    0.88022   0.16667   0.75000   0.00000  Uiso   1.00
H669   H     0.95068   0.17653   0.58138   0.00000  Uiso   1.00
H670   H     0.80056   0.15457   0.59136   0.00000  Uiso   1.00
H671   H     0.71690   0.14334   0.91181   0.00000  Uiso   1.00
H672   H     0.75099   0.13193   0.55471   0.00000  Uiso   1.00
H673   H     0.69321   0.12714   0.50580   0.00000  Uiso   1.00
H674   H     0.91057   0.29634   0.71362   0.00000  Uiso   1.00
H675   H     0.75281   0.06430   0.82246   0.00000  Uiso   1.00
H676   H     0.92928   0.10692   0.84786   0.00000  Uiso   1.00
H677   H     0.90975   0.03793   0.71501   0.00000  Uiso   1.00
H678   H     0.75556   0.29435   0.79141   0.00000  Uiso   1.00
H679   H     0.93980   0.20991   0.81200   0.00000  Uiso   1.00
H680   H     0.69334   0.20983   0.81203   0.00000  Uiso   1.00
H681   H     0.72682   0.12329   0.68813   0.00000  Uiso   1.00
H682   H     0.97325   0.12330   0.68819   0.00000  Uiso   1.00
H683   H     0.95364   0.13870   0.91123   0.00000  Uiso   1.00
H684   H     0.97302   0.16864   0.98614   0.00000  Uiso   1.00
N685   N     0.71598   0.16666   0.74999   0.00000  Uiso   1.00
N686   N     0.95069   0.16669   0.75000   0.00000  Uiso   1.00
O687   O     0.79375   0.22678   0.75001   0.00000  Uiso   1.00
O688   O     0.89333   0.11091   0.85941   0.00000  Uiso   1.00
O689   O     0.87294   0.22679   0.75001   0.00000  Uiso   1.00
O690   O     0.77441   0.16665   0.82549   0.00000  Uiso   1.00
O691   O     0.85360   0.16666   0.82549   0.00000  Uiso   1.00
O692   O     0.79373   0.10654   0.75000   0.00000  Uiso   1.00
O693   O     0.87292   0.10655   0.75000   0.00000  Uiso   1.00
O694   O     0.81306   0.16667   0.67451   0.00000  Uiso   1.00
O695   O     0.89225   0.16668   0.67451   0.00000  Uiso   1.00
O696   O     0.74510   0.03919   0.80525   0.00000  Uiso   1.00
C697   C     0.16663   0.57925   0.75017   0.00000  Uiso   1.00
C698   C     0.12772   0.48023   0.90448   0.00000  Uiso   1.00
C699   C     0.20977   0.64557   0.73134   0.00000  Uiso   1.00
C700   C     0.14125   0.49358   0.84911   0.00000  Uiso   1.00
C701   C     0.20928   0.35486   0.73253   0.00000  Uiso   1.00
C702   C     0.16545   0.37607   0.75491   0.00000  Uiso   1.00
C703   C     0.12177   0.35398   0.77800   0.00000  Uiso   1.00
C704   C     0.12240   0.64464   0.77434   0.00000  Uiso   1.00
C705   C     0.16624   0.62380   0.75153   0.00000  Uiso   1.00
C706   C     0.29924   0.52400   0.78441   0.00000  Uiso   1.00
C707   C     0.01547   0.52394   0.78445   0.00000  Uiso   1.00
C708   C     0.14824   0.47556   0.98695   0.00000  Uiso   1.00
C709   C     0.03407   0.47595   0.71564   0.00000  Uiso   1.00
C710   C     0.31781   0.47594   0.71567   0.00000  Uiso   1.00
C711   C     0.16610   0.42074   0.75198   0.00000  Uiso   1.00
C712   C     0.19261   0.50002   0.64986   0.00000  Uiso   1.00
C713   C     0.26893   0.49704   0.50903   0.00000  Uiso   1.00
C714   C     0.20719   0.49747   0.59268   0.00000  Uiso   1.00
C715   C     0.07816   0.47504   0.93178   0.00000  Uiso   1.00
C716   C     0.06416   0.46716   0.98518   0.00000  Uiso   1.00
C717   C     0.09817   0.46955   0.51307   0.00000  Uiso   1.00
C718   C     0.16343   0.47399   0.93161   0.00000  Uiso   1.00
C719   C     0.18387   0.48283   0.51354   0.00000  Uiso   1.00
C720   C     0.23379   0.48559   0.98452   0.00000  Uiso   1.00
C721   C     0.24839   0.47489   0.93184   0.00000  Uiso   1.00
C722   C     0.21343   0.46569   0.90616   0.00000  Uiso   1.00
C723   C     0.17138   0.48920   0.56771   0.00000  Uiso   1.00
C724   C     0.25598   0.50226   0.56298   0.00000  Uiso   1.00
Cu725  Cu    0.11978   0.49999   0.75000   0.00000  Uiso   1.00
Cu726  Cu    0.21355   0.50001   0.75000   0.00000  Uiso   1.00
H727   H     0.28401   0.50986   0.58138   0.00000  Uiso   1.00
H728   H     0.13389   0.48790   0.59136   0.00000  Uiso   1.00
H729   H     0.05023   0.47667   0.91181   0.00000  Uiso   1.00
H730   H     0.08433   0.46526   0.55471   0.00000  Uiso   1.00
H731   H     0.02654   0.46047   0.50580   0.00000  Uiso   1.00
H732   H     0.24390   0.62967   0.71362   0.00000  Uiso   1.00
H733   H     0.08614   0.39763   0.82246   0.00000  Uiso   1.00
H734   H     0.26261   0.44026   0.84786   0.00000  Uiso   1.00
H735   H     0.24309   0.37126   0.71501   0.00000  Uiso   1.00
H736   H     0.08889   0.62768   0.79141   0.00000  Uiso   1.00
H737   H     0.27313   0.54324   0.81200   0.00000  Uiso   1.00
H738   H     0.02667   0.54316   0.81203   0.00000  Uiso   1.00
H739   H     0.06016   0.45663   0.68813   0.00000  Uiso   1.00
H740   H     0.30658   0.45664   0.68819   0.00000  Uiso   1.00
H741   H     0.28697   0.47204   0.91123   0.00000  Uiso   1.00
H742   H     0.30635   0.50197   0.98614   0.00000  Uiso   1.00
N743   N     0.04931   0.49999   0.74999   0.00000  Uiso   1.00
N744   N     0.28402   0.50002   0.75000   0.00000  Uiso   1.00
O745   O     0.12708   0.56011   0.75001   0.00000  Uiso   1.00
O746   O     0.22666   0.44424   0.85941   0.00000  Uiso   1.00
O747   O     0.20627   0.56012   0.75001   0.00000  Uiso   1.00
O748   O     0.10775   0.49998   0.82549   0.00000  Uiso   1.00
O749   O     0.18694   0.49999   0.82549   0.00000  Uiso   1.00
O750   O     0.12706   0.43988   0.75000   0.00000  Uiso   1.00
O751   O     0.20625   0.43989   0.75000   0.00000  Uiso   1.00
O752   O     0.14640   0.50001   0.67451   0.00000  Uiso   1.00
O753   O     0.22559   0.50002   0.67451   0.00000  Uiso   1.00
O754   O     0.07843   0.37252   0.80525   0.00000  Uiso   1.00
C755   C     0.49997   0.57925   0.75017   0.00000  Uiso   1.00
C756   C     0.46105   0.48023   0.90448   0.00000  Uiso   1.00
C757   C     0.54310   0.64557   0.73134   0.00000  Uiso   1.00
C758   C     0.47459   0.49358   0.84911   0.00000  Uiso   1.00
C759   C     0.54262   0.35486   0.73253   0.00000  Uiso   1.00
C760   C     0.49879   0.37607   0.75491   0.00000  Uiso   1.00
C761   C     0.45510   0.35398   0.77800   0.00000  Uiso   1.00
C762   C     0.45573   0.64464   0.77434   0.00000  Uiso   1.00
C763   C     0.49957   0.62380   0.75153   0.00000  Uiso   1.00
C764   C     0.63257   0.52400   0.78441   0.00000  Uiso   1.00
C765   C     0.34881   0.52394   0.78445   0.00000  Uiso   1.00
C766   C     0.48158   0.47556   0.98695   0.00000  Uiso   1.00
C767   C     0.36741   0.47595   0.71564   0.00000  Uiso   1.00
C768   C     0.65115   0.47594   0.71567   0.00000  Uiso   1.00
C769   C     0.49943   0.42074   0.75198   0.00000  Uiso   1.00
C770   C     0.52594   0.50002   0.64986   0.00000  Uiso   1.00
C771   C     0.60226   0.49704   0.50903   0.00000  Uiso   1.00
C772   C     0.54053   0.49747   0.59268   0.00000  Uiso   1.00
C773   C     0.41149   0.47504   0.93178   0.00000  Uiso   1.00
C774   C     0.39750   0.46716   0.98518   0.00000  Uiso   1.00
C775   C     0.43150   0.46955   0.51307   0.00000  Uiso   1.00
C776   C     0.49676   0.47399   0.93161   0.00000  Uiso   1.00
C777   C     0.51721   0.48283   0.51354   0.00000  Uiso   1.00
C778   C     0.56713   0.48559   0.98452   0.00000  Uiso   1.00
C779   C     0.58172   0.47489   0.93184   0.00000  Uiso   1.00
C780   C     0.54676   0.46569   0.90616   0.00000  Uiso   1.00
C781   C     0.50471   0.48920   0.56771   0.00000  Uiso   1.00
C782   C     0.58931   0.50226   0.56298   0.00000  Uiso   1.00
Cu783  Cu    0.45311   0.49999   0.75000   0.00000  Uiso   1.00
Cu784  Cu    0.54689   0.50001   0.75000   0.00000  Uiso   1.00
H785   H     0.61734   0.50986   0.58138   0.00000  Uiso   1.00
H786   H     0.46723   0.48790   0.59136   0.00000  Uiso   1.00
H787   H     0.38356   0.47667   0.91181   0.00000  Uiso   1.00
H788   H     0.41766   0.46526   0.55471   0.00000  Uiso   1.00
H789   H     0.35988   0.46047   0.50580   0.00000  Uiso   1.00
H790   H     0.57724   0.62967   0.71362   0.00000  Uiso   1.00
H791   H     0.41948   0.39763   0.82246   0.00000  Uiso   1.00
H792   H     0.59594   0.44026   0.84786   0.00000  Uiso   1.00
H793   H     0.57642   0.37126   0.71501   0.00000  Uiso   1.00
H794   H     0.42222   0.62768   0.79141   0.00000  Uiso   1.00
H795   H     0.60647   0.54324   0.81200   0.00000  Uiso   1.00
H796   H     0.36001   0.54316   0.81203   0.00000  Uiso   1.00
H797   H     0.39349   0.45663   0.68813   0.00000  Uiso   1.00
H798   H     0.63991   0.45664   0.68819   0.00000  Uiso   1.00
H799   H     0.62031   0.47204   0.91123   0.00000  Uiso   1.00
H800   H     0.63968   0.50197   0.98614   0.00000  Uiso   1.00
N801   N     0.38265   0.49999   0.74999   0.00000  Uiso   1.00
N802   N     0.61735   0.50002   0.75000   0.00000  Uiso   1.00
O803   O     0.46042   0.56011   0.75001   0.00000  Uiso   1.00
O804   O     0.55999   0.44424   0.85941   0.00000  Uiso   1.00
O805   O     0.53961   0.56012   0.75001   0.00000  Uiso   1.00
O806   O     0.44108   0.49998   0.82549   0.00000  Uiso   1.00
O807   O     0.52027   0.49999   0.82549   0.00000  Uiso   1.00
O808   O     0.46039   0.43988   0.75000   0.00000  Uiso   1.00
O809   O     0.53958   0.43989   0.75000   0.00000  Uiso   1.00
O810   O     0.47973   0.50001   0.67451   0.00000  Uiso   1.00
O811   O     0.55892   0.50002   0.67451   0.00000  Uiso   1.00
O812   O     0.41176   0.37252   0.80525   0.00000  Uiso   1.00
C813   C     0.83330   0.57925   0.75017   0.00000  Uiso   1.00
C814   C     0.79438   0.48023   0.90448   0.00000  Uiso   1.00
C815   C     0.87643   0.64557   0.73134   0.00000  Uiso   1.00
C816   C     0.80792   0.49358   0.84911   0.00000  Uiso   1.00
C817   C     0.87595   0.35486   0.73253   0.00000  Uiso   1.00
C818   C     0.83212   0.37607   0.75491   0.00000  Uiso   1.00
C819   C     0.78843   0.35398   0.77800   0.00000  Uiso   1.00
C820   C     0.78906   0.64464   0.77434   0.00000  Uiso   1.00
C821   C     0.83290   0.62380   0.75153   0.00000  Uiso   1.00
C822   C     0.96591   0.52400   0.78441   0.00000  Uiso   1.00
C823   C     0.68214   0.52394   0.78445   0.00000  Uiso   1.00
C824   C     0.81491   0.47556   0.98695   0.00000  Uiso   1.00
C825   C     0.70074   0.47595   0.71564   0.00000  Uiso   1.00
C826   C     0.98448   0.47594   0.71567   0.00000  Uiso   1.00
C827   C     0.83276   0.42074   0.75198   0.00000  Uiso   1.00
C828   C     0.85928   0.50002   0.64986   0.00000  Uiso   1.00
C829   C     0.93560   0.49704   0.50903   0.00000  Uiso   1.00
C830   C     0.87386   0.49747   0.59268   0.00000  Uiso   1.00
C831   C     0.74482   0.47504   0.93178   0.00000  Uiso   1.00
C832   C     0.73083   0.46716   0.98518   0.00000  Uiso   1.00
C833   C     0.76483   0.46955   0.51307   0.00000  Uiso   1.00
C834   C     0.83009   0.47399   0.93161   0.00000  Uiso   1.00
C835   C     0.85054   0.48283   0.51354   0.00000  Uiso   1.00
C836   C     0.90046   0.48559   0.98452   0.00000  Uiso   1.00
C837   C     0.91506   0.47489   0.93184   0.00000  Uiso   1.00
C838   C     0.88009   0.46569   0.90616   0.00000  Uiso   1.00
C839   C     0.83805   0.48920   0.56771   0.00000  Uiso   1.00
C840   C     0.92264   0.50226   0.56298   0.00000  Uiso   1.00
Cu841  Cu    0.78645   0.49999   0.75000   0.00000  Uiso   1.00
Cu842  Cu    0.88022   0.50001   0.75000   0.00000  Uiso   1.00
H843   H     0.95068   0.50986   0.58138   0.00000  Uiso   1.00
H844   H     0.80056   0.48790   0.59136   0.00000  Uiso   1.00
H845   H     0.71690   0.47667   0.91181   0.00000  Uiso   1.00
H846   H     0.75099   0.46526   0.55471   0.00000  Uiso   1.00
H847   H     0.69321   0.46047   0.50580   0.00000  Uiso   1.00
H848   H     0.91057   0.62967   0.71362   0.00000  Uiso   1.00
H849   H     0.75281   0.39763   0.82246   0.00000  Uiso   1.00
H850   H     0.92928   0.44026   0.84786   0.00000  Uiso   1.00
H851   H     0.90975   0.37126   0.71501   0.00000  Uiso   1.00
H852   H     0.75556   0.62768   0.79141   0.00000  Uiso   1.00
H853   H     0.93980   0.54324   0.81200   0.00000  Uiso   1.00
H854   H     0.69334   0.54316   0.81203   0.00000  Uiso   1.00
H855   H     0.72682   0.45663   0.68813   0.00000  Uiso   1.00
H856   H     0.97325   0.45664   0.68819   0.00000  Uiso   1.00
H857   H     0.95364   0.47204   0.91123   0.00000  Uiso   1.00
H858   H     0.97302   0.50197   0.98614   0.00000  Uiso   1.00
N859   N     0.71598   0.49999   0.74999   0.00000  Uiso   1.00
N860   N     0.95069   0.50002   0.75000   0.00000  Uiso   1.00
O861   O     0.79375   0.56011   0.75001   0.00000  Uiso   1.00
O862   O     0.89333   0.44424   0.85941   0.00000  Uiso   1.00
O863   O     0.87294   0.56012   0.75001   0.00000  Uiso   1.00
O864   O     0.77441   0.49998   0.82549   0.00000  Uiso   1.00
O865   O     0.85360   0.49999   0.82549   0.00000  Uiso   1.00
O866   O     0.79373   0.43988   0.75000   0.00000  Uiso   1.00
O867   O     0.87292   0.43989   0.75000   0.00000  Uiso   1.00
O868   O     0.81306   0.50001   0.67451   0.00000  Uiso   1.00
O869   O     0.89225   0.50002   0.67451   0.00000  Uiso   1.00
O870   O     0.74510   0.37252   0.80525   0.00000  Uiso   1.00
C871   C     0.16663   0.91259   0.75017   0.00000  Uiso   1.00
C872   C     0.12772   0.81356   0.90448   0.00000  Uiso   1.00
C873   C     0.20977   0.97891   0.73134   0.00000  Uiso   1.00
C874   C     0.14125   0.82691   0.84911   0.00000  Uiso   1.00
C875   C     0.20928   0.68820   0.73253   0.00000  Uiso   1.00
C876   C     0.16545   0.70940   0.75491   0.00000  Uiso   1.00
C877   C     0.12177   0.68731   0.77800   0.00000  Uiso   1.00
C878   C     0.12240   0.97797   0.77434   0.00000  Uiso   1.00
C879   C     0.16624   0.95713   0.75153   0.00000  Uiso   1.00
C880   C     0.29924   0.85733   0.78441   0.00000  Uiso   1.00
C881   C     0.01547   0.85728   0.78445   0.00000  Uiso   1.00
C882   C     0.14824   0.80889   0.98695   0.00000  Uiso   1.00
C883   C     0.03407   0.80928   0.71564   0.00000  Uiso   1.00
C884   C     0.31781   0.80928   0.71567   0.00000  Uiso   1.00
C885   C     0.16610   0.75408   0.75198   0.00000  Uiso   1.00
C886   C     0.19261   0.83336   0.64986   0.00000  Uiso   1.00
C887   C     0.26893   0.83037   0.50903   0.00000  Uiso   1.00
C888   C     0.20719   0.83080   0.59268   0.00000  Uiso   1.00
C889   C     0.07816   0.80837   0.93178   0.00000  Uiso   1.00
C890   C     0.06416   0.80050   0.98518   0.00000  Uiso   1.00
C891   C     0.09817   0.80288   0.51307   0.00000  Uiso   1.00
C892   C     0.16343   0.80732   0.93161   0.00000  Uiso   1.00
C893   C     0.18387   0.81617   0.51354   0.00000  Uiso   1.00
C894   C     0.23379   0.81893   0.98452   0.00000  Uiso   1.00
C895   C     0.24839   0.80822   0.93184   0.00000  Uiso   1.00
C896   C     0.21343   0.79902   0.90616   0.00000  Uiso   1.00
C897   C     0.17138   0.82254   0.56771   0.00000  Uiso   1.00
C898   C     0.25598   0.83559   0.56298   0.00000  Uiso   1.00
Cu899  Cu    0.11978   0.83333   0.75000   0.00000  Uiso   1.00
Cu900  Cu    0.21355   0.83334   0.75000   0.00000  Uiso   1.00
H901   H     0.28401   0.84320   0.58138   0.00000  Uiso   1.00
H902   H     0.13389   0.82124   0.59136   0.00000  Uiso   1.00
H903   H     0.05023   0.81001   0.91181   0.00000  Uiso   1.00
H904   H     0.08433   0.79860   0.55471   0.00000  Uiso   1.00
H905   H     0.02654   0.79380   0.50580   0.00000  Uiso   1.00
H906   H     0.24390   0.96301   0.71362   0.00000  Uiso   1.00
H907   H     0.08614   0.73096   0.82246   0.00000  Uiso   1.00
H908   H     0.26261   0.77359   0.84786   0.00000  Uiso   1.00
H909   H     0.24309   0.70460   0.71501   0.00000  Uiso   1.00
H910   H     0.08889   0.96102   0.79141   0.00000  Uiso   1.00
H911   H     0.27313   0.87657   0.81200   0.00000  Uiso   1.00
H912   H     0.02667   0.87649   0.81203   0.00000  Uiso   1.00
H913   H     0.06016   0.78996   0.68813   0.00000  Uiso   1.00
H914   H     0.30658   0.78997   0.68819   0.00000  Uiso   1.00
H915   H     0.28697   0.80537   0.91123   0.00000  Uiso   1.00
H916   H     0.30635   0.83530   0.98614   0.00000  Uiso   1.00
N917   N     0.04931   0.83332   0.74999   0.00000  Uiso   1.00
N918   N     0.28402   0.83335   0.75000   0.00000  Uiso   1.00
O919   O     0.12708   0.89345   0.75001   0.00000  Uiso   1.00
O920   O     0.22666   0.77758   0.85941   0.00000  Uiso   1.00
O921   O     0.20627   0.89346   0.75001   0.00000  Uiso   1.00
O922   O     0.10775   0.83332   0.82549   0.00000  Uiso   1.00
O923   O     0.18694   0.83333   0.82549   0.00000  Uiso   1.00
O924   O     0.12706   0.77321   0.75000   0.00000  Uiso   1.00
O925   O     0.20625   0.77322   0.75000   0.00000  Uiso   1.00
O926   O     0.14640   0.83334   0.67451   0.00000  Uiso   1.00
O927   O     0.22559   0.83335   0.67451   0.00000  Uiso   1.00
O928   O     0.07843   0.70586   0.80525   0.00000  Uiso   1.00
C929   C     0.49997   0.91259   0.75017   0.00000  Uiso   1.00
C930   C     0.46105   0.81356   0.90448   0.00000  Uiso   1.00
C931   C     0.54310   0.97891   0.73134   0.00000  Uiso   1.00
C932   C     0.47459   0.82691   0.84911   0.00000  Uiso   1.00
C933   C     0.54262   0.68820   0.73253   0.00000  Uiso   1.00
C934   C     0.49879   0.70940   0.75491   0.00000  Uiso   1.00
C935   C     0.45510   0.68731   0.77800   0.00000  Uiso   1.00
C936   C     0.45573   0.97797   0.77434   0.00000  Uiso   1.00
C937   C     0.49957   0.95713   0.75153   0.00000  Uiso   1.00
C938   C     0.63257   0.85733   0.78441   0.00000  Uiso   1.00
C939   C     0.34881   0.85728   0.78445   0.00000  Uiso   1.00
C940   C     0.48158   0.80889   0.98695   0.00000  Uiso   1.00
C941   C     0.36741   0.80928   0.71564   0.00000  Uiso   1.00
C942   C     0.65115   0.80928   0.71567   0.00000  Uiso   1.00
C943   C     0.49943   0.75408   0.75198   0.00000  Uiso   1.00
C944   C     0.52594   0.83336   0.64986   0.00000  Uiso   1.00
C945   C     0.60226   0.83037   0.50903   0.00000  Uiso   1.00
C946   C     0.54053   0.83080   0.59268   0.00000  Uiso   1.00
C947   C     0.41149   0.80837   0.93178   0.00000  Uiso   1.00
C948   C     0.39750   0.80050   0.98518   0.00000  Uiso   1.00
C949   C     0.43150   0.80288   0.51307   0.00000  Uiso   1.00
C950   C     0.49676   0.80732   0.93161   0.00000  Uiso   1.00
C951   C     0.51721   0.81617   0.51354   0.00000  Uiso   1.00
C952   C     0.56713   0.81893   0.98452   0.00000  Uiso   1.00
C953   C     0.58172   0.80822   0.93184   0.00000  Uiso   1.00
C954   C     0.54676   0.79902   0.90616   0.00000  Uiso   1.00
C955   C     0.50471   0.82254   0.56771   0.00000  Uiso   1.00
C956   C     0.58931   0.83559   0.56298   0.00000  Uiso   1.00
Cu957  Cu    0.45311   0.83333   0.75000   0.00000  Uiso   1.00
Cu958  Cu    0.54689   0.83334   0.75000   0.00000  Uiso   1.00
H959   H     0.61734   0.84320   0.58138   0.00000  Uiso   1.00
H960   H     0.46723   0.82124   0.59136   0.00000  Uiso   1.00
H961   H     0.38356   0.81001   0.91181   0.00000  Uiso   1.00
H962   H     0.41766   0.79860   0.55471   0.00000  Uiso   1.00
H963   H     0.35988   0.79380   0.50580   0.00000  Uiso   1.00
H964   H     0.57724   0.96301   0.71362   0.00000  Uiso   1.00
H965   H     0.41948   0.73096   0.82246   0.00000  Uiso   1.00
H966   H     0.59594   0.77359   0.84786   0.00000  Uiso   1.00
H967   H     0.57642   0.70460   0.71501   0.00000  Uiso   1.00
H968   H     0.42222   0.96102   0.79141   0.00000  Uiso   1.00
H969   H     0.60647   0.87657   0.81200   0.00000  Uiso   1.00
H970   H     0.36001   0.87649   0.81203   0.00000  Uiso   1.00
H971   H     0.39349   0.78996   0.68813   0.00000  Uiso   1.00
H972   H     0.63991   0.78997   0.68819   0.00000  Uiso   1.00
H973   H     0.62031   0.80537   0.91123   0.00000  Uiso   1.00
H974   H     0.63968   0.83530   0.98614   0.00000  Uiso   1.00
N975   N     0.38265   0.83332   0.74999   0.00000  Uiso   1.00
N976   N     0.61735   0.83335   0.75000   0.00000  Uiso   1.00
O977   O     0.46042   0.89345   0.75001   0.00000  Uiso   1.00
O978   O     0.55999   0.77758   0.85941   0.00000  Uiso   1.00
O979   O     0.53961   0.89346   0.75001   0.00000  Uiso   1.00
O980   O     0.44108   0.83332   0.82549   0.00000  Uiso   1.00
O981   O     0.52027   0.83333   0.82549   0.00000  Uiso   1.00
O982   O     0.46039   0.77321   0.75000   0.00000  Uiso   1.00
O983   O     0.53958   0.77322   0.75000   0.00000  Uiso   1.00
O984   O     0.47973   0.83334   0.67451   0.00000  Uiso   1.00
O985   O     0.55892   0.83335   0.67451   0.00000  Uiso   1.00
O986   O     0.41176   0.70586   0.80525   0.00000  Uiso   1.00
C987   C     0.83330   0.91259   0.75017   0.00000  Uiso   1.00
C988   C     0.79438   0.81356   0.90448   0.00000  Uiso   1.00
C989   C     0.87643   0.97891   0.73134   0.00000  Uiso   1.00
C990   C     0.80792   0.82691   0.84911   0.00000  Uiso   1.00
C991   C     0.87595   0.68820   0.73253   0.00000  Uiso   1.00
C992   C     0.83212   0.70940   0.75491   0.00000  Uiso   1.00
C993   C     0.78843   0.68731   0.77800   0.00000  Uiso   1.00
C994   C     0.78906   0.97797   0.77434   0.00000  Uiso   1.00
C995   C     0.83290   0.95713   0.75153   0.00000  Uiso   1.00
C996   C     0.96591   0.85733   0.78441   0.00000  Uiso   1.00
C997   C     0.68214   0.85728   0.78445   0.00000  Uiso   1.00
C998   C     0.81491   0.80889   0.98695   0.00000  Uiso   1.00
C999   C     0.70074   0.80928   0.71564   0.00000  Uiso   1.00
C1000  C     0.98448   0.80928   0.71567   0.00000  Uiso   1.00
C1001  C     0.83276   0.75408   0.75198   0.00000  Uiso   1.00
C1002  C     0.85928   0.83336   0.64986   0.00000  Uiso   1.00
C1003  C     0.93560   0.83037   0.50903   0.00000  Uiso   1.00
C1004  C     0.87386   0.83080   0.59268   0.00000  Uiso   1.00
C1005  C     0.74482   0.80837   0.93178   0.00000  Uiso   1.00
C1006  C     0.73083   0.80050   0.98518   0.00000  Uiso   1.00
C1007  C     0.76483   0.80288   0.51307   0.00000  Uiso   1.00
C1008  C     0.83009   0.80732   0.93161   0.00000  Uiso   1.00
C1009  C     0.85054   0.81617   0.51354   0.00000  Uiso   1.00
C1010  C     0.90046   0.81893   0.98452   0.00000  Uiso   1.00
C1011  C     0.91506   0.80822   0.93184   0.00000  Uiso   1.00
C1012  C     0.88009   0.79902   0.90616   0.00000  Uiso   1.00
C1013  C     0.83805   0.82254   0.56771   0.00000  Uiso   1.00
C1014  C     0.92264   0.83559   0.56298   0.00000  Uiso   1.00
Cu1015 Cu    0.78645   0.83333   0.75000   0.00000  Uiso   1.00
Cu1016 Cu    0.88022   0.83334   0.75000   0.00000  Uiso   1.00
H1017  H     0.95068   0.84320   0.58138   0.00000  Uiso   1.00
H1018  H     0.80056   0.82124   0.59136   0.00000  Uiso   1.00
H1019  H     0.71690   0.81001   0.91181   0.00000  Uiso   1.00
H1020  H     0.75099   0.79860   0.55471   0.00000  Uiso   1.00
H1021  H     0.69321   0.79380   0.50580   0.00000  Uiso   1.00
H1022  H     0.91057   0.96301   0.71362   0.00000  Uiso   1.00
H1023  H     0.75281   0.73096   0.82246   0.00000  Uiso   1.00
H1024  H     0.92928   0.77359   0.84786   0.00000  Uiso   1.00
H1025  H     0.90975   0.70460   0.71501   0.00000  Uiso   1.00
H1026  H     0.75556   0.96102   0.79141   0.00000  Uiso   1.00
H1027  H     0.93980   0.87657   0.81200   0.00000  Uiso   1.00
H1028  H     0.69334   0.87649   0.81203   0.00000  Uiso   1.00
H1029  H     0.72682   0.78996   0.68813   0.00000  Uiso   1.00
H1030  H     0.97325   0.78997   0.68819   0.00000  Uiso   1.00
H1031  H     0.95364   0.80537   0.91123   0.00000  Uiso   1.00
H1032  H     0.97302   0.83530   0.98614   0.00000  Uiso   1.00
N1033  N     0.71598   0.83332   0.74999   0.00000  Uiso   1.00
N1034  N     0.95069   0.83335   0.75000   0.00000  Uiso   1.00
O1035  O     0.79375   0.89345   0.75001   0.00000  Uiso   1.00
O1036  O     0.89333   0.77758   0.85941   0.00000  Uiso   1.00
O1037  O     0.87294   0.89346   0.75001   0.00000  Uiso   1.00
O1038  O     0.77441   0.83332   0.82549   0.00000  Uiso   1.00
O1039  O     0.85360   0.83333   0.82549   0.00000  Uiso   1.00
O1040  O     0.79373   0.77321   0.75000   0.00000  Uiso   1.00
O1041  O     0.87292   0.77322   0.75000   0.00000  Uiso   1.00
O1042  O     0.81306   0.83334   0.67451   0.00000  Uiso   1.00
O1043  O     0.89225   0.83335   0.67451   0.00000  Uiso   1.00
O1044  O     0.74510   0.70586   0.80525   0.00000  Uiso   1.00
loop_
_geom_bond_atom_site_label_1
_geom_bond_atom_site_label_2
_geom_bond_distance
_geom_bond_site_symmetry_2
_ccdc_geom_bond_type
C1     C9      1.445   .     S
C1     O51     1.291   .     A
C1     O49     1.291   .     A
C2     C22     1.428   .     A
C2     C4      1.484   .     S
C2     C19     1.403   .     A
C3     C9      1.397   .     A
C3     H36     1.084   .     S
C3     C179    1.383   .     S
C4     O53     1.292   .     A
C4     O52     1.308   .     A
C5     H39     1.084   .     S
C5     C6      1.402   .     A
C5     C351    1.383   1_545 S
C6     C7      1.417   .     A
C6     C15     1.451   .     S
C7     O58     1.380   .     S
C7     C356    1.387   1_545 S
C8     H40     1.084   .     S
C8     C9      1.398   .     A
C8     C181    1.387   .     S
C10    H41     1.082   .     S
C10    N48     1.368   .     A
C10    C69     1.417   .     S
C11    N47     1.367   .     A
C11    H42     1.082   .     S
C11    C126    1.417   1_455 S
C12    C22     1.417   .     A
C12    C543    1.413   .     S
C12    C545    1.421   .     S
C13    H43     1.082   .     S
C13    N47     1.368   .     A
C13    C130    1.417   1_455 S
C14    H44     1.082   .     S
C14    N48     1.367   .     A
C14    C71     1.417   .     S
C15    O54     1.292   .     A
C15    O55     1.292   .     A
C16    O56     1.294   .     A
C16    O57     1.298   .     A
C16    C18     1.466   .     S
C17    C28     1.392   .     A
C17    C546    1.399   1_554 S
C17    H568    1.080   1_554 S
C18    C28     1.399   .     A
C18    C27     1.401   .     A
C19    C20     1.391   .     A
C19    H33     1.083   .     S
C20    C543    1.388   .     S
C20    H557    1.079   .     S
C21    H34     1.078   .     S
C21    C542    1.388   1_554 S
C21    C534    1.413   1_554 S
C22    C26     1.419   .     A
C23    C27     1.403   .     A
C23    C534    1.421   1_554 S
C23    C546    1.416   1_554 S
C24    C25     1.392   .     A
C24    C539    1.399   .     S
C24    C545    1.416   .     S
C25    C26     1.399   .     A
C25    H45     1.085   .     S
C26    O50     1.383   .     S
C27    H32     1.076   .     S
C28    H31     1.083   .     S
Cu29   O56     1.940   .     S
Cu29   O49     1.961   .     S
Cu29   Cu30    2.681   .     S
Cu29   N47     2.015   .     S
Cu29   O54     1.961   .     S
Cu29   O52     1.947   .     S
Cu30   O55     1.961   .     S
Cu30   O51     1.961   .     S
Cu30   N48     2.014   .     S
Cu30   O53     1.940   .     S
Cu30   O57     1.947   .     S
H35    C542    1.079   1_554 S
H37    O58     0.990   .     S
H38    O50     0.992   .     S
H46    C539    1.080   .     S
C59    C67     1.445   .     S
C59    O109    1.291   .     A
C59    O107    1.291   .     A
C60    C80     1.428   .     A
C60    C62     1.484   .     S
C60    C77     1.403   .     A
C61    C67     1.397   .     A
C61    H94     1.084   .     S
C61    C237    1.383   .     S
C62    O111    1.292   .     A
C62    O110    1.308   .     A
C63    H97     1.084   .     S
C63    C64     1.402   .     A
C63    C409    1.383   1_545 S
C64    C65     1.417   .     A
C64    C73     1.451   .     S
C65    O116    1.380   .     S
C65    C414    1.387   1_545 S
C66    H98     1.084   .     S
C66    C67     1.398   .     A
C66    C239    1.387   .     S
C68    H99     1.082   .     S
C68    N106    1.368   .     A
C68    C127    1.417   .     S
C69    N105    1.367   .     A
C69    H100    1.082   .     S
C70    C80     1.417   .     A
C70    C601    1.413   .     S
C70    C603    1.421   .     S
C71    H101    1.082   .     S
C71    N105    1.368   .     A
C72    H102    1.082   .     S
C72    N106    1.367   .     A
C72    C129    1.417   .     S
C73    O112    1.292   .     A
C73    O113    1.292   .     A
C74    O114    1.294   .     A
C74    O115    1.298   .     A
C74    C76     1.466   .     S
C75    C86     1.392   .     A
C75    C604    1.399   1_554 S
C75    H626    1.080   1_554 S
C76    C86     1.399   .     A
C76    C85     1.401   .     A
C77    C78     1.391   .     A
C77    H91     1.083   .     S
C78    C601    1.388   .     S
C78    H615    1.079   .     S
C79    H92     1.078   .     S
C79    C600    1.388   1_554 S
C79    C592    1.413   1_554 S
C80    C84     1.419   .     A
C81    C85     1.403   .     A
C81    C592    1.421   1_554 S
C81    C604    1.416   1_554 S
C82    C83     1.392   .     A
C82    C597    1.399   .     S
C82    C603    1.416   .     S
C83    C84     1.399   .     A
C83    H103    1.085   .     S
C84    O108    1.383   .     S
C85    H90     1.076   .     S
C86    H89     1.083   .     S
Cu87   O114    1.940   .     S
Cu87   O107    1.961   .     S
Cu87   Cu88    2.681   .     S
Cu87   N105    2.015   .     S
Cu87   O112    1.961   .     S
Cu87   O110    1.947   .     S
Cu88   O113    1.961   .     S
Cu88   O109    1.961   .     S
Cu88   N106    2.014   .     S
Cu88   O111    1.940   .     S
Cu88   O115    1.947   .     S
H93    C600    1.079   1_554 S
H95    O116    0.990   .     S
H96    O108    0.992   .     S
H104   C597    1.080   .     S
C117   C125    1.445   .     S
C117   O167    1.291   .     A
C117   O165    1.291   .     A
C118   C138    1.428   .     A
C118   C120    1.484   .     S
C118   C135    1.403   .     A
C119   C125    1.397   .     A
C119   H152    1.084   .     S
C119   C295    1.383   .     S
C120   O169    1.292   .     A
C120   O168    1.308   .     A
C121   H155    1.084   .     S
C121   C122    1.402   .     A
C121   C467    1.383   1_545 S
C122   C123    1.417   .     A
C122   C131    1.451   .     S
C123   O174    1.380   .     S
C123   C472    1.387   1_545 S
C124   H156    1.084   .     S
C124   C125    1.398   .     A
C124   C297    1.387   .     S
C126   H157    1.082   .     S
C126   N164    1.368   .     A
C126   C11     1.417   1_655 S
C127   N163    1.367   .     A
C127   H158    1.082   .     S
C128   C138    1.417   .     A
C128   C659    1.413   .     S
C128   C661    1.421   .     S
C129   H159    1.082   .     S
C129   N163    1.368   .     A
C130   H160    1.082   .     S
C130   N164    1.367   .     A
C130   C13     1.417   1_655 S
C131   O170    1.292   .     A
C131   O171    1.292   .     A
C132   O172    1.294   .     A
C132   O173    1.298   .     A
C132   C134    1.466   .     S
C133   C144    1.392   .     A
C133   C662    1.399   1_554 S
C133   H684    1.080   1_554 S
C134   C144    1.399   .     A
C134   C143    1.401   .     A
C135   C136    1.391   .     A
C135   H149    1.083   .     S
C136   C659    1.388   .     S
C136   H673    1.079   .     S
C137   H150    1.078   .     S
C137   C658    1.388   1_554 S
C137   C650    1.413   1_554 S
C138   C142    1.419   .     A
C139   C143    1.403   .     A
C139   C650    1.421   1_554 S
C139   C662    1.416   1_554 S
C140   C141    1.392   .     A
C140   C655    1.399   .     S
C140   C661    1.416   .     S
C141   C142    1.399   .     A
C141   H161    1.085   .     S
C142   O166    1.383   .     S
C143   H148    1.076   .     S
C144   H147    1.083   .     S
Cu145  O172    1.940   .     S
Cu145  O165    1.961   .     S
Cu145  Cu146   2.681   .     S
Cu145  N163    2.015   .     S
Cu145  O170    1.961   .     S
Cu145  O168    1.947   .     S
Cu146  O171    1.961   .     S
Cu146  O167    1.961   .     S
Cu146  N164    2.014   .     S
Cu146  O169    1.940   .     S
Cu146  O173    1.947   .     S
H151   C658    1.079   1_554 S
H153   O174    0.990   .     S
H154   O166    0.992   .     S
H162   C655    1.080   .     S
C175   C183    1.445   .     S
C175   O225    1.291   .     A
C175   O223    1.291   .     A
C176   C196    1.428   .     A
C176   C178    1.484   .     S
C176   C193    1.403   .     A
C177   C183    1.397   .     A
C177   H210    1.084   .     S
C177   C353    1.383   .     S
C178   O227    1.292   .     A
C178   O226    1.308   .     A
C179   H213    1.084   .     S
C179   C180    1.402   .     A
C180   C181    1.417   .     A
C180   C189    1.451   .     S
C181   O232    1.380   .     S
C182   H214    1.084   .     S
C182   C183    1.398   .     A
C182   C355    1.387   .     S
C184   H215    1.082   .     S
C184   N222    1.368   .     A
C184   C243    1.417   .     S
C185   N221    1.367   .     A
C185   H216    1.082   .     S
C185   C300    1.417   1_455 S
C186   C196    1.417   .     A
C186   C717    1.413   .     S
C186   C719    1.421   .     S
C187   H217    1.082   .     S
C187   N221    1.368   .     A
C187   C304    1.417   1_455 S
C188   H218    1.082   .     S
C188   N222    1.367   .     A
C188   C245    1.417   .     S
C189   O228    1.292   .     A
C189   O229    1.292   .     A
C190   O230    1.294   .     A
C190   O231    1.298   .     A
C190   C192    1.466   .     S
C191   C202    1.392   .     A
C191   C720    1.399   1_554 S
C191   H742    1.080   1_554 S
C192   C202    1.399   .     A
C192   C201    1.401   .     A
C193   C194    1.391   .     A
C193   H207    1.083   .     S
C194   C717    1.388   .     S
C194   H731    1.079   .     S
C195   H208    1.078   .     S
C195   C716    1.388   1_554 S
C195   C708    1.413   1_554 S
C196   C200    1.419   .     A
C197   C201    1.403   .     A
C197   C708    1.421   1_554 S
C197   C720    1.416   1_554 S
C198   C199    1.392   .     A
C198   C713    1.399   .     S
C198   C719    1.416   .     S
C199   C200    1.399   .     A
C199   H219    1.085   .     S
C200   O224    1.383   .     S
C201   H206    1.076   .     S
C202   H205    1.083   .     S
Cu203  O230    1.940   .     S
Cu203  O223    1.961   .     S
Cu203  Cu204   2.681   .     S
Cu203  N221    2.015   .     S
Cu203  O228    1.961   .     S
Cu203  O226    1.947   .     S
Cu204  O229    1.961   .     S
Cu204  O225    1.961   .     S
Cu204  N222    2.014   .     S
Cu204  O227    1.940   .     S
Cu204  O231    1.947   .     S
H209   C716    1.079   1_554 S
H211   O232    0.990   .     S
H212   O224    0.992   .     S
H220   C713    1.080   .     S
C233   C241    1.445   .     S
C233   O283    1.291   .     A
C233   O281    1.291   .     A
C234   C254    1.428   .     A
C234   C236    1.484   .     S
C234   C251    1.403   .     A
C235   C241    1.397   .     A
C235   H268    1.084   .     S
C235   C411    1.383   .     S
C236   O285    1.292   .     A
C236   O284    1.308   .     A
C237   H271    1.084   .     S
C237   C238    1.402   .     A
C238   C239    1.417   .     A
C238   C247    1.451   .     S
C239   O290    1.380   .     S
C240   H272    1.084   .     S
C240   C241    1.398   .     A
C240   C413    1.387   .     S
C242   H273    1.082   .     S
C242   N280    1.368   .     A
C242   C301    1.417   .     S
C243   N279    1.367   .     A
C243   H274    1.082   .     S
C244   C254    1.417   .     A
C244   C775    1.413   .     S
C244   C777    1.421   .     S
C245   H275    1.082   .     S
C245   N279    1.368   .     A
C246   H276    1.082   .     S
C246   N280    1.367   .     A
C246   C303    1.417   .     S
C247   O286    1.292   .     A
C247   O287    1.292   .     A
C248   O288    1.294   .     A
C248   O289    1.298   .     A
C248   C250    1.466   .     S
C249   C260    1.392   .     A
C249   C778    1.399   1_554 S
C249   H800    1.080   1_554 S
C250   C260    1.399   .     A
C250   C259    1.401   .     A
C251   C252    1.391   .     A
C251   H265    1.083   .     S
C252   C775    1.388   .     S
C252   H789    1.079   .     S
C253   H266    1.078   .     S
C253   C774    1.388   1_554 S
C253   C766    1.413   1_554 S
C254   C258    1.419   .     A
C255   C259    1.403   .     A
C255   C766    1.421   1_554 S
C255   C778    1.416   1_554 S
C256   C257    1.392   .     A
C256   C771    1.399   .     S
C256   C777    1.416   .     S
C257   C258    1.399   .     A
C257   H277    1.085   .     S
C258   O282    1.383   .     S
C259   H264    1.076   .     S
C260   H263    1.083   .     S
Cu261  O288    1.940   .     S
Cu261  O281    1.961   .     S
Cu261  Cu262   2.681   .     S
Cu261  N279    2.015   .     S
Cu261  O286    1.961   .     S
Cu261  O284    1.947   .     S
Cu262  O287    1.961   .     S
Cu262  O283    1.961   .     S
Cu262  N280    2.014   .     S
Cu262  O285    1.940   .     S
Cu262  O289    1.947   .     S
H267   C774    1.079   1_554 S
H269   O290    0.990   .     S
H270   O282    0.992   .     S
H278   C771    1.080   .     S
C291   C299    1.445   .     S
C291   O341    1.291   .     A
C291   O339    1.291   .     A
C292   C312    1.428   .     A
C292   C294    1.484   .     S
C292   C309    1.403   .     A
C293   C299    1.397   .     A
C293   H326    1.084   .     S
C293   C469    1.383   .     S
C294   O343    1.292   .     A
C294   O342    1.308   .     A
C295   H329    1.084   .     S
C295   C296    1.402   .     A
C296   C297    1.417   .     A
C296   C305    1.451   .     S
C297   O348    1.380   .     S
C298   H330    1.084   .     S
C298   C299    1.398   .     A
C298   C471    1.387   .     S
C300   H331    1.082   .     S
C300   N338    1.368   .     A
C300   C185    1.417   1_655 S
C301   N337    1.367   .     A
C301   H332    1.082   .     S
C302   C312    1.417   .     A
C302   C833    1.413   .     S
C302   C835    1.421   .     S
C303   H333    1.082   .     S
C303   N337    1.368   .     A
C304   H334    1.082   .     S
C304   N338    1.367   .     A
C304   C187    1.417   1_655 S
C305   O344    1.292   .     A
C305   O345    1.292   .     A
C306   O346    1.294   .     A
C306   O347    1.298   .     A
C306   C308    1.466   .     S
C307   C318    1.392   .     A
C307   C836    1.399   1_554 S
C307   H858    1.080   1_554 S
C308   C318    1.399   .     A
C308   C317    1.401   .     A
C309   C310    1.391   .     A
C309   H323    1.083   .     S
C310   C833    1.388   .     S
C310   H847    1.079   .     S
C311   H324    1.078   .     S
C311   C832    1.388   1_554 S
C311   C824    1.413   1_554 S
C312   C316    1.419   .     A
C313   C317    1.403   .     A
C313   C824    1.421   1_554 S
C313   C836    1.416   1_554 S
C314   C315    1.392   .     A
C314   C829    1.399   .     S
C314   C835    1.416   .     S
C315   C316    1.399   .     A
C315   H335    1.085   .     S
C316   O340    1.383   .     S
C317   H322    1.076   .     S
C318   H321    1.083   .     S
Cu319  O346    1.940   .     S
Cu319  O339    1.961   .     S
Cu319  Cu320   2.681   .     S
Cu319  N337    2.015   .     S
Cu319  O344    1.961   .     S
Cu319  O342    1.947   .     S
Cu320  O345    1.961   .     S
Cu320  O341    1.961   .     S
Cu320  N338    2.014   .     S
Cu320  O343    1.940   .     S
Cu320  O347    1.947   .     S
H325   C832    1.079   1_554 S
H327   O348    0.990   .     S
H328   O340    0.992   .     S
H336   C829    1.080   .     S
C349   C357    1.445   .     S
C349   O399    1.291   .     A
C349   O397    1.291   .     A
C350   C370    1.428   .     A
C350   C352    1.484   .     S
C350   C367    1.403   .     A
C351   C357    1.397   .     A
C351   H384    1.084   .     S
C351   C5      1.383   1_565 S
C352   O401    1.292   .     A
C352   O400    1.308   .     A
C353   H387    1.084   .     S
C353   C354    1.402   .     A
C354   C355    1.417   .     A
C354   C363    1.451   .     S
C355   O406    1.380   .     S
C356   H388    1.084   .     S
C356   C357    1.398   .     A
C356   C7      1.387   1_565 S
C358   H389    1.082   .     S
C358   N396    1.368   .     A
C358   C417    1.417   .     S
C359   N395    1.367   .     A
C359   H390    1.082   .     S
C359   C474    1.417   1_455 S
C360   C370    1.417   .     A
C360   C891    1.413   .     S
C360   C893    1.421   .     S
C361   H391    1.082   .     S
C361   N395    1.368   .     A
C361   C478    1.417   1_455 S
C362   H392    1.082   .     S
C362   N396    1.367   .     A
C362   C419    1.417   .     S
C363   O402    1.292   .     A
C363   O403    1.292   .     A
C364   O404    1.294   .     A
C364   O405    1.298   .     A
C364   C366    1.466   .     S
C365   C376    1.392   .     A
C365   C894    1.399   1_554 S
C365   H916    1.080   1_554 S
C366   C376    1.399   .     A
C366   C375    1.401   .     A
C367   C368    1.391   .     A
C367   H381    1.083   .     S
C368   C891    1.388   .     S
C368   H905    1.079   .     S
C369   H382    1.078   .     S
C369   C890    1.388   1_554 S
C369   C882    1.413   1_554 S
C370   C374    1.419   .     A
C371   C375    1.403   .     A
C371   C882    1.421   1_554 S
C371   C894    1.416   1_554 S
C372   C373    1.392   .     A
C372   C887    1.399   .     S
C372   C893    1.416   .     S
C373   C374    1.399   .     A
C373   H393    1.085   .     S
C374   O398    1.383   .     S
C375   H380    1.076   .     S
C376   H379    1.083   .     S
Cu377  O404    1.940   .     S
Cu377  O397    1.961   .     S
Cu377  Cu378   2.681   .     S
Cu377  N395    2.015   .     S
Cu377  O402    1.961   .     S
Cu377  O400    1.947   .     S
Cu378  O403    1.961   .     S
Cu378  O399    1.961   .     S
Cu378  N396    2.014   .     S
Cu378  O401    1.940   .     S
Cu378  O405    1.947   .     S
H383   C890    1.079   1_554 S
H385   O406    0.990   .     S
H386   O398    0.992   .     S
H394   C887    1.080   .     S
C407   C415    1.445   .     S
C407   O457    1.291   .     A
C407   O455    1.291   .     A
C408   C428    1.428   .     A
C408   C410    1.484   .     S
C408   C425    1.403   .     A
C409   C415    1.397   .     A
C409   H442    1.084   .     S
C409   C63     1.383   1_565 S
C410   O459    1.292   .     A
C410   O458    1.308   .     A
C411   H445    1.084   .     S
C411   C412    1.402   .     A
C412   C413    1.417   .     A
C412   C421    1.451   .     S
C413   O464    1.380   .     S
C414   H446    1.084   .     S
C414   C415    1.398   .     A
C414   C65     1.387   1_565 S
C416   H447    1.082   .     S
C416   N454    1.368   .     A
C416   C475    1.417   .     S
C417   N453    1.367   .     A
C417   H448    1.082   .     S
C418   C428    1.417   .     A
C418   C949    1.413   .     S
C418   C951    1.421   .     S
C419   H449    1.082   .     S
C419   N453    1.368   .     A
C420   H450    1.082   .     S
C420   N454    1.367   .     A
C420   C477    1.417   .     S
C421   O460    1.292   .     A
C421   O461    1.292   .     A
C422   O462    1.294   .     A
C422   O463    1.298   .     A
C422   C424    1.466   .     S
C423   C434    1.392   .     A
C423   C952    1.399   1_554 S
C423   H974    1.080   1_554 S
C424   C434    1.399   .     A
C424   C433    1.401   .     A
C425   C426    1.391   .     A
C425   H439    1.083   .     S
C426   C949    1.388   .     S
C426   H963    1.079   .     S
C427   H440    1.078   .     S
C427   C948    1.388   1_554 S
C427   C940    1.413   1_554 S
C428   C432    1.419   .     A
C429   C433    1.403   .     A
C429   C940    1.421   1_554 S
C429   C952    1.416   1_554 S
C430   C431    1.392   .     A
C430   C945    1.399   .     S
C430   C951    1.416   .     S
C431   C432    1.399   .     A
C431   H451    1.085   .     S
C432   O456    1.383   .     S
C433   H438    1.076   .     S
C434   H437    1.083   .     S
Cu435  O462    1.940   .     S
Cu435  O455    1.961   .     S
Cu435  Cu436   2.681   .     S
Cu435  N453    2.015   .     S
Cu435  O460    1.961   .     S
Cu435  O458    1.947   .     S
Cu436  O461    1.961   .     S
Cu436  O457    1.961   .     S
Cu436  N454    2.014   .     S
Cu436  O459    1.940   .     S
Cu436  O463    1.947   .     S
H441   C948    1.079   1_554 S
H443   O464    0.990   .     S
H444   O456    0.992   .     S
H452   C945    1.080   .     S
C465   C473    1.445   .     S
C465   O515    1.291   .     A
C465   O513    1.291   .     A
C466   C486    1.428   .     A
C466   C468    1.484   .     S
C466   C483    1.403   .     A
C467   C473    1.397   .     A
C467   H500    1.084   .     S
C467   C121    1.383   1_565 S
C468   O517    1.292   .     A
C468   O516    1.308   .     A
C469   H503    1.084   .     S
C469   C470    1.402   .     A
C470   C471    1.417   .     A
C470   C479    1.451   .     S
C471   O522    1.380   .     S
C472   H504    1.084   .     S
C472   C473    1.398   .     A
C472   C123    1.387   1_565 S
C474   H505    1.082   .     S
C474   N512    1.368   .     A
C474   C359    1.417   1_655 S
C475   N511    1.367   .     A
C475   H506    1.082   .     S
C476   C486    1.417   .     A
C476   C1007   1.413   .     S
C476   C1009   1.421   .     S
C477   H507    1.082   .     S
C477   N511    1.368   .     A
C478   H508    1.082   .     S
C478   N512    1.367   .     A
C478   C361    1.417   1_655 S
C479   O518    1.292   .     A
C479   O519    1.292   .     A
C480   O520    1.294   .     A
C480   O521    1.298   .     A
C480   C482    1.466   .     S
C481   C492    1.392   .     A
C481   C1010   1.399   1_554 S
C481   H1032   1.080   1_554 S
C482   C492    1.399   .     A
C482   C491    1.401   .     A
C483   C484    1.391   .     A
C483   H497    1.083   .     S
C484   C1007   1.388   .     S
C484   H1021   1.079   .     S
C485   H498    1.078   .     S
C485   C1006   1.388   1_554 S
C485   C998    1.413   1_554 S
C486   C490    1.419   .     A
C487   C491    1.403   .     A
C487   C998    1.421   1_554 S
C487   C1010   1.416   1_554 S
C488   C489    1.392   .     A
C488   C1003   1.399   .     S
C488   C1009   1.416   .     S
C489   C490    1.399   .     A
C489   H509    1.085   .     S
C490   O514    1.383   .     S
C491   H496    1.076   .     S
C492   H495    1.083   .     S
Cu493  O520    1.940   .     S
Cu493  O513    1.961   .     S
Cu493  Cu494   2.681   .     S
Cu493  N511    2.015   .     S
Cu493  O518    1.961   .     S
Cu493  O516    1.947   .     S
Cu494  O519    1.961   .     S
Cu494  O515    1.961   .     S
Cu494  N512    2.014   .     S
Cu494  O517    1.940   .     S
Cu494  O521    1.947   .     S
H499   C1006   1.079   1_554 S
H501   O522    0.990   .     S
H502   O514    0.992   .     S
H510   C1003   1.080   .     S
C523   C531    1.445   .     S
C523   O573    1.291   .     A
C523   O571    1.291   .     A
C524   C544    1.428   .     A
C524   C526    1.484   .     S
C524   C541    1.403   .     A
C525   C531    1.397   .     A
C525   H558    1.084   .     S
C525   C701    1.383   .     S
C526   O575    1.292   .     A
C526   O574    1.308   .     A
C527   H561    1.084   .     S
C527   C528    1.402   .     A
C527   C873    1.383   1_545 S
C528   C529    1.417   .     A
C528   C537    1.451   .     S
C529   O580    1.380   .     S
C529   C878    1.387   1_545 S
C530   H562    1.084   .     S
C530   C531    1.398   .     A
C530   C703    1.387   .     S
C532   H563    1.082   .     S
C532   N570    1.368   .     A
C532   C591    1.417   .     S
C533   N569    1.367   .     A
C533   H564    1.082   .     S
C533   C648    1.417   1_455 S
C534   C544    1.417   .     A
C534   C21     1.413   1_556 S
C534   C23     1.421   1_556 S
C535   H565    1.082   .     S
C535   N569    1.368   .     A
C535   C652    1.417   1_455 S
C536   H566    1.082   .     S
C536   N570    1.367   .     A
C536   C593    1.417   .     S
C537   O576    1.292   .     A
C537   O577    1.292   .     A
C538   O578    1.294   .     A
C538   O579    1.298   .     A
C538   C540    1.466   .     S
C539   C550    1.392   .     A
C540   C550    1.399   .     A
C540   C549    1.401   .     A
C541   C542    1.391   .     A
C541   H555    1.083   .     S
C542   C21     1.388   1_556 S
C542   H35     1.079   1_556 S
C543   H556    1.078   .     S
C544   C548    1.419   .     A
C545   C549    1.403   .     A
C546   C547    1.392   .     A
C546   C17     1.399   1_556 S
C546   C23     1.416   1_556 S
C547   C548    1.399   .     A
C547   H567    1.085   .     S
C548   O572    1.383   .     S
C549   H554    1.076   .     S
C550   H553    1.083   .     S
Cu551  O578    1.940   .     S
Cu551  O571    1.961   .     S
Cu551  Cu552   2.681   .     S
Cu551  N569    2.015   .     S
Cu551  O576    1.961   .     S
Cu551  O574    1.947   .     S
Cu552  O577    1.961   .     S
Cu552  O573    1.961   .     S
Cu552  N570    2.014   .     S
Cu552  O575    1.940   .     S
Cu552  O579    1.947   .     S
H559   O580    0.990   .     S
H560   O572    0.992   .     S
H568   C17     1.080   1_556 S
C581   C589    1.445   .     S
C581   O631    1.291   .     A
C581   O629    1.291   .     A
C582   C602    1.428   .     A
C582   C584    1.484   .     S
C582   C599    1.403   .     A
C583   C589    1.397   .     A
C583   H616    1.084   .     S
C583   C759    1.383   .     S
C584   O633    1.292   .     A
C584   O632    1.308   .     A
C585   H619    1.084   .     S
C585   C586    1.402   .     A
C585   C931    1.383   1_545 S
C586   C587    1.417   .     A
C586   C595    1.451   .     S
C587   O638    1.380   .     S
C587   C936    1.387   1_545 S
C588   H620    1.084   .     S
C588   C589    1.398   .     A
C588   C761    1.387   .     S
C590   H621    1.082   .     S
C590   N628    1.368   .     A
C590   C649    1.417   .     S
C591   N627    1.367   .     A
C591   H622    1.082   .     S
C592   C602    1.417   .     A
C592   C79     1.413   1_556 S
C592   C81     1.421   1_556 S
C593   H623    1.082   .     S
C593   N627    1.368   .     A
C594   H624    1.082   .     S
C594   N628    1.367   .     A
C594   C651    1.417   .     S
C595   O634    1.292   .     A
C595   O635    1.292   .     A
C596   O636    1.294   .     A
C596   O637    1.298   .     A
C596   C598    1.466   .     S
C597   C608    1.392   .     A
C598   C608    1.399   .     A
C598   C607    1.401   .     A
C599   C600    1.391   .     A
C599   H613    1.083   .     S
C600   C79     1.388   1_556 S
C600   H93     1.079   1_556 S
C601   H614    1.078   .     S
C602   C606    1.419   .     A
C603   C607    1.403   .     A
C604   C605    1.392   .     A
C604   C75     1.399   1_556 S
C604   C81     1.416   1_556 S
C605   C606    1.399   .     A
C605   H625    1.085   .     S
C606   O630    1.383   .     S
C607   H612    1.076   .     S
C608   H611    1.083   .     S
Cu609  O636    1.940   .     S
Cu609  O629    1.961   .     S
Cu609  Cu610   2.681   .     S
Cu609  N627    2.015   .     S
Cu609  O634    1.961   .     S
Cu609  O632    1.947   .     S
Cu610  O635    1.961   .     S
Cu610  O631    1.961   .     S
Cu610  N628    2.014   .     S
Cu610  O633    1.940   .     S
Cu610  O637    1.947   .     S
H617   O638    0.990   .     S
H618   O630    0.992   .     S
H626   C75     1.080   1_556 S
C639   C647    1.445   .     S
C639   O689    1.291   .     A
C639   O687    1.291   .     A
C640   C660    1.428   .     A
C640   C642    1.484   .     S
C640   C657    1.403   .     A
C641   C647    1.397   .     A
C641   H674    1.084   .     S
C641   C817    1.383   .     S
C642   O691    1.292   .     A
C642   O690    1.308   .     A
C643   H677    1.084   .     S
C643   C644    1.402   .     A
C643   C989    1.383   1_545 S
C644   C645    1.417   .     A
C644   C653    1.451   .     S
C645   O696    1.380   .     S
C645   C994    1.387   1_545 S
C646   H678    1.084   .     S
C646   C647    1.398   .     A
C646   C819    1.387   .     S
C648   H679    1.082   .     S
C648   N686    1.368   .     A
C648   C533    1.417   1_655 S
C649   N685    1.367   .     A
C649   H680    1.082   .     S
C650   C660    1.417   .     A
C650   C137    1.413   1_556 S
C650   C139    1.421   1_556 S
C651   H681    1.082   .     S
C651   N685    1.368   .     A
C652   H682    1.082   .     S
C652   N686    1.367   .     A
C652   C535    1.417   1_655 S
C653   O692    1.292   .     A
C653   O693    1.292   .     A
C654   O694    1.294   .     A
C654   O695    1.298   .     A
C654   C656    1.466   .     S
C655   C666    1.392   .     A
C656   C666    1.399   .     A
C656   C665    1.401   .     A
C657   C658    1.391   .     A
C657   H671    1.083   .     S
C658   C137    1.388   1_556 S
C658   H151    1.079   1_556 S
C659   H672    1.078   .     S
C660   C664    1.419   .     A
C661   C665    1.403   .     A
C662   C663    1.392   .     A
C662   C133    1.399   1_556 S
C662   C139    1.416   1_556 S
C663   C664    1.399   .     A
C663   H683    1.085   .     S
C664   O688    1.383   .     S
C665   H670    1.076   .     S
C666   H669    1.083   .     S
Cu667  O694    1.940   .     S
Cu667  O687    1.961   .     S
Cu667  Cu668   2.681   .     S
Cu667  N685    2.015   .     S
Cu667  O692    1.961   .     S
Cu667  O690    1.947   .     S
Cu668  O693    1.961   .     S
Cu668  O689    1.961   .     S
Cu668  N686    2.014   .     S
Cu668  O691    1.940   .     S
Cu668  O695    1.947   .     S
H675   O696    0.990   .     S
H676   O688    0.992   .     S
H684   C133    1.080   1_556 S
C697   C705    1.445   .     S
C697   O747    1.291   .     A
C697   O745    1.291   .     A
C698   C718    1.428   .     A
C698   C700    1.484   .     S
C698   C715    1.403   .     A
C699   C705    1.397   .     A
C699   H732    1.084   .     S
C699   C875    1.383   .     S
C700   O749    1.292   .     A
C700   O748    1.308   .     A
C701   H735    1.084   .     S
C701   C702    1.402   .     A
C702   C703    1.417   .     A
C702   C711    1.451   .     S
C703   O754    1.380   .     S
C704   H736    1.084   .     S
C704   C705    1.398   .     A
C704   C877    1.387   .     S
C706   H737    1.082   .     S
C706   N744    1.368   .     A
C706   C765    1.417   .     S
C707   N743    1.367   .     A
C707   H738    1.082   .     S
C707   C822    1.417   1_455 S
C708   C718    1.417   .     A
C708   C195    1.413   1_556 S
C708   C197    1.421   1_556 S
C709   H739    1.082   .     S
C709   N743    1.368   .     A
C709   C826    1.417   1_455 S
C710   H740    1.082   .     S
C710   N744    1.367   .     A
C710   C767    1.417   .     S
C711   O750    1.292   .     A
C711   O751    1.292   .     A
C712   O752    1.294   .     A
C712   O753    1.298   .     A
C712   C714    1.466   .     S
C713   C724    1.392   .     A
C714   C724    1.399   .     A
C714   C723    1.401   .     A
C715   C716    1.391   .     A
C715   H729    1.083   .     S
C716   C195    1.388   1_556 S
C716   H209    1.079   1_556 S
C717   H730    1.078   .     S
C718   C722    1.419   .     A
C719   C723    1.403   .     A
C720   C721    1.392   .     A
C720   C191    1.399   1_556 S
C720   C197    1.416   1_556 S
C721   C722    1.399   .     A
C721   H741    1.085   .     S
C722   O746    1.383   .     S
C723   H728    1.076   .     S
C724   H727    1.083   .     S
Cu725  O752    1.940   .     S
Cu725  O745    1.961   .     S
Cu725  Cu726   2.681   .     S
Cu725  N743    2.015   .     S
Cu725  O750    1.961   .     S
Cu725  O748    1.947   .     S
Cu726  O751    1.961   .     S
Cu726  O747    1.961   .     S
Cu726  N744    2.014   .     S
Cu726  O749    1.940   .     S
Cu726  O753    1.947   .     S
H733   O754    0.990   .     S
H734   O746    0.992   .     S
H742   C191    1.080   1_556 S
C755   C763    1.445   .     S
C755   O805    1.291   .     A
C755   O803    1.291   .     A
C756   C776    1.428   .     A
C756   C758    1.484   .     S
C756   C773    1.403   .     A
C757   C763    1.397   .     A
C757   H790    1.084   .     S
C757   C933    1.383   .     S
C758   O807    1.292   .     A
C758   O806    1.308   .     A
C759   H793    1.084   .     S
C759   C760    1.402   .     A
C760   C761    1.417   .     A
C760   C769    1.451   .     S
C761   O812    1.380   .     S
C762   H794    1.084   .     S
C762   C763    1.398   .     A
C762   C935    1.387   .     S
C764   H795    1.082   .     S
C764   N802    1.368   .     A
C764   C823    1.417   .     S
C765   N801    1.367   .     A
C765   H796    1.082   .     S
C766   C776    1.417   .     A
C766   C253    1.413   1_556 S
C766   C255    1.421   1_556 S
C767   H797    1.082   .     S
C767   N801    1.368   .     A
C768   H798    1.082   .     S
C768   N802    1.367   .     A
C768   C825    1.417   .     S
C769   O808    1.292   .     A
C769   O809    1.292   .     A
C770   O810    1.294   .     A
C770   O811    1.298   .     A
C770   C772    1.466   .     S
C771   C782    1.392   .     A
C772   C782    1.399   .     A
C772   C781    1.401   .     A
C773   C774    1.391   .     A
C773   H787    1.083   .     S
C774   C253    1.388   1_556 S
C774   H267    1.079   1_556 S
C775   H788    1.078   .     S
C776   C780    1.419   .     A
C777   C781    1.403   .     A
C778   C779    1.392   .     A
C778   C249    1.399   1_556 S
C778   C255    1.416   1_556 S
C779   C780    1.399   .     A
C779   H799    1.085   .     S
C780   O804    1.383   .     S
C781   H786    1.076   .     S
C782   H785    1.083   .     S
Cu783  O810    1.940   .     S
Cu783  O803    1.961   .     S
Cu783  Cu784   2.681   .     S
Cu783  N801    2.015   .     S
Cu783  O808    1.961   .     S
Cu783  O806    1.947   .     S
Cu784  O809    1.961   .     S
Cu784  O805    1.961   .     S
Cu784  N802    2.014   .     S
Cu784  O807    1.940   .     S
Cu784  O811    1.947   .     S
H791   O812    0.990   .     S
H792   O804    0.992   .     S
H800   C249    1.080   1_556 S
C813   C821    1.445   .     S
C813   O863    1.291   .     A
C813   O861    1.291   .     A
C814   C834    1.428   .     A
C814   C816    1.484   .     S
C814   C831    1.403   .     A
C815   C821    1.397   .     A
C815   H848    1.084   .     S
C815   C991    1.383   .     S
C816   O865    1.292   .     A
C816   O864    1.308   .     A
C817   H851    1.084   .     S
C817   C818    1.402   .     A
C818   C819    1.417   .     A
C818   C827    1.451   .     S
C819   O870    1.380   .     S
C820   H852    1.084   .     S
C820   C821    1.398   .     A
C820   C993    1.387   .     S
C822   H853    1.082   .     S
C822   N860    1.368   .     A
C822   C707    1.417   1_655 S
C823   N859    1.367   .     A
C823   H854    1.082   .     S
C824   C834    1.417   .     A
C824   C311    1.413   1_556 S
C824   C313    1.421   1_556 S
C825   H855    1.082   .     S
C825   N859    1.368   .     A
C826   H856    1.082   .     S
C826   N860    1.367   .     A
C826   C709    1.417   1_655 S
C827   O866    1.292   .     A
C827   O867    1.292   .     A
C828   O868    1.294   .     A
C828   O869    1.298   .     A
C828   C830    1.466   .     S
C829   C840    1.392   .     A
C830   C840    1.399   .     A
C830   C839    1.401   .     A
C831   C832    1.391   .     A
C831   H845    1.083   .     S
C832   C311    1.388   1_556 S
C832   H325    1.079   1_556 S
C833   H846    1.078   .     S
C834   C838    1.419   .     A
C835   C839    1.403   .     A
C836   C837    1.392   .     A
C836   C307    1.399   1_556 S
C836   C313    1.416   1_556 S
C837   C838    1.399   .     A
C837   H857    1.085   .     S
C838   O862    1.383   .     S
C839   H844    1.076   .     S
C840   H843    1.083   .     S
Cu841  O868    1.940   .     S
Cu841  O861    1.961   .     S
Cu841  Cu842   2.681   .     S
Cu841  N859    2.015   .     S
Cu841  O866    1.961   .     S
Cu841  O864    1.947   .     S
Cu842  O867    1.961   .     S
Cu842  O863    1.961   .     S
Cu842  N860    2.014   .     S
Cu842  O865    1.940   .     S
Cu842  O869    1.947   .     S
H849   O870    0.990   .     S
H850   O862    0.992   .     S
H858   C307    1.080   1_556 S
C871   C879    1.445   .     S
C871   O921    1.291   .     A
C871   O919    1.291   .     A
C872   C892    1.428   .     A
C872   C874    1.484   .     S
C872   C889    1.403   .     A
C873   C879    1.397   .     A
C873   H906    1.084   .     S
C873   C527    1.383   1_565 S
C874   O923    1.292   .     A
C874   O922    1.308   .     A
C875   H909    1.084   .     S
C875   C876    1.402   .     A
C876   C877    1.417   .     A
C876   C885    1.451   .     S
C877   O928    1.380   .     S
C878   H910    1.084   .     S
C878   C879    1.398   .     A
C878   C529    1.387   1_565 S
C880   H911    1.082   .     S
C880   N918    1.368   .     A
C880   C939    1.417   .     S
C881   N917    1.367   .     A
C881   H912    1.082   .     S
C881   C996    1.417   1_455 S
C882   C892    1.417   .     A
C882   C369    1.413   1_556 S
C882   C371    1.421   1_556 S
C883   H913    1.082   .     S
C883   N917    1.368   .     A
C883   C1000   1.417   1_455 S
C884   H914    1.082   .     S
C884   N918    1.367   .     A
C884   C941    1.417   .     S
C885   O924    1.292   .     A
C885   O925    1.292   .     A
C886   O926    1.294   .     A
C886   O927    1.298   .     A
C886   C888    1.466   .     S
C887   C898    1.392   .     A
C888   C898    1.399   .     A
C888   C897    1.401   .     A
C889   C890    1.391   .     A
C889   H903    1.083   .     S
C890   C369    1.388   1_556 S
C890   H383    1.079   1_556 S
C891   H904    1.078   .     S
C892   C896    1.419   .     A
C893   C897    1.403   .     A
C894   C895    1.392   .     A
C894   C365    1.399   1_556 S
C894   C371    1.416   1_556 S
C895   C896    1.399   .     A
C895   H915    1.085   .     S
C896   O920    1.383   .     S
C897   H902    1.076   .     S
C898   H901    1.083   .     S
Cu899  O926    1.940   .     S
Cu899  O919    1.961   .     S
Cu899  Cu900   2.681   .     S
Cu899  N917    2.015   .     S
Cu899  O924    1.961   .     S
Cu899  O922    1.947   .     S
Cu900  O925    1.961   .     S
Cu900  O921    1.961   .     S
Cu900  N918    2.014   .     S
Cu900  O923    1.940   .     S
Cu900  O927    1.947   .     S
H907   O928    0.990   .     S
H908   O920    0.992   .     S
H916   C365    1.080   1_556 S
C929   C937    1.445   .     S
C929   O979    1.291   .     A
C929   O977    1.291   .     A
C930   C950    1.428   .     A
C930   C932    1.484   .     S
C930   C947    1.403   .     A
C931   C937    1.397   .     A
C931   H964    1.084   .     S
C931   C585    1.383   1_565 S
C932   O981    1.292   .     A
C932   O980    1.308   .     A
C933   H967    1.084   .     S
C933   C934    1.402   .     A
C934   C935    1.417   .     A
C934   C943    1.451   .     S
C935   O986    1.380   .     S
C936   H968    1.084   .     S
C936   C937    1.398   .     A
C936   C587    1.387   1_565 S
C938   H969    1.082   .     S
C938   N976    1.368   .     A
C938   C997    1.417   .     S
C939   N975    1.367   .     A
C939   H970    1.082   .     S
C940   C950    1.417   .     A
C940   C427    1.413   1_556 S
C940   C429    1.421   1_556 S
C941   H971    1.082   .     S
C941   N975    1.368   .     A
C942   H972    1.082   .     S
C942   N976    1.367   .     A
C942   C999    1.417   .     S
C943   O982    1.292   .     A
C943   O983    1.292   .     A
C944   O984    1.294   .     A
C944   O985    1.298   .     A
C944   C946    1.466   .     S
C945   C956    1.392   .     A
C946   C956    1.399   .     A
C946   C955    1.401   .     A
C947   C948    1.391   .     A
C947   H961    1.083   .     S
C948   C427    1.388   1_556 S
C948   H441    1.079   1_556 S
C949   H962    1.078   .     S
C950   C954    1.419   .     A
C951   C955    1.403   .     A
C952   C953    1.392   .     A
C952   C423    1.399   1_556 S
C952   C429    1.416   1_556 S
C953   C954    1.399   .     A
C953   H973    1.085   .     S
C954   O978    1.383   .     S
C955   H960    1.076   .     S
C956   H959    1.083   .     S
Cu957  O984    1.940   .     S
Cu957  O977    1.961   .     S
Cu957  Cu958   2.681   .     S
Cu957  N975    2.015   .     S
Cu957  O982    1.961   .     S
Cu957  O980    1.947   .     S
Cu958  O983    1.961   .     S
Cu958  O979    1.961   .     S
Cu958  N976    2.014   .     S
Cu958  O981    1.940   .     S
Cu958  O985    1.947   .     S
H965   O986    0.990   .     S
H966   O978    0.992   .     S
H974   C423    1.080   1_556 S
C987   C995    1.445   .     S
C987   O1037   1.291   .     A
C987   O1035   1.291   .     A
C988   C1008   1.428   .     A
C988   C990    1.484   .     S
C988   C1005   1.403   .     A
C989   C995    1.397   .     A
C989   H1022   1.084   .     S
C989   C643    1.383   1_565 S
C990   O1039   1.292   .     A
C990   O1038   1.308   .     A
C991   H1025   1.084   .     S
C991   C992    1.402   .     A
C992   C993    1.417   .     A
C992   C1001   1.451   .     S
C993   O1044   1.380   .     S
C994   H1026   1.084   .     S
C994   C995    1.398   .     A
C994   C645    1.387   1_565 S
C996   H1027   1.082   .     S
C996   N1034   1.368   .     A
C996   C881    1.417   1_655 S
C997   N1033   1.367   .     A
C997   H1028   1.082   .     S
C998   C1008   1.417   .     A
C998   C485    1.413   1_556 S
C998   C487    1.421   1_556 S
C999   H1029   1.082   .     S
C999   N1033   1.368   .     A
C1000  H1030   1.082   .     S
C1000  N1034   1.367   .     A
C1000  C883    1.417   1_655 S
C1001  O1040   1.292   .     A
C1001  O1041   1.292   .     A
C1002  O1042   1.294   .     A
C1002  O1043   1.298   .     A
C1002  C1004   1.466   .     S
C1003  C1014   1.392   .     A
C1004  C1014   1.399   .     A
C1004  C1013   1.401   .     A
C1005  C1006   1.391   .     A
C1005  H1019   1.083   .     S
C1006  C485    1.388   1_556 S
C1006  H499    1.079   1_556 S
C1007  H1020   1.078   .     S
C1008  C1012   1.419   .     A
C1009  C1013   1.403   .     A
C1010  C1011   1.392   .     A
C1010  C481    1.399   1_556 S
C1010  C487    1.416   1_556 S
C1011  C1012   1.399   .     A
C1011  H1031   1.085   .     S
C1012  O1036   1.383   .     S
C1013  H1018   1.076   .     S
C1014  H1017   1.083   .     S
Cu1015 O1042   1.940   .     S
Cu1015 O1035   1.961   .     S
Cu1015 Cu1016  2.681   .     S
Cu1015 N1033   2.015   .     S
Cu1015 O1040   1.961   .     S
Cu1015 O1038   1.947   .     S
Cu1016 O1041   1.961   .     S
Cu1016 O1037   1.961   .     S
Cu1016 N1034   2.014   .     S
Cu1016 O1039   1.940   .     S
Cu1016 O1043   1.947   .     S
H1023  O1044   0.990   .     S
H1024  O1036   0.992   .     S
H1032  C481    1.080   1_556 S
