data_str_m2_o1_o5_pcu_sym.46
_audit_creation_date              2020-01-03
_audit_creation_method            'Materials Studio'
_symmetry_space_group_name_H-M    'P1'
_symmetry_Int_Tables_number       1
_symmetry_cell_setting            triclinic
loop_
_symmetry_equiv_pos_as_xyz
  x,y,z
_cell_length_a                    32.8368
_cell_length_b                    28.7272
_cell_length_c                    27.2208
_cell_angle_alpha                 90.0000
_cell_angle_beta                  92.2677
_cell_angle_gamma                 89.9991
loop_
_atom_site_label
_atom_site_type_symbol
_atom_site_fract_x
_atom_site_fract_y
_atom_site_fract_z
_atom_site_U_iso_or_equiv
_atom_site_adp_type
_atom_site_occupancy
C1     C     0.08751   0.16667   0.16969   0.00000  Uiso   1.00
C2     C     0.02101   0.20923   0.17114   0.00000  Uiso   1.00
C3     C     0.29056   0.16667   0.16119   0.00000  Uiso   1.00
C4     C     0.04277   0.16667   0.17215   0.00000  Uiso   1.00
C5     C     0.14187   0.02471   0.13421   0.00000  Uiso   1.00
C6     C     0.19146   0.30862   0.19912   0.00000  Uiso   1.00
C7     C     0.19146   0.02471   0.19912   0.00000  Uiso   1.00
C8     C     0.14187   0.30862   0.13421   0.00000  Uiso   1.00
C9     C     0.24582   0.16667   0.16365   0.00000  Uiso   1.00
C10    C     0.16658   0.16667   0.07359   0.00000  Uiso   1.00
C11    C     0.16675   0.16667   0.25975   0.00000  Uiso   1.00
C12    C     0.16664   0.16667   0.02186   0.00000  Uiso   1.00
C13    C     0.16670   0.16667   0.31148   0.00000  Uiso   1.00
C14    C     0.02101   0.12411   0.17115   0.00000  Uiso   1.00
C15    C     0.31232   0.20923   0.16218   0.00000  Uiso   1.00
C16    C     0.31232   0.12411   0.16220   0.00000  Uiso   1.00
Cl17   Cl    0.04423   0.06971   0.18599   0.00000  Uiso   1.00
Cl18   Cl    0.28910   0.26362   0.14734   0.00000  Uiso   1.00
Cl19   Cl    0.28911   0.06970   0.14738   0.00000  Uiso   1.00
Cl20   Cl    0.04422   0.26363   0.18595   0.00000  Uiso   1.00
Cl21   Cl    0.10924   0.05394   0.09146   0.00000  Uiso   1.00
Cl22   Cl    0.22410   0.27940   0.24187   0.00000  Uiso   1.00
Cl23   Cl    0.22409   0.05393   0.24188   0.00000  Uiso   1.00
Cl24   Cl    0.10924   0.27940   0.09146   0.00000  Uiso   1.00
Cu25   Cu    0.16667   0.21355   0.16667   0.00000  Uiso   1.00
Cu26   Cu    0.16667   0.11978   0.16667   0.00000  Uiso   1.00
N27    N     0.16667   0.28402   0.16667   0.00000  Uiso   1.00
N28    N     0.16667   0.04931   0.16667   0.00000  Uiso   1.00
O29    O     0.10655   0.20625   0.16666   0.00000  Uiso   1.00
O30    O     0.22679   0.12709   0.16667   0.00000  Uiso   1.00
O31    O     0.22679   0.20625   0.16667   0.00000  Uiso   1.00
O32    O     0.10655   0.12709   0.16666   0.00000  Uiso   1.00
O33    O     0.16667   0.20625   0.09613   0.00000  Uiso   1.00
O34    O     0.16667   0.12708   0.23720   0.00000  Uiso   1.00
O35    O     0.16667   0.20625   0.23720   0.00000  Uiso   1.00
O36    O     0.16667   0.12708   0.09613   0.00000  Uiso   1.00
C37    C     0.42085   0.16667   0.16969   0.00000  Uiso   1.00
C38    C     0.35434   0.20923   0.17114   0.00000  Uiso   1.00
C39    C     0.62389   0.16667   0.16119   0.00000  Uiso   1.00
C40    C     0.37611   0.16667   0.17215   0.00000  Uiso   1.00
C41    C     0.47521   0.02471   0.13421   0.00000  Uiso   1.00
C42    C     0.52479   0.30862   0.19912   0.00000  Uiso   1.00
C43    C     0.52479   0.02471   0.19912   0.00000  Uiso   1.00
C44    C     0.47521   0.30862   0.13421   0.00000  Uiso   1.00
C45    C     0.57915   0.16667   0.16365   0.00000  Uiso   1.00
C46    C     0.49992   0.16667   0.07359   0.00000  Uiso   1.00
C47    C     0.50008   0.16667   0.25975   0.00000  Uiso   1.00
C48    C     0.49997   0.16667   0.02186   0.00000  Uiso   1.00
C49    C     0.50003   0.16667   0.31148   0.00000  Uiso   1.00
C50    C     0.35435   0.12411   0.17115   0.00000  Uiso   1.00
C51    C     0.64565   0.20923   0.16218   0.00000  Uiso   1.00
C52    C     0.64566   0.12411   0.16220   0.00000  Uiso   1.00
Cl53   Cl    0.37756   0.06971   0.18599   0.00000  Uiso   1.00
Cl54   Cl    0.62244   0.26362   0.14734   0.00000  Uiso   1.00
Cl55   Cl    0.62244   0.06970   0.14738   0.00000  Uiso   1.00
Cl56   Cl    0.37756   0.26363   0.18595   0.00000  Uiso   1.00
Cl57   Cl    0.44257   0.05394   0.09146   0.00000  Uiso   1.00
Cl58   Cl    0.55743   0.27940   0.24187   0.00000  Uiso   1.00
Cl59   Cl    0.55743   0.05393   0.24188   0.00000  Uiso   1.00
Cl60   Cl    0.44257   0.27940   0.09146   0.00000  Uiso   1.00
Cu61   Cu    0.50000   0.21355   0.16667   0.00000  Uiso   1.00
Cu62   Cu    0.50000   0.11978   0.16667   0.00000  Uiso   1.00
N63    N     0.50000   0.28402   0.16667   0.00000  Uiso   1.00
N64    N     0.50000   0.04931   0.16667   0.00000  Uiso   1.00
O65    O     0.43988   0.20625   0.16666   0.00000  Uiso   1.00
O66    O     0.56012   0.12709   0.16667   0.00000  Uiso   1.00
O67    O     0.56012   0.20625   0.16667   0.00000  Uiso   1.00
O68    O     0.43988   0.12709   0.16666   0.00000  Uiso   1.00
O69    O     0.50000   0.20625   0.09613   0.00000  Uiso   1.00
O70    O     0.50000   0.12708   0.23720   0.00000  Uiso   1.00
O71    O     0.50000   0.20625   0.23720   0.00000  Uiso   1.00
O72    O     0.50000   0.12708   0.09613   0.00000  Uiso   1.00
C73    C     0.75418   0.16667   0.16969   0.00000  Uiso   1.00
C74    C     0.68768   0.20923   0.17114   0.00000  Uiso   1.00
C75    C     0.95723   0.16667   0.16119   0.00000  Uiso   1.00
C76    C     0.70944   0.16667   0.17215   0.00000  Uiso   1.00
C77    C     0.80854   0.02471   0.13421   0.00000  Uiso   1.00
C78    C     0.85813   0.30862   0.19912   0.00000  Uiso   1.00
C79    C     0.85813   0.02471   0.19912   0.00000  Uiso   1.00
C80    C     0.80854   0.30862   0.13421   0.00000  Uiso   1.00
C81    C     0.91248   0.16667   0.16365   0.00000  Uiso   1.00
C82    C     0.83325   0.16667   0.07359   0.00000  Uiso   1.00
C83    C     0.83342   0.16667   0.25975   0.00000  Uiso   1.00
C84    C     0.83330   0.16667   0.02186   0.00000  Uiso   1.00
C85    C     0.83336   0.16667   0.31148   0.00000  Uiso   1.00
C86    C     0.68768   0.12411   0.17115   0.00000  Uiso   1.00
C87    C     0.97899   0.20923   0.16218   0.00000  Uiso   1.00
C88    C     0.97899   0.12411   0.16220   0.00000  Uiso   1.00
Cl89   Cl    0.71090   0.06971   0.18599   0.00000  Uiso   1.00
Cl90   Cl    0.95577   0.26362   0.14734   0.00000  Uiso   1.00
Cl91   Cl    0.95578   0.06970   0.14738   0.00000  Uiso   1.00
Cl92   Cl    0.71089   0.26363   0.18595   0.00000  Uiso   1.00
Cl93   Cl    0.77590   0.05394   0.09146   0.00000  Uiso   1.00
Cl94   Cl    0.89076   0.27940   0.24187   0.00000  Uiso   1.00
Cl95   Cl    0.89076   0.05393   0.24188   0.00000  Uiso   1.00
Cl96   Cl    0.77591   0.27940   0.09146   0.00000  Uiso   1.00
Cu97   Cu    0.83333   0.21355   0.16667   0.00000  Uiso   1.00
Cu98   Cu    0.83333   0.11978   0.16667   0.00000  Uiso   1.00
N99    N     0.83333   0.28402   0.16667   0.00000  Uiso   1.00
N100   N     0.83333   0.04931   0.16667   0.00000  Uiso   1.00
O101   O     0.77321   0.20625   0.16666   0.00000  Uiso   1.00
O102   O     0.89345   0.12709   0.16667   0.00000  Uiso   1.00
O103   O     0.89345   0.20625   0.16667   0.00000  Uiso   1.00
O104   O     0.77321   0.12709   0.16666   0.00000  Uiso   1.00
O105   O     0.83333   0.20625   0.09613   0.00000  Uiso   1.00
O106   O     0.83333   0.12708   0.23720   0.00000  Uiso   1.00
O107   O     0.83333   0.20625   0.23720   0.00000  Uiso   1.00
O108   O     0.83333   0.12708   0.09613   0.00000  Uiso   1.00
C109   C     0.08751   0.50000   0.16969   0.00000  Uiso   1.00
C110   C     0.02101   0.54256   0.17114   0.00000  Uiso   1.00
C111   C     0.29056   0.50000   0.16119   0.00000  Uiso   1.00
C112   C     0.04277   0.50000   0.17215   0.00000  Uiso   1.00
C113   C     0.14187   0.35804   0.13421   0.00000  Uiso   1.00
C114   C     0.19146   0.64196   0.19912   0.00000  Uiso   1.00
C115   C     0.19146   0.35804   0.19912   0.00000  Uiso   1.00
C116   C     0.14187   0.64196   0.13421   0.00000  Uiso   1.00
C117   C     0.24582   0.50000   0.16365   0.00000  Uiso   1.00
C118   C     0.16658   0.50000   0.07359   0.00000  Uiso   1.00
C119   C     0.16675   0.50000   0.25975   0.00000  Uiso   1.00
C120   C     0.16664   0.50000   0.02186   0.00000  Uiso   1.00
C121   C     0.16670   0.50000   0.31148   0.00000  Uiso   1.00
C122   C     0.02101   0.45744   0.17115   0.00000  Uiso   1.00
C123   C     0.31232   0.54256   0.16218   0.00000  Uiso   1.00
C124   C     0.31232   0.45744   0.16220   0.00000  Uiso   1.00
Cl125  Cl    0.04423   0.40304   0.18599   0.00000  Uiso   1.00
Cl126  Cl    0.28910   0.59696   0.14734   0.00000  Uiso   1.00
Cl127  Cl    0.28911   0.40304   0.14738   0.00000  Uiso   1.00
Cl128  Cl    0.04422   0.59696   0.18595   0.00000  Uiso   1.00
Cl129  Cl    0.10924   0.38727   0.09146   0.00000  Uiso   1.00
Cl130  Cl    0.22410   0.61273   0.24187   0.00000  Uiso   1.00
Cl131  Cl    0.22409   0.38727   0.24188   0.00000  Uiso   1.00
Cl132  Cl    0.10924   0.61273   0.09146   0.00000  Uiso   1.00
Cu133  Cu    0.16667   0.54689   0.16667   0.00000  Uiso   1.00
Cu134  Cu    0.16667   0.45311   0.16667   0.00000  Uiso   1.00
N135   N     0.16667   0.61736   0.16667   0.00000  Uiso   1.00
N136   N     0.16667   0.38264   0.16667   0.00000  Uiso   1.00
O137   O     0.10655   0.53958   0.16666   0.00000  Uiso   1.00
O138   O     0.22679   0.46042   0.16667   0.00000  Uiso   1.00
O139   O     0.22679   0.53958   0.16667   0.00000  Uiso   1.00
O140   O     0.10655   0.46042   0.16666   0.00000  Uiso   1.00
O141   O     0.16667   0.53959   0.09613   0.00000  Uiso   1.00
O142   O     0.16667   0.46041   0.23720   0.00000  Uiso   1.00
O143   O     0.16667   0.53959   0.23720   0.00000  Uiso   1.00
O144   O     0.16667   0.46041   0.09613   0.00000  Uiso   1.00
C145   C     0.42085   0.50000   0.16969   0.00000  Uiso   1.00
C146   C     0.35434   0.54256   0.17114   0.00000  Uiso   1.00
C147   C     0.62389   0.50000   0.16119   0.00000  Uiso   1.00
C148   C     0.37611   0.50000   0.17215   0.00000  Uiso   1.00
C149   C     0.47521   0.35804   0.13421   0.00000  Uiso   1.00
C150   C     0.52479   0.64196   0.19912   0.00000  Uiso   1.00
C151   C     0.52479   0.35804   0.19912   0.00000  Uiso   1.00
C152   C     0.47521   0.64196   0.13421   0.00000  Uiso   1.00
C153   C     0.57915   0.50000   0.16365   0.00000  Uiso   1.00
C154   C     0.49992   0.50000   0.07359   0.00000  Uiso   1.00
C155   C     0.50008   0.50000   0.25975   0.00000  Uiso   1.00
C156   C     0.49997   0.50000   0.02186   0.00000  Uiso   1.00
C157   C     0.50003   0.50000   0.31148   0.00000  Uiso   1.00
C158   C     0.35435   0.45744   0.17115   0.00000  Uiso   1.00
C159   C     0.64565   0.54256   0.16218   0.00000  Uiso   1.00
C160   C     0.64566   0.45744   0.16220   0.00000  Uiso   1.00
Cl161  Cl    0.37756   0.40304   0.18599   0.00000  Uiso   1.00
Cl162  Cl    0.62244   0.59696   0.14734   0.00000  Uiso   1.00
Cl163  Cl    0.62244   0.40304   0.14738   0.00000  Uiso   1.00
Cl164  Cl    0.37756   0.59696   0.18595   0.00000  Uiso   1.00
Cl165  Cl    0.44257   0.38727   0.09146   0.00000  Uiso   1.00
Cl166  Cl    0.55743   0.61273   0.24187   0.00000  Uiso   1.00
Cl167  Cl    0.55743   0.38727   0.24188   0.00000  Uiso   1.00
Cl168  Cl    0.44257   0.61273   0.09146   0.00000  Uiso   1.00
Cu169  Cu    0.50000   0.54689   0.16667   0.00000  Uiso   1.00
Cu170  Cu    0.50000   0.45311   0.16667   0.00000  Uiso   1.00
N171   N     0.50000   0.61736   0.16667   0.00000  Uiso   1.00
N172   N     0.50000   0.38264   0.16667   0.00000  Uiso   1.00
O173   O     0.43988   0.53958   0.16666   0.00000  Uiso   1.00
O174   O     0.56012   0.46042   0.16667   0.00000  Uiso   1.00
O175   O     0.56012   0.53958   0.16667   0.00000  Uiso   1.00
O176   O     0.43988   0.46042   0.16666   0.00000  Uiso   1.00
O177   O     0.50000   0.53959   0.09613   0.00000  Uiso   1.00
O178   O     0.50000   0.46041   0.23720   0.00000  Uiso   1.00
O179   O     0.50000   0.53959   0.23720   0.00000  Uiso   1.00
O180   O     0.50000   0.46041   0.09613   0.00000  Uiso   1.00
C181   C     0.75418   0.50000   0.16969   0.00000  Uiso   1.00
C182   C     0.68768   0.54256   0.17114   0.00000  Uiso   1.00
C183   C     0.95723   0.50000   0.16119   0.00000  Uiso   1.00
C184   C     0.70944   0.50000   0.17215   0.00000  Uiso   1.00
C185   C     0.80854   0.35804   0.13421   0.00000  Uiso   1.00
C186   C     0.85813   0.64196   0.19912   0.00000  Uiso   1.00
C187   C     0.85813   0.35804   0.19912   0.00000  Uiso   1.00
C188   C     0.80854   0.64196   0.13421   0.00000  Uiso   1.00
C189   C     0.91248   0.50000   0.16365   0.00000  Uiso   1.00
C190   C     0.83325   0.50000   0.07359   0.00000  Uiso   1.00
C191   C     0.83342   0.50000   0.25975   0.00000  Uiso   1.00
C192   C     0.83330   0.50000   0.02186   0.00000  Uiso   1.00
C193   C     0.83336   0.50000   0.31148   0.00000  Uiso   1.00
C194   C     0.68768   0.45744   0.17115   0.00000  Uiso   1.00
C195   C     0.97899   0.54256   0.16218   0.00000  Uiso   1.00
C196   C     0.97899   0.45744   0.16220   0.00000  Uiso   1.00
Cl197  Cl    0.71090   0.40304   0.18599   0.00000  Uiso   1.00
Cl198  Cl    0.95577   0.59696   0.14734   0.00000  Uiso   1.00
Cl199  Cl    0.95578   0.40304   0.14738   0.00000  Uiso   1.00
Cl200  Cl    0.71089   0.59696   0.18595   0.00000  Uiso   1.00
Cl201  Cl    0.77590   0.38727   0.09146   0.00000  Uiso   1.00
Cl202  Cl    0.89076   0.61273   0.24187   0.00000  Uiso   1.00
Cl203  Cl    0.89076   0.38727   0.24188   0.00000  Uiso   1.00
Cl204  Cl    0.77591   0.61273   0.09146   0.00000  Uiso   1.00
Cu205  Cu    0.83333   0.54689   0.16667   0.00000  Uiso   1.00
Cu206  Cu    0.83333   0.45311   0.16667   0.00000  Uiso   1.00
N207   N     0.83333   0.61736   0.16667   0.00000  Uiso   1.00
N208   N     0.83333   0.38264   0.16667   0.00000  Uiso   1.00
O209   O     0.77321   0.53958   0.16666   0.00000  Uiso   1.00
O210   O     0.89345   0.46042   0.16667   0.00000  Uiso   1.00
O211   O     0.89345   0.53958   0.16667   0.00000  Uiso   1.00
O212   O     0.77321   0.46042   0.16666   0.00000  Uiso   1.00
O213   O     0.83333   0.53959   0.09613   0.00000  Uiso   1.00
O214   O     0.83333   0.46041   0.23720   0.00000  Uiso   1.00
O215   O     0.83333   0.53959   0.23720   0.00000  Uiso   1.00
O216   O     0.83333   0.46041   0.09613   0.00000  Uiso   1.00
C217   C     0.08751   0.83333   0.16969   0.00000  Uiso   1.00
C218   C     0.02101   0.87589   0.17114   0.00000  Uiso   1.00
C219   C     0.29056   0.83333   0.16119   0.00000  Uiso   1.00
C220   C     0.04277   0.83333   0.17215   0.00000  Uiso   1.00
C221   C     0.14187   0.69138   0.13421   0.00000  Uiso   1.00
C222   C     0.19146   0.97529   0.19912   0.00000  Uiso   1.00
C223   C     0.19146   0.69138   0.19912   0.00000  Uiso   1.00
C224   C     0.14187   0.97529   0.13421   0.00000  Uiso   1.00
C225   C     0.24582   0.83333   0.16365   0.00000  Uiso   1.00
C226   C     0.16658   0.83333   0.07359   0.00000  Uiso   1.00
C227   C     0.16675   0.83333   0.25975   0.00000  Uiso   1.00
C228   C     0.16664   0.83333   0.02186   0.00000  Uiso   1.00
C229   C     0.16670   0.83333   0.31148   0.00000  Uiso   1.00
C230   C     0.02101   0.79077   0.17115   0.00000  Uiso   1.00
C231   C     0.31232   0.87589   0.16218   0.00000  Uiso   1.00
C232   C     0.31232   0.79077   0.16220   0.00000  Uiso   1.00
Cl233  Cl    0.04423   0.73638   0.18599   0.00000  Uiso   1.00
Cl234  Cl    0.28910   0.93029   0.14734   0.00000  Uiso   1.00
Cl235  Cl    0.28911   0.73637   0.14738   0.00000  Uiso   1.00
Cl236  Cl    0.04422   0.93030   0.18595   0.00000  Uiso   1.00
Cl237  Cl    0.10924   0.72060   0.09146   0.00000  Uiso   1.00
Cl238  Cl    0.22410   0.94606   0.24187   0.00000  Uiso   1.00
Cl239  Cl    0.22409   0.72060   0.24188   0.00000  Uiso   1.00
Cl240  Cl    0.10924   0.94607   0.09146   0.00000  Uiso   1.00
Cu241  Cu    0.16667   0.88022   0.16667   0.00000  Uiso   1.00
Cu242  Cu    0.16667   0.78645   0.16667   0.00000  Uiso   1.00
N243   N     0.16667   0.95069   0.16667   0.00000  Uiso   1.00
N244   N     0.16667   0.71598   0.16667   0.00000  Uiso   1.00
O245   O     0.10655   0.87291   0.16666   0.00000  Uiso   1.00
O246   O     0.22679   0.79375   0.16667   0.00000  Uiso   1.00
O247   O     0.22679   0.87291   0.16667   0.00000  Uiso   1.00
O248   O     0.10655   0.79375   0.16666   0.00000  Uiso   1.00
O249   O     0.16667   0.87292   0.09613   0.00000  Uiso   1.00
O250   O     0.16667   0.79375   0.23720   0.00000  Uiso   1.00
O251   O     0.16667   0.87292   0.23720   0.00000  Uiso   1.00
O252   O     0.16667   0.79375   0.09613   0.00000  Uiso   1.00
C253   C     0.42085   0.83333   0.16969   0.00000  Uiso   1.00
C254   C     0.35434   0.87589   0.17114   0.00000  Uiso   1.00
C255   C     0.62389   0.83333   0.16119   0.00000  Uiso   1.00
C256   C     0.37611   0.83333   0.17215   0.00000  Uiso   1.00
C257   C     0.47521   0.69138   0.13421   0.00000  Uiso   1.00
C258   C     0.52479   0.97529   0.19912   0.00000  Uiso   1.00
C259   C     0.52479   0.69138   0.19912   0.00000  Uiso   1.00
C260   C     0.47521   0.97529   0.13421   0.00000  Uiso   1.00
C261   C     0.57915   0.83333   0.16365   0.00000  Uiso   1.00
C262   C     0.49992   0.83333   0.07359   0.00000  Uiso   1.00
C263   C     0.50008   0.83333   0.25975   0.00000  Uiso   1.00
C264   C     0.49997   0.83333   0.02186   0.00000  Uiso   1.00
C265   C     0.50003   0.83333   0.31148   0.00000  Uiso   1.00
C266   C     0.35435   0.79077   0.17115   0.00000  Uiso   1.00
C267   C     0.64565   0.87589   0.16218   0.00000  Uiso   1.00
C268   C     0.64566   0.79077   0.16220   0.00000  Uiso   1.00
Cl269  Cl    0.37756   0.73638   0.18599   0.00000  Uiso   1.00
Cl270  Cl    0.62244   0.93029   0.14734   0.00000  Uiso   1.00
Cl271  Cl    0.62244   0.73637   0.14738   0.00000  Uiso   1.00
Cl272  Cl    0.37756   0.93030   0.18595   0.00000  Uiso   1.00
Cl273  Cl    0.44257   0.72060   0.09146   0.00000  Uiso   1.00
Cl274  Cl    0.55743   0.94606   0.24187   0.00000  Uiso   1.00
Cl275  Cl    0.55743   0.72060   0.24188   0.00000  Uiso   1.00
Cl276  Cl    0.44257   0.94607   0.09146   0.00000  Uiso   1.00
Cu277  Cu    0.50000   0.88022   0.16667   0.00000  Uiso   1.00
Cu278  Cu    0.50000   0.78645   0.16667   0.00000  Uiso   1.00
N279   N     0.50000   0.95069   0.16667   0.00000  Uiso   1.00
N280   N     0.50000   0.71598   0.16667   0.00000  Uiso   1.00
O281   O     0.43988   0.87291   0.16666   0.00000  Uiso   1.00
O282   O     0.56012   0.79375   0.16667   0.00000  Uiso   1.00
O283   O     0.56012   0.87291   0.16667   0.00000  Uiso   1.00
O284   O     0.43988   0.79375   0.16666   0.00000  Uiso   1.00
O285   O     0.50000   0.87292   0.09613   0.00000  Uiso   1.00
O286   O     0.50000   0.79375   0.23720   0.00000  Uiso   1.00
O287   O     0.50000   0.87292   0.23720   0.00000  Uiso   1.00
O288   O     0.50000   0.79375   0.09613   0.00000  Uiso   1.00
C289   C     0.75418   0.83333   0.16969   0.00000  Uiso   1.00
C290   C     0.68768   0.87589   0.17114   0.00000  Uiso   1.00
C291   C     0.95723   0.83333   0.16119   0.00000  Uiso   1.00
C292   C     0.70944   0.83333   0.17215   0.00000  Uiso   1.00
C293   C     0.80854   0.69138   0.13421   0.00000  Uiso   1.00
C294   C     0.85813   0.97529   0.19912   0.00000  Uiso   1.00
C295   C     0.85813   0.69138   0.19912   0.00000  Uiso   1.00
C296   C     0.80854   0.97529   0.13421   0.00000  Uiso   1.00
C297   C     0.91248   0.83333   0.16365   0.00000  Uiso   1.00
C298   C     0.83325   0.83333   0.07359   0.00000  Uiso   1.00
C299   C     0.83342   0.83333   0.25975   0.00000  Uiso   1.00
C300   C     0.83330   0.83333   0.02186   0.00000  Uiso   1.00
C301   C     0.83336   0.83333   0.31148   0.00000  Uiso   1.00
C302   C     0.68768   0.79077   0.17115   0.00000  Uiso   1.00
C303   C     0.97899   0.87589   0.16218   0.00000  Uiso   1.00
C304   C     0.97899   0.79077   0.16220   0.00000  Uiso   1.00
Cl305  Cl    0.71090   0.73638   0.18599   0.00000  Uiso   1.00
Cl306  Cl    0.95577   0.93029   0.14734   0.00000  Uiso   1.00
Cl307  Cl    0.95578   0.73637   0.14738   0.00000  Uiso   1.00
Cl308  Cl    0.71089   0.93030   0.18595   0.00000  Uiso   1.00
Cl309  Cl    0.77590   0.72060   0.09146   0.00000  Uiso   1.00
Cl310  Cl    0.89076   0.94606   0.24187   0.00000  Uiso   1.00
Cl311  Cl    0.89076   0.72060   0.24188   0.00000  Uiso   1.00
Cl312  Cl    0.77591   0.94607   0.09146   0.00000  Uiso   1.00
Cu313  Cu    0.83333   0.88022   0.16667   0.00000  Uiso   1.00
Cu314  Cu    0.83333   0.78645   0.16667   0.00000  Uiso   1.00
N315   N     0.83333   0.95069   0.16667   0.00000  Uiso   1.00
N316   N     0.83333   0.71598   0.16667   0.00000  Uiso   1.00
O317   O     0.77321   0.87291   0.16666   0.00000  Uiso   1.00
O318   O     0.89345   0.79375   0.16667   0.00000  Uiso   1.00
O319   O     0.89345   0.87291   0.16667   0.00000  Uiso   1.00
O320   O     0.77321   0.79375   0.16666   0.00000  Uiso   1.00
O321   O     0.83333   0.87292   0.09613   0.00000  Uiso   1.00
O322   O     0.83333   0.79375   0.23720   0.00000  Uiso   1.00
O323   O     0.83333   0.87292   0.23720   0.00000  Uiso   1.00
O324   O     0.83333   0.79375   0.09613   0.00000  Uiso   1.00
C325   C     0.08751   0.16667   0.50302   0.00000  Uiso   1.00
C326   C     0.02101   0.20923   0.50447   0.00000  Uiso   1.00
C327   C     0.29056   0.16667   0.49452   0.00000  Uiso   1.00
C328   C     0.04277   0.16667   0.50548   0.00000  Uiso   1.00
C329   C     0.14187   0.02471   0.46755   0.00000  Uiso   1.00
C330   C     0.19146   0.30862   0.53245   0.00000  Uiso   1.00
C331   C     0.19146   0.02471   0.53245   0.00000  Uiso   1.00
C332   C     0.14187   0.30862   0.46755   0.00000  Uiso   1.00
C333   C     0.24582   0.16667   0.49698   0.00000  Uiso   1.00
C334   C     0.16658   0.16667   0.40692   0.00000  Uiso   1.00
C335   C     0.16675   0.16667   0.59308   0.00000  Uiso   1.00
C336   C     0.16664   0.16667   0.35519   0.00000  Uiso   1.00
C337   C     0.16670   0.16667   0.64481   0.00000  Uiso   1.00
C338   C     0.02101   0.12411   0.50449   0.00000  Uiso   1.00
C339   C     0.31232   0.20923   0.49552   0.00000  Uiso   1.00
C340   C     0.31232   0.12411   0.49553   0.00000  Uiso   1.00
Cl341  Cl    0.04423   0.06971   0.51932   0.00000  Uiso   1.00
Cl342  Cl    0.28910   0.26362   0.48068   0.00000  Uiso   1.00
Cl343  Cl    0.28911   0.06970   0.48072   0.00000  Uiso   1.00
Cl344  Cl    0.04422   0.26363   0.51928   0.00000  Uiso   1.00
Cl345  Cl    0.10924   0.05394   0.42479   0.00000  Uiso   1.00
Cl346  Cl    0.22410   0.27940   0.57521   0.00000  Uiso   1.00
Cl347  Cl    0.22409   0.05393   0.57521   0.00000  Uiso   1.00
Cl348  Cl    0.10924   0.27940   0.42479   0.00000  Uiso   1.00
Cu349  Cu    0.16667   0.21355   0.50000   0.00000  Uiso   1.00
Cu350  Cu    0.16667   0.11978   0.50000   0.00000  Uiso   1.00
N351   N     0.16667   0.28402   0.50000   0.00000  Uiso   1.00
N352   N     0.16667   0.04931   0.50000   0.00000  Uiso   1.00
O353   O     0.10655   0.20625   0.50000   0.00000  Uiso   1.00
O354   O     0.22679   0.12709   0.50000   0.00000  Uiso   1.00
O355   O     0.22679   0.20625   0.50000   0.00000  Uiso   1.00
O356   O     0.10655   0.12709   0.50000   0.00000  Uiso   1.00
O357   O     0.16667   0.20625   0.42946   0.00000  Uiso   1.00
O358   O     0.16667   0.12708   0.57054   0.00000  Uiso   1.00
O359   O     0.16667   0.20625   0.57054   0.00000  Uiso   1.00
O360   O     0.16667   0.12708   0.42946   0.00000  Uiso   1.00
C361   C     0.42085   0.16667   0.50302   0.00000  Uiso   1.00
C362   C     0.35434   0.20923   0.50447   0.00000  Uiso   1.00
C363   C     0.62389   0.16667   0.49452   0.00000  Uiso   1.00
C364   C     0.37611   0.16667   0.50548   0.00000  Uiso   1.00
C365   C     0.47521   0.02471   0.46755   0.00000  Uiso   1.00
C366   C     0.52479   0.30862   0.53245   0.00000  Uiso   1.00
C367   C     0.52479   0.02471   0.53245   0.00000  Uiso   1.00
C368   C     0.47521   0.30862   0.46755   0.00000  Uiso   1.00
C369   C     0.57915   0.16667   0.49698   0.00000  Uiso   1.00
C370   C     0.49992   0.16667   0.40692   0.00000  Uiso   1.00
C371   C     0.50008   0.16667   0.59308   0.00000  Uiso   1.00
C372   C     0.49997   0.16667   0.35519   0.00000  Uiso   1.00
C373   C     0.50003   0.16667   0.64481   0.00000  Uiso   1.00
C374   C     0.35435   0.12411   0.50449   0.00000  Uiso   1.00
C375   C     0.64565   0.20923   0.49552   0.00000  Uiso   1.00
C376   C     0.64566   0.12411   0.49553   0.00000  Uiso   1.00
Cl377  Cl    0.37756   0.06971   0.51932   0.00000  Uiso   1.00
Cl378  Cl    0.62244   0.26362   0.48068   0.00000  Uiso   1.00
Cl379  Cl    0.62244   0.06970   0.48072   0.00000  Uiso   1.00
Cl380  Cl    0.37756   0.26363   0.51928   0.00000  Uiso   1.00
Cl381  Cl    0.44257   0.05394   0.42479   0.00000  Uiso   1.00
Cl382  Cl    0.55743   0.27940   0.57521   0.00000  Uiso   1.00
Cl383  Cl    0.55743   0.05393   0.57521   0.00000  Uiso   1.00
Cl384  Cl    0.44257   0.27940   0.42479   0.00000  Uiso   1.00
Cu385  Cu    0.50000   0.21355   0.50000   0.00000  Uiso   1.00
Cu386  Cu    0.50000   0.11978   0.50000   0.00000  Uiso   1.00
N387   N     0.50000   0.28402   0.50000   0.00000  Uiso   1.00
N388   N     0.50000   0.04931   0.50000   0.00000  Uiso   1.00
O389   O     0.43988   0.20625   0.50000   0.00000  Uiso   1.00
O390   O     0.56012   0.12709   0.50000   0.00000  Uiso   1.00
O391   O     0.56012   0.20625   0.50000   0.00000  Uiso   1.00
O392   O     0.43988   0.12709   0.50000   0.00000  Uiso   1.00
O393   O     0.50000   0.20625   0.42946   0.00000  Uiso   1.00
O394   O     0.50000   0.12708   0.57054   0.00000  Uiso   1.00
O395   O     0.50000   0.20625   0.57054   0.00000  Uiso   1.00
O396   O     0.50000   0.12708   0.42946   0.00000  Uiso   1.00
C397   C     0.75418   0.16667   0.50302   0.00000  Uiso   1.00
C398   C     0.68768   0.20923   0.50447   0.00000  Uiso   1.00
C399   C     0.95723   0.16667   0.49452   0.00000  Uiso   1.00
C400   C     0.70944   0.16667   0.50548   0.00000  Uiso   1.00
C401   C     0.80854   0.02471   0.46755   0.00000  Uiso   1.00
C402   C     0.85813   0.30862   0.53245   0.00000  Uiso   1.00
C403   C     0.85813   0.02471   0.53245   0.00000  Uiso   1.00
C404   C     0.80854   0.30862   0.46755   0.00000  Uiso   1.00
C405   C     0.91248   0.16667   0.49698   0.00000  Uiso   1.00
C406   C     0.83325   0.16667   0.40692   0.00000  Uiso   1.00
C407   C     0.83342   0.16667   0.59308   0.00000  Uiso   1.00
C408   C     0.83330   0.16667   0.35519   0.00000  Uiso   1.00
C409   C     0.83336   0.16667   0.64481   0.00000  Uiso   1.00
C410   C     0.68768   0.12411   0.50449   0.00000  Uiso   1.00
C411   C     0.97899   0.20923   0.49552   0.00000  Uiso   1.00
C412   C     0.97899   0.12411   0.49553   0.00000  Uiso   1.00
Cl413  Cl    0.71090   0.06971   0.51932   0.00000  Uiso   1.00
Cl414  Cl    0.95577   0.26362   0.48068   0.00000  Uiso   1.00
Cl415  Cl    0.95578   0.06970   0.48072   0.00000  Uiso   1.00
Cl416  Cl    0.71089   0.26363   0.51928   0.00000  Uiso   1.00
Cl417  Cl    0.77590   0.05394   0.42479   0.00000  Uiso   1.00
Cl418  Cl    0.89076   0.27940   0.57521   0.00000  Uiso   1.00
Cl419  Cl    0.89076   0.05393   0.57521   0.00000  Uiso   1.00
Cl420  Cl    0.77591   0.27940   0.42479   0.00000  Uiso   1.00
Cu421  Cu    0.83333   0.21355   0.50000   0.00000  Uiso   1.00
Cu422  Cu    0.83333   0.11978   0.50000   0.00000  Uiso   1.00
N423   N     0.83333   0.28402   0.50000   0.00000  Uiso   1.00
N424   N     0.83333   0.04931   0.50000   0.00000  Uiso   1.00
O425   O     0.77321   0.20625   0.50000   0.00000  Uiso   1.00
O426   O     0.89345   0.12709   0.50000   0.00000  Uiso   1.00
O427   O     0.89345   0.20625   0.50000   0.00000  Uiso   1.00
O428   O     0.77321   0.12709   0.50000   0.00000  Uiso   1.00
O429   O     0.83333   0.20625   0.42946   0.00000  Uiso   1.00
O430   O     0.83333   0.12708   0.57054   0.00000  Uiso   1.00
O431   O     0.83333   0.20625   0.57054   0.00000  Uiso   1.00
O432   O     0.83333   0.12708   0.42946   0.00000  Uiso   1.00
C433   C     0.08751   0.50000   0.50302   0.00000  Uiso   1.00
C434   C     0.02101   0.54256   0.50447   0.00000  Uiso   1.00
C435   C     0.29056   0.50000   0.49452   0.00000  Uiso   1.00
C436   C     0.04277   0.50000   0.50548   0.00000  Uiso   1.00
C437   C     0.14187   0.35804   0.46755   0.00000  Uiso   1.00
C438   C     0.19146   0.64196   0.53245   0.00000  Uiso   1.00
C439   C     0.19146   0.35804   0.53245   0.00000  Uiso   1.00
C440   C     0.14187   0.64196   0.46755   0.00000  Uiso   1.00
C441   C     0.24582   0.50000   0.49698   0.00000  Uiso   1.00
C442   C     0.16658   0.50000   0.40692   0.00000  Uiso   1.00
C443   C     0.16675   0.50000   0.59308   0.00000  Uiso   1.00
C444   C     0.16664   0.50000   0.35519   0.00000  Uiso   1.00
C445   C     0.16670   0.50000   0.64481   0.00000  Uiso   1.00
C446   C     0.02101   0.45744   0.50449   0.00000  Uiso   1.00
C447   C     0.31232   0.54256   0.49552   0.00000  Uiso   1.00
C448   C     0.31232   0.45744   0.49553   0.00000  Uiso   1.00
Cl449  Cl    0.04423   0.40304   0.51932   0.00000  Uiso   1.00
Cl450  Cl    0.28910   0.59696   0.48068   0.00000  Uiso   1.00
Cl451  Cl    0.28911   0.40304   0.48072   0.00000  Uiso   1.00
Cl452  Cl    0.04422   0.59696   0.51928   0.00000  Uiso   1.00
Cl453  Cl    0.10924   0.38727   0.42479   0.00000  Uiso   1.00
Cl454  Cl    0.22410   0.61273   0.57521   0.00000  Uiso   1.00
Cl455  Cl    0.22409   0.38727   0.57521   0.00000  Uiso   1.00
Cl456  Cl    0.10924   0.61273   0.42479   0.00000  Uiso   1.00
Cu457  Cu    0.16667   0.54689   0.50000   0.00000  Uiso   1.00
Cu458  Cu    0.16667   0.45311   0.50000   0.00000  Uiso   1.00
N459   N     0.16667   0.61736   0.50000   0.00000  Uiso   1.00
N460   N     0.16667   0.38264   0.50000   0.00000  Uiso   1.00
O461   O     0.10655   0.53958   0.50000   0.00000  Uiso   1.00
O462   O     0.22679   0.46042   0.50000   0.00000  Uiso   1.00
O463   O     0.22679   0.53958   0.50000   0.00000  Uiso   1.00
O464   O     0.10655   0.46042   0.50000   0.00000  Uiso   1.00
O465   O     0.16667   0.53959   0.42946   0.00000  Uiso   1.00
O466   O     0.16667   0.46041   0.57054   0.00000  Uiso   1.00
O467   O     0.16667   0.53959   0.57054   0.00000  Uiso   1.00
O468   O     0.16667   0.46041   0.42946   0.00000  Uiso   1.00
C469   C     0.42085   0.50000   0.50302   0.00000  Uiso   1.00
C470   C     0.35434   0.54256   0.50447   0.00000  Uiso   1.00
C471   C     0.62389   0.50000   0.49452   0.00000  Uiso   1.00
C472   C     0.37611   0.50000   0.50548   0.00000  Uiso   1.00
C473   C     0.47521   0.35804   0.46755   0.00000  Uiso   1.00
C474   C     0.52479   0.64196   0.53245   0.00000  Uiso   1.00
C475   C     0.52479   0.35804   0.53245   0.00000  Uiso   1.00
C476   C     0.47521   0.64196   0.46755   0.00000  Uiso   1.00
C477   C     0.57915   0.50000   0.49698   0.00000  Uiso   1.00
C478   C     0.49992   0.50000   0.40692   0.00000  Uiso   1.00
C479   C     0.50008   0.50000   0.59308   0.00000  Uiso   1.00
C480   C     0.49997   0.50000   0.35519   0.00000  Uiso   1.00
C481   C     0.50003   0.50000   0.64481   0.00000  Uiso   1.00
C482   C     0.35435   0.45744   0.50449   0.00000  Uiso   1.00
C483   C     0.64565   0.54256   0.49552   0.00000  Uiso   1.00
C484   C     0.64566   0.45744   0.49553   0.00000  Uiso   1.00
Cl485  Cl    0.37756   0.40304   0.51932   0.00000  Uiso   1.00
Cl486  Cl    0.62244   0.59696   0.48068   0.00000  Uiso   1.00
Cl487  Cl    0.62244   0.40304   0.48072   0.00000  Uiso   1.00
Cl488  Cl    0.37756   0.59696   0.51928   0.00000  Uiso   1.00
Cl489  Cl    0.44257   0.38727   0.42479   0.00000  Uiso   1.00
Cl490  Cl    0.55743   0.61273   0.57521   0.00000  Uiso   1.00
Cl491  Cl    0.55743   0.38727   0.57521   0.00000  Uiso   1.00
Cl492  Cl    0.44257   0.61273   0.42479   0.00000  Uiso   1.00
Cu493  Cu    0.50000   0.54689   0.50000   0.00000  Uiso   1.00
Cu494  Cu    0.50000   0.45311   0.50000   0.00000  Uiso   1.00
N495   N     0.50000   0.61736   0.50000   0.00000  Uiso   1.00
N496   N     0.50000   0.38264   0.50000   0.00000  Uiso   1.00
O497   O     0.43988   0.53958   0.50000   0.00000  Uiso   1.00
O498   O     0.56012   0.46042   0.50000   0.00000  Uiso   1.00
O499   O     0.56012   0.53958   0.50000   0.00000  Uiso   1.00
O500   O     0.43988   0.46042   0.50000   0.00000  Uiso   1.00
O501   O     0.50000   0.53959   0.42946   0.00000  Uiso   1.00
O502   O     0.50000   0.46041   0.57054   0.00000  Uiso   1.00
O503   O     0.50000   0.53959   0.57054   0.00000  Uiso   1.00
O504   O     0.50000   0.46041   0.42946   0.00000  Uiso   1.00
C505   C     0.75418   0.50000   0.50302   0.00000  Uiso   1.00
C506   C     0.68768   0.54256   0.50447   0.00000  Uiso   1.00
C507   C     0.95723   0.50000   0.49452   0.00000  Uiso   1.00
C508   C     0.70944   0.50000   0.50548   0.00000  Uiso   1.00
C509   C     0.80854   0.35804   0.46755   0.00000  Uiso   1.00
C510   C     0.85813   0.64196   0.53245   0.00000  Uiso   1.00
C511   C     0.85813   0.35804   0.53245   0.00000  Uiso   1.00
C512   C     0.80854   0.64196   0.46755   0.00000  Uiso   1.00
C513   C     0.91248   0.50000   0.49698   0.00000  Uiso   1.00
C514   C     0.83325   0.50000   0.40692   0.00000  Uiso   1.00
C515   C     0.83342   0.50000   0.59308   0.00000  Uiso   1.00
C516   C     0.83330   0.50000   0.35519   0.00000  Uiso   1.00
C517   C     0.83336   0.50000   0.64481   0.00000  Uiso   1.00
C518   C     0.68768   0.45744   0.50449   0.00000  Uiso   1.00
C519   C     0.97899   0.54256   0.49552   0.00000  Uiso   1.00
C520   C     0.97899   0.45744   0.49553   0.00000  Uiso   1.00
Cl521  Cl    0.71090   0.40304   0.51932   0.00000  Uiso   1.00
Cl522  Cl    0.95577   0.59696   0.48068   0.00000  Uiso   1.00
Cl523  Cl    0.95578   0.40304   0.48072   0.00000  Uiso   1.00
Cl524  Cl    0.71089   0.59696   0.51928   0.00000  Uiso   1.00
Cl525  Cl    0.77590   0.38727   0.42479   0.00000  Uiso   1.00
Cl526  Cl    0.89076   0.61273   0.57521   0.00000  Uiso   1.00
Cl527  Cl    0.89076   0.38727   0.57521   0.00000  Uiso   1.00
Cl528  Cl    0.77591   0.61273   0.42479   0.00000  Uiso   1.00
Cu529  Cu    0.83333   0.54689   0.50000   0.00000  Uiso   1.00
Cu530  Cu    0.83333   0.45311   0.50000   0.00000  Uiso   1.00
N531   N     0.83333   0.61736   0.50000   0.00000  Uiso   1.00
N532   N     0.83333   0.38264   0.50000   0.00000  Uiso   1.00
O533   O     0.77321   0.53958   0.50000   0.00000  Uiso   1.00
O534   O     0.89345   0.46042   0.50000   0.00000  Uiso   1.00
O535   O     0.89345   0.53958   0.50000   0.00000  Uiso   1.00
O536   O     0.77321   0.46042   0.50000   0.00000  Uiso   1.00
O537   O     0.83333   0.53959   0.42946   0.00000  Uiso   1.00
O538   O     0.83333   0.46041   0.57054   0.00000  Uiso   1.00
O539   O     0.83333   0.53959   0.57054   0.00000  Uiso   1.00
O540   O     0.83333   0.46041   0.42946   0.00000  Uiso   1.00
C541   C     0.08751   0.83333   0.50302   0.00000  Uiso   1.00
C542   C     0.02101   0.87589   0.50447   0.00000  Uiso   1.00
C543   C     0.29056   0.83333   0.49452   0.00000  Uiso   1.00
C544   C     0.04277   0.83333   0.50548   0.00000  Uiso   1.00
C545   C     0.14187   0.69138   0.46755   0.00000  Uiso   1.00
C546   C     0.19146   0.97529   0.53245   0.00000  Uiso   1.00
C547   C     0.19146   0.69138   0.53245   0.00000  Uiso   1.00
C548   C     0.14187   0.97529   0.46755   0.00000  Uiso   1.00
C549   C     0.24582   0.83333   0.49698   0.00000  Uiso   1.00
C550   C     0.16658   0.83333   0.40692   0.00000  Uiso   1.00
C551   C     0.16675   0.83333   0.59308   0.00000  Uiso   1.00
C552   C     0.16664   0.83333   0.35519   0.00000  Uiso   1.00
C553   C     0.16670   0.83333   0.64481   0.00000  Uiso   1.00
C554   C     0.02101   0.79077   0.50449   0.00000  Uiso   1.00
C555   C     0.31232   0.87589   0.49552   0.00000  Uiso   1.00
C556   C     0.31232   0.79077   0.49553   0.00000  Uiso   1.00
Cl557  Cl    0.04423   0.73638   0.51932   0.00000  Uiso   1.00
Cl558  Cl    0.28910   0.93029   0.48068   0.00000  Uiso   1.00
Cl559  Cl    0.28911   0.73637   0.48072   0.00000  Uiso   1.00
Cl560  Cl    0.04422   0.93030   0.51928   0.00000  Uiso   1.00
Cl561  Cl    0.10924   0.72060   0.42479   0.00000  Uiso   1.00
Cl562  Cl    0.22410   0.94606   0.57521   0.00000  Uiso   1.00
Cl563  Cl    0.22409   0.72060   0.57521   0.00000  Uiso   1.00
Cl564  Cl    0.10924   0.94607   0.42479   0.00000  Uiso   1.00
Cu565  Cu    0.16667   0.88022   0.50000   0.00000  Uiso   1.00
Cu566  Cu    0.16667   0.78645   0.50000   0.00000  Uiso   1.00
N567   N     0.16667   0.95069   0.50000   0.00000  Uiso   1.00
N568   N     0.16667   0.71598   0.50000   0.00000  Uiso   1.00
O569   O     0.10655   0.87291   0.50000   0.00000  Uiso   1.00
O570   O     0.22679   0.79375   0.50000   0.00000  Uiso   1.00
O571   O     0.22679   0.87291   0.50000   0.00000  Uiso   1.00
O572   O     0.10655   0.79375   0.50000   0.00000  Uiso   1.00
O573   O     0.16667   0.87292   0.42946   0.00000  Uiso   1.00
O574   O     0.16667   0.79375   0.57054   0.00000  Uiso   1.00
O575   O     0.16667   0.87292   0.57054   0.00000  Uiso   1.00
O576   O     0.16667   0.79375   0.42946   0.00000  Uiso   1.00
C577   C     0.42085   0.83333   0.50302   0.00000  Uiso   1.00
C578   C     0.35434   0.87589   0.50447   0.00000  Uiso   1.00
C579   C     0.62389   0.83333   0.49452   0.00000  Uiso   1.00
C580   C     0.37611   0.83333   0.50548   0.00000  Uiso   1.00
C581   C     0.47521   0.69138   0.46755   0.00000  Uiso   1.00
C582   C     0.52479   0.97529   0.53245   0.00000  Uiso   1.00
C583   C     0.52479   0.69138   0.53245   0.00000  Uiso   1.00
C584   C     0.47521   0.97529   0.46755   0.00000  Uiso   1.00
C585   C     0.57915   0.83333   0.49698   0.00000  Uiso   1.00
C586   C     0.49992   0.83333   0.40692   0.00000  Uiso   1.00
C587   C     0.50008   0.83333   0.59308   0.00000  Uiso   1.00
C588   C     0.49997   0.83333   0.35519   0.00000  Uiso   1.00
C589   C     0.50003   0.83333   0.64481   0.00000  Uiso   1.00
C590   C     0.35435   0.79077   0.50449   0.00000  Uiso   1.00
C591   C     0.64565   0.87589   0.49552   0.00000  Uiso   1.00
C592   C     0.64566   0.79077   0.49553   0.00000  Uiso   1.00
Cl593  Cl    0.37756   0.73638   0.51932   0.00000  Uiso   1.00
Cl594  Cl    0.62244   0.93029   0.48068   0.00000  Uiso   1.00
Cl595  Cl    0.62244   0.73637   0.48072   0.00000  Uiso   1.00
Cl596  Cl    0.37756   0.93030   0.51928   0.00000  Uiso   1.00
Cl597  Cl    0.44257   0.72060   0.42479   0.00000  Uiso   1.00
Cl598  Cl    0.55743   0.94606   0.57521   0.00000  Uiso   1.00
Cl599  Cl    0.55743   0.72060   0.57521   0.00000  Uiso   1.00
Cl600  Cl    0.44257   0.94607   0.42479   0.00000  Uiso   1.00
Cu601  Cu    0.50000   0.88022   0.50000   0.00000  Uiso   1.00
Cu602  Cu    0.50000   0.78645   0.50000   0.00000  Uiso   1.00
N603   N     0.50000   0.95069   0.50000   0.00000  Uiso   1.00
N604   N     0.50000   0.71598   0.50000   0.00000  Uiso   1.00
O605   O     0.43988   0.87291   0.50000   0.00000  Uiso   1.00
O606   O     0.56012   0.79375   0.50000   0.00000  Uiso   1.00
O607   O     0.56012   0.87291   0.50000   0.00000  Uiso   1.00
O608   O     0.43988   0.79375   0.50000   0.00000  Uiso   1.00
O609   O     0.50000   0.87292   0.42946   0.00000  Uiso   1.00
O610   O     0.50000   0.79375   0.57054   0.00000  Uiso   1.00
O611   O     0.50000   0.87292   0.57054   0.00000  Uiso   1.00
O612   O     0.50000   0.79375   0.42946   0.00000  Uiso   1.00
C613   C     0.75418   0.83333   0.50302   0.00000  Uiso   1.00
C614   C     0.68768   0.87589   0.50447   0.00000  Uiso   1.00
C615   C     0.95723   0.83333   0.49452   0.00000  Uiso   1.00
C616   C     0.70944   0.83333   0.50548   0.00000  Uiso   1.00
C617   C     0.80854   0.69138   0.46755   0.00000  Uiso   1.00
C618   C     0.85813   0.97529   0.53245   0.00000  Uiso   1.00
C619   C     0.85813   0.69138   0.53245   0.00000  Uiso   1.00
C620   C     0.80854   0.97529   0.46755   0.00000  Uiso   1.00
C621   C     0.91248   0.83333   0.49698   0.00000  Uiso   1.00
C622   C     0.83325   0.83333   0.40692   0.00000  Uiso   1.00
C623   C     0.83342   0.83333   0.59308   0.00000  Uiso   1.00
C624   C     0.83330   0.83333   0.35519   0.00000  Uiso   1.00
C625   C     0.83336   0.83333   0.64481   0.00000  Uiso   1.00
C626   C     0.68768   0.79077   0.50449   0.00000  Uiso   1.00
C627   C     0.97899   0.87589   0.49552   0.00000  Uiso   1.00
C628   C     0.97899   0.79077   0.49553   0.00000  Uiso   1.00
Cl629  Cl    0.71090   0.73638   0.51932   0.00000  Uiso   1.00
Cl630  Cl    0.95577   0.93029   0.48068   0.00000  Uiso   1.00
Cl631  Cl    0.95578   0.73637   0.48072   0.00000  Uiso   1.00
Cl632  Cl    0.71089   0.93030   0.51928   0.00000  Uiso   1.00
Cl633  Cl    0.77590   0.72060   0.42479   0.00000  Uiso   1.00
Cl634  Cl    0.89076   0.94606   0.57521   0.00000  Uiso   1.00
Cl635  Cl    0.89076   0.72060   0.57521   0.00000  Uiso   1.00
Cl636  Cl    0.77591   0.94607   0.42479   0.00000  Uiso   1.00
Cu637  Cu    0.83333   0.88022   0.50000   0.00000  Uiso   1.00
Cu638  Cu    0.83333   0.78645   0.50000   0.00000  Uiso   1.00
N639   N     0.83333   0.95069   0.50000   0.00000  Uiso   1.00
N640   N     0.83333   0.71598   0.50000   0.00000  Uiso   1.00
O641   O     0.77321   0.87291   0.50000   0.00000  Uiso   1.00
O642   O     0.89345   0.79375   0.50000   0.00000  Uiso   1.00
O643   O     0.89345   0.87291   0.50000   0.00000  Uiso   1.00
O644   O     0.77321   0.79375   0.50000   0.00000  Uiso   1.00
O645   O     0.83333   0.87292   0.42946   0.00000  Uiso   1.00
O646   O     0.83333   0.79375   0.57054   0.00000  Uiso   1.00
O647   O     0.83333   0.87292   0.57054   0.00000  Uiso   1.00
O648   O     0.83333   0.79375   0.42946   0.00000  Uiso   1.00
C649   C     0.08751   0.16667   0.83635   0.00000  Uiso   1.00
C650   C     0.02101   0.20923   0.83780   0.00000  Uiso   1.00
C651   C     0.29056   0.16667   0.82786   0.00000  Uiso   1.00
C652   C     0.04277   0.16667   0.83881   0.00000  Uiso   1.00
C653   C     0.14187   0.02471   0.80088   0.00000  Uiso   1.00
C654   C     0.19146   0.30862   0.86579   0.00000  Uiso   1.00
C655   C     0.19146   0.02471   0.86579   0.00000  Uiso   1.00
C656   C     0.14187   0.30862   0.80088   0.00000  Uiso   1.00
C657   C     0.24582   0.16667   0.83031   0.00000  Uiso   1.00
C658   C     0.16658   0.16667   0.74025   0.00000  Uiso   1.00
C659   C     0.16675   0.16667   0.92641   0.00000  Uiso   1.00
C660   C     0.16664   0.16667   0.68852   0.00000  Uiso   1.00
C661   C     0.16670   0.16667   0.97814   0.00000  Uiso   1.00
C662   C     0.02101   0.12411   0.83782   0.00000  Uiso   1.00
C663   C     0.31232   0.20923   0.82885   0.00000  Uiso   1.00
C664   C     0.31232   0.12411   0.82886   0.00000  Uiso   1.00
Cl665  Cl    0.04423   0.06971   0.85266   0.00000  Uiso   1.00
Cl666  Cl    0.28910   0.26362   0.81401   0.00000  Uiso   1.00
Cl667  Cl    0.28911   0.06970   0.81405   0.00000  Uiso   1.00
Cl668  Cl    0.04422   0.26363   0.85262   0.00000  Uiso   1.00
Cl669  Cl    0.10924   0.05394   0.75813   0.00000  Uiso   1.00
Cl670  Cl    0.22410   0.27940   0.90854   0.00000  Uiso   1.00
Cl671  Cl    0.22409   0.05393   0.90854   0.00000  Uiso   1.00
Cl672  Cl    0.10924   0.27940   0.75812   0.00000  Uiso   1.00
Cu673  Cu    0.16667   0.21355   0.83333   0.00000  Uiso   1.00
Cu674  Cu    0.16667   0.11978   0.83333   0.00000  Uiso   1.00
N675   N     0.16667   0.28402   0.83333   0.00000  Uiso   1.00
N676   N     0.16667   0.04931   0.83333   0.00000  Uiso   1.00
O677   O     0.10655   0.20625   0.83333   0.00000  Uiso   1.00
O678   O     0.22679   0.12709   0.83334   0.00000  Uiso   1.00
O679   O     0.22679   0.20625   0.83334   0.00000  Uiso   1.00
O680   O     0.10655   0.12709   0.83333   0.00000  Uiso   1.00
O681   O     0.16667   0.20625   0.76280   0.00000  Uiso   1.00
O682   O     0.16667   0.12708   0.90387   0.00000  Uiso   1.00
O683   O     0.16667   0.20625   0.90387   0.00000  Uiso   1.00
O684   O     0.16667   0.12708   0.76280   0.00000  Uiso   1.00
C685   C     0.42085   0.16667   0.83635   0.00000  Uiso   1.00
C686   C     0.35434   0.20923   0.83780   0.00000  Uiso   1.00
C687   C     0.62389   0.16667   0.82786   0.00000  Uiso   1.00
C688   C     0.37611   0.16667   0.83881   0.00000  Uiso   1.00
C689   C     0.47521   0.02471   0.80088   0.00000  Uiso   1.00
C690   C     0.52479   0.30862   0.86579   0.00000  Uiso   1.00
C691   C     0.52479   0.02471   0.86579   0.00000  Uiso   1.00
C692   C     0.47521   0.30862   0.80088   0.00000  Uiso   1.00
C693   C     0.57915   0.16667   0.83031   0.00000  Uiso   1.00
C694   C     0.49992   0.16667   0.74025   0.00000  Uiso   1.00
C695   C     0.50008   0.16667   0.92641   0.00000  Uiso   1.00
C696   C     0.49997   0.16667   0.68852   0.00000  Uiso   1.00
C697   C     0.50003   0.16667   0.97814   0.00000  Uiso   1.00
C698   C     0.35435   0.12411   0.83782   0.00000  Uiso   1.00
C699   C     0.64565   0.20923   0.82885   0.00000  Uiso   1.00
C700   C     0.64566   0.12411   0.82886   0.00000  Uiso   1.00
Cl701  Cl    0.37756   0.06971   0.85266   0.00000  Uiso   1.00
Cl702  Cl    0.62244   0.26362   0.81401   0.00000  Uiso   1.00
Cl703  Cl    0.62244   0.06970   0.81405   0.00000  Uiso   1.00
Cl704  Cl    0.37756   0.26363   0.85262   0.00000  Uiso   1.00
Cl705  Cl    0.44257   0.05394   0.75813   0.00000  Uiso   1.00
Cl706  Cl    0.55743   0.27940   0.90854   0.00000  Uiso   1.00
Cl707  Cl    0.55743   0.05393   0.90854   0.00000  Uiso   1.00
Cl708  Cl    0.44257   0.27940   0.75812   0.00000  Uiso   1.00
Cu709  Cu    0.50000   0.21355   0.83333   0.00000  Uiso   1.00
Cu710  Cu    0.50000   0.11978   0.83333   0.00000  Uiso   1.00
N711   N     0.50000   0.28402   0.83333   0.00000  Uiso   1.00
N712   N     0.50000   0.04931   0.83333   0.00000  Uiso   1.00
O713   O     0.43988   0.20625   0.83333   0.00000  Uiso   1.00
O714   O     0.56012   0.12709   0.83334   0.00000  Uiso   1.00
O715   O     0.56012   0.20625   0.83334   0.00000  Uiso   1.00
O716   O     0.43988   0.12709   0.83333   0.00000  Uiso   1.00
O717   O     0.50000   0.20625   0.76280   0.00000  Uiso   1.00
O718   O     0.50000   0.12708   0.90387   0.00000  Uiso   1.00
O719   O     0.50000   0.20625   0.90387   0.00000  Uiso   1.00
O720   O     0.50000   0.12708   0.76280   0.00000  Uiso   1.00
C721   C     0.75418   0.16667   0.83635   0.00000  Uiso   1.00
C722   C     0.68768   0.20923   0.83780   0.00000  Uiso   1.00
C723   C     0.95723   0.16667   0.82786   0.00000  Uiso   1.00
C724   C     0.70944   0.16667   0.83881   0.00000  Uiso   1.00
C725   C     0.80854   0.02471   0.80088   0.00000  Uiso   1.00
C726   C     0.85813   0.30862   0.86579   0.00000  Uiso   1.00
C727   C     0.85813   0.02471   0.86579   0.00000  Uiso   1.00
C728   C     0.80854   0.30862   0.80088   0.00000  Uiso   1.00
C729   C     0.91248   0.16667   0.83031   0.00000  Uiso   1.00
C730   C     0.83325   0.16667   0.74025   0.00000  Uiso   1.00
C731   C     0.83342   0.16667   0.92641   0.00000  Uiso   1.00
C732   C     0.83330   0.16667   0.68852   0.00000  Uiso   1.00
C733   C     0.83336   0.16667   0.97814   0.00000  Uiso   1.00
C734   C     0.68768   0.12411   0.83782   0.00000  Uiso   1.00
C735   C     0.97899   0.20923   0.82885   0.00000  Uiso   1.00
C736   C     0.97899   0.12411   0.82886   0.00000  Uiso   1.00
Cl737  Cl    0.71090   0.06971   0.85266   0.00000  Uiso   1.00
Cl738  Cl    0.95577   0.26362   0.81401   0.00000  Uiso   1.00
Cl739  Cl    0.95578   0.06970   0.81405   0.00000  Uiso   1.00
Cl740  Cl    0.71089   0.26363   0.85262   0.00000  Uiso   1.00
Cl741  Cl    0.77590   0.05394   0.75813   0.00000  Uiso   1.00
Cl742  Cl    0.89076   0.27940   0.90854   0.00000  Uiso   1.00
Cl743  Cl    0.89076   0.05393   0.90854   0.00000  Uiso   1.00
Cl744  Cl    0.77591   0.27940   0.75812   0.00000  Uiso   1.00
Cu745  Cu    0.83333   0.21355   0.83333   0.00000  Uiso   1.00
Cu746  Cu    0.83333   0.11978   0.83333   0.00000  Uiso   1.00
N747   N     0.83333   0.28402   0.83333   0.00000  Uiso   1.00
N748   N     0.83333   0.04931   0.83333   0.00000  Uiso   1.00
O749   O     0.77321   0.20625   0.83333   0.00000  Uiso   1.00
O750   O     0.89345   0.12709   0.83334   0.00000  Uiso   1.00
O751   O     0.89345   0.20625   0.83334   0.00000  Uiso   1.00
O752   O     0.77321   0.12709   0.83333   0.00000  Uiso   1.00
O753   O     0.83333   0.20625   0.76280   0.00000  Uiso   1.00
O754   O     0.83333   0.12708   0.90387   0.00000  Uiso   1.00
O755   O     0.83333   0.20625   0.90387   0.00000  Uiso   1.00
O756   O     0.83333   0.12708   0.76280   0.00000  Uiso   1.00
C757   C     0.08751   0.50000   0.83635   0.00000  Uiso   1.00
C758   C     0.02101   0.54256   0.83780   0.00000  Uiso   1.00
C759   C     0.29056   0.50000   0.82786   0.00000  Uiso   1.00
C760   C     0.04277   0.50000   0.83881   0.00000  Uiso   1.00
C761   C     0.14187   0.35804   0.80088   0.00000  Uiso   1.00
C762   C     0.19146   0.64196   0.86579   0.00000  Uiso   1.00
C763   C     0.19146   0.35804   0.86579   0.00000  Uiso   1.00
C764   C     0.14187   0.64196   0.80088   0.00000  Uiso   1.00
C765   C     0.24582   0.50000   0.83031   0.00000  Uiso   1.00
C766   C     0.16658   0.50000   0.74025   0.00000  Uiso   1.00
C767   C     0.16675   0.50000   0.92641   0.00000  Uiso   1.00
C768   C     0.16664   0.50000   0.68852   0.00000  Uiso   1.00
C769   C     0.16670   0.50000   0.97814   0.00000  Uiso   1.00
C770   C     0.02101   0.45744   0.83782   0.00000  Uiso   1.00
C771   C     0.31232   0.54256   0.82885   0.00000  Uiso   1.00
C772   C     0.31232   0.45744   0.82886   0.00000  Uiso   1.00
Cl773  Cl    0.04423   0.40304   0.85266   0.00000  Uiso   1.00
Cl774  Cl    0.28910   0.59696   0.81401   0.00000  Uiso   1.00
Cl775  Cl    0.28911   0.40304   0.81405   0.00000  Uiso   1.00
Cl776  Cl    0.04422   0.59696   0.85262   0.00000  Uiso   1.00
Cl777  Cl    0.10924   0.38727   0.75813   0.00000  Uiso   1.00
Cl778  Cl    0.22410   0.61273   0.90854   0.00000  Uiso   1.00
Cl779  Cl    0.22409   0.38727   0.90854   0.00000  Uiso   1.00
Cl780  Cl    0.10924   0.61273   0.75812   0.00000  Uiso   1.00
Cu781  Cu    0.16667   0.54689   0.83333   0.00000  Uiso   1.00
Cu782  Cu    0.16667   0.45311   0.83333   0.00000  Uiso   1.00
N783   N     0.16667   0.61736   0.83333   0.00000  Uiso   1.00
N784   N     0.16667   0.38264   0.83333   0.00000  Uiso   1.00
O785   O     0.10655   0.53958   0.83333   0.00000  Uiso   1.00
O786   O     0.22679   0.46042   0.83334   0.00000  Uiso   1.00
O787   O     0.22679   0.53958   0.83334   0.00000  Uiso   1.00
O788   O     0.10655   0.46042   0.83333   0.00000  Uiso   1.00
O789   O     0.16667   0.53959   0.76280   0.00000  Uiso   1.00
O790   O     0.16667   0.46041   0.90387   0.00000  Uiso   1.00
O791   O     0.16667   0.53959   0.90387   0.00000  Uiso   1.00
O792   O     0.16667   0.46041   0.76280   0.00000  Uiso   1.00
C793   C     0.42085   0.50000   0.83635   0.00000  Uiso   1.00
C794   C     0.35434   0.54256   0.83780   0.00000  Uiso   1.00
C795   C     0.62389   0.50000   0.82786   0.00000  Uiso   1.00
C796   C     0.37611   0.50000   0.83881   0.00000  Uiso   1.00
C797   C     0.47521   0.35804   0.80088   0.00000  Uiso   1.00
C798   C     0.52479   0.64196   0.86579   0.00000  Uiso   1.00
C799   C     0.52479   0.35804   0.86579   0.00000  Uiso   1.00
C800   C     0.47521   0.64196   0.80088   0.00000  Uiso   1.00
C801   C     0.57915   0.50000   0.83031   0.00000  Uiso   1.00
C802   C     0.49992   0.50000   0.74025   0.00000  Uiso   1.00
C803   C     0.50008   0.50000   0.92641   0.00000  Uiso   1.00
C804   C     0.49997   0.50000   0.68852   0.00000  Uiso   1.00
C805   C     0.50003   0.50000   0.97814   0.00000  Uiso   1.00
C806   C     0.35435   0.45744   0.83782   0.00000  Uiso   1.00
C807   C     0.64565   0.54256   0.82885   0.00000  Uiso   1.00
C808   C     0.64566   0.45744   0.82886   0.00000  Uiso   1.00
Cl809  Cl    0.37756   0.40304   0.85266   0.00000  Uiso   1.00
Cl810  Cl    0.62244   0.59696   0.81401   0.00000  Uiso   1.00
Cl811  Cl    0.62244   0.40304   0.81405   0.00000  Uiso   1.00
Cl812  Cl    0.37756   0.59696   0.85262   0.00000  Uiso   1.00
Cl813  Cl    0.44257   0.38727   0.75813   0.00000  Uiso   1.00
Cl814  Cl    0.55743   0.61273   0.90854   0.00000  Uiso   1.00
Cl815  Cl    0.55743   0.38727   0.90854   0.00000  Uiso   1.00
Cl816  Cl    0.44257   0.61273   0.75812   0.00000  Uiso   1.00
Cu817  Cu    0.50000   0.54689   0.83333   0.00000  Uiso   1.00
Cu818  Cu    0.50000   0.45311   0.83333   0.00000  Uiso   1.00
N819   N     0.50000   0.61736   0.83333   0.00000  Uiso   1.00
N820   N     0.50000   0.38264   0.83333   0.00000  Uiso   1.00
O821   O     0.43988   0.53958   0.83333   0.00000  Uiso   1.00
O822   O     0.56012   0.46042   0.83334   0.00000  Uiso   1.00
O823   O     0.56012   0.53958   0.83334   0.00000  Uiso   1.00
O824   O     0.43988   0.46042   0.83333   0.00000  Uiso   1.00
O825   O     0.50000   0.53959   0.76280   0.00000  Uiso   1.00
O826   O     0.50000   0.46041   0.90387   0.00000  Uiso   1.00
O827   O     0.50000   0.53959   0.90387   0.00000  Uiso   1.00
O828   O     0.50000   0.46041   0.76280   0.00000  Uiso   1.00
C829   C     0.75418   0.50000   0.83635   0.00000  Uiso   1.00
C830   C     0.68768   0.54256   0.83780   0.00000  Uiso   1.00
C831   C     0.95723   0.50000   0.82786   0.00000  Uiso   1.00
C832   C     0.70944   0.50000   0.83881   0.00000  Uiso   1.00
C833   C     0.80854   0.35804   0.80088   0.00000  Uiso   1.00
C834   C     0.85813   0.64196   0.86579   0.00000  Uiso   1.00
C835   C     0.85813   0.35804   0.86579   0.00000  Uiso   1.00
C836   C     0.80854   0.64196   0.80088   0.00000  Uiso   1.00
C837   C     0.91248   0.50000   0.83031   0.00000  Uiso   1.00
C838   C     0.83325   0.50000   0.74025   0.00000  Uiso   1.00
C839   C     0.83342   0.50000   0.92641   0.00000  Uiso   1.00
C840   C     0.83330   0.50000   0.68852   0.00000  Uiso   1.00
C841   C     0.83336   0.50000   0.97814   0.00000  Uiso   1.00
C842   C     0.68768   0.45744   0.83782   0.00000  Uiso   1.00
C843   C     0.97899   0.54256   0.82885   0.00000  Uiso   1.00
C844   C     0.97899   0.45744   0.82886   0.00000  Uiso   1.00
Cl845  Cl    0.71090   0.40304   0.85266   0.00000  Uiso   1.00
Cl846  Cl    0.95577   0.59696   0.81401   0.00000  Uiso   1.00
Cl847  Cl    0.95578   0.40304   0.81405   0.00000  Uiso   1.00
Cl848  Cl    0.71089   0.59696   0.85262   0.00000  Uiso   1.00
Cl849  Cl    0.77590   0.38727   0.75813   0.00000  Uiso   1.00
Cl850  Cl    0.89076   0.61273   0.90854   0.00000  Uiso   1.00
Cl851  Cl    0.89076   0.38727   0.90854   0.00000  Uiso   1.00
Cl852  Cl    0.77591   0.61273   0.75812   0.00000  Uiso   1.00
Cu853  Cu    0.83333   0.54689   0.83333   0.00000  Uiso   1.00
Cu854  Cu    0.83333   0.45311   0.83333   0.00000  Uiso   1.00
N855   N     0.83333   0.61736   0.83333   0.00000  Uiso   1.00
N856   N     0.83333   0.38264   0.83333   0.00000  Uiso   1.00
O857   O     0.77321   0.53958   0.83333   0.00000  Uiso   1.00
O858   O     0.89345   0.46042   0.83334   0.00000  Uiso   1.00
O859   O     0.89345   0.53958   0.83334   0.00000  Uiso   1.00
O860   O     0.77321   0.46042   0.83333   0.00000  Uiso   1.00
O861   O     0.83333   0.53959   0.76280   0.00000  Uiso   1.00
O862   O     0.83333   0.46041   0.90387   0.00000  Uiso   1.00
O863   O     0.83333   0.53959   0.90387   0.00000  Uiso   1.00
O864   O     0.83333   0.46041   0.76280   0.00000  Uiso   1.00
C865   C     0.08751   0.83333   0.83635   0.00000  Uiso   1.00
C866   C     0.02101   0.87589   0.83780   0.00000  Uiso   1.00
C867   C     0.29056   0.83333   0.82786   0.00000  Uiso   1.00
C868   C     0.04277   0.83333   0.83881   0.00000  Uiso   1.00
C869   C     0.14187   0.69138   0.80088   0.00000  Uiso   1.00
C870   C     0.19146   0.97529   0.86579   0.00000  Uiso   1.00
C871   C     0.19146   0.69138   0.86579   0.00000  Uiso   1.00
C872   C     0.14187   0.97529   0.80088   0.00000  Uiso   1.00
C873   C     0.24582   0.83333   0.83031   0.00000  Uiso   1.00
C874   C     0.16658   0.83333   0.74025   0.00000  Uiso   1.00
C875   C     0.16675   0.83333   0.92641   0.00000  Uiso   1.00
C876   C     0.16664   0.83333   0.68852   0.00000  Uiso   1.00
C877   C     0.16670   0.83333   0.97814   0.00000  Uiso   1.00
C878   C     0.02101   0.79077   0.83782   0.00000  Uiso   1.00
C879   C     0.31232   0.87589   0.82885   0.00000  Uiso   1.00
C880   C     0.31232   0.79077   0.82886   0.00000  Uiso   1.00
Cl881  Cl    0.04423   0.73638   0.85266   0.00000  Uiso   1.00
Cl882  Cl    0.28910   0.93029   0.81401   0.00000  Uiso   1.00
Cl883  Cl    0.28911   0.73637   0.81405   0.00000  Uiso   1.00
Cl884  Cl    0.04422   0.93030   0.85262   0.00000  Uiso   1.00
Cl885  Cl    0.10924   0.72060   0.75813   0.00000  Uiso   1.00
Cl886  Cl    0.22410   0.94606   0.90854   0.00000  Uiso   1.00
Cl887  Cl    0.22409   0.72060   0.90854   0.00000  Uiso   1.00
Cl888  Cl    0.10924   0.94607   0.75812   0.00000  Uiso   1.00
Cu889  Cu    0.16667   0.88022   0.83333   0.00000  Uiso   1.00
Cu890  Cu    0.16667   0.78645   0.83333   0.00000  Uiso   1.00
N891   N     0.16667   0.95069   0.83333   0.00000  Uiso   1.00
N892   N     0.16667   0.71598   0.83333   0.00000  Uiso   1.00
O893   O     0.10655   0.87291   0.83333   0.00000  Uiso   1.00
O894   O     0.22679   0.79375   0.83334   0.00000  Uiso   1.00
O895   O     0.22679   0.87291   0.83334   0.00000  Uiso   1.00
O896   O     0.10655   0.79375   0.83333   0.00000  Uiso   1.00
O897   O     0.16667   0.87292   0.76280   0.00000  Uiso   1.00
O898   O     0.16667   0.79375   0.90387   0.00000  Uiso   1.00
O899   O     0.16667   0.87292   0.90387   0.00000  Uiso   1.00
O900   O     0.16667   0.79375   0.76280   0.00000  Uiso   1.00
C901   C     0.42085   0.83333   0.83635   0.00000  Uiso   1.00
C902   C     0.35434   0.87589   0.83780   0.00000  Uiso   1.00
C903   C     0.62389   0.83333   0.82786   0.00000  Uiso   1.00
C904   C     0.37611   0.83333   0.83881   0.00000  Uiso   1.00
C905   C     0.47521   0.69138   0.80088   0.00000  Uiso   1.00
C906   C     0.52479   0.97529   0.86579   0.00000  Uiso   1.00
C907   C     0.52479   0.69138   0.86579   0.00000  Uiso   1.00
C908   C     0.47521   0.97529   0.80088   0.00000  Uiso   1.00
C909   C     0.57915   0.83333   0.83031   0.00000  Uiso   1.00
C910   C     0.49992   0.83333   0.74025   0.00000  Uiso   1.00
C911   C     0.50008   0.83333   0.92641   0.00000  Uiso   1.00
C912   C     0.49997   0.83333   0.68852   0.00000  Uiso   1.00
C913   C     0.50003   0.83333   0.97814   0.00000  Uiso   1.00
C914   C     0.35435   0.79077   0.83782   0.00000  Uiso   1.00
C915   C     0.64565   0.87589   0.82885   0.00000  Uiso   1.00
C916   C     0.64566   0.79077   0.82886   0.00000  Uiso   1.00
Cl917  Cl    0.37756   0.73638   0.85266   0.00000  Uiso   1.00
Cl918  Cl    0.62244   0.93029   0.81401   0.00000  Uiso   1.00
Cl919  Cl    0.62244   0.73637   0.81405   0.00000  Uiso   1.00
Cl920  Cl    0.37756   0.93030   0.85262   0.00000  Uiso   1.00
Cl921  Cl    0.44257   0.72060   0.75813   0.00000  Uiso   1.00
Cl922  Cl    0.55743   0.94606   0.90854   0.00000  Uiso   1.00
Cl923  Cl    0.55743   0.72060   0.90854   0.00000  Uiso   1.00
Cl924  Cl    0.44257   0.94607   0.75812   0.00000  Uiso   1.00
Cu925  Cu    0.50000   0.88022   0.83333   0.00000  Uiso   1.00
Cu926  Cu    0.50000   0.78645   0.83333   0.00000  Uiso   1.00
N927   N     0.50000   0.95069   0.83333   0.00000  Uiso   1.00
N928   N     0.50000   0.71598   0.83333   0.00000  Uiso   1.00
O929   O     0.43988   0.87291   0.83333   0.00000  Uiso   1.00
O930   O     0.56012   0.79375   0.83334   0.00000  Uiso   1.00
O931   O     0.56012   0.87291   0.83334   0.00000  Uiso   1.00
O932   O     0.43988   0.79375   0.83333   0.00000  Uiso   1.00
O933   O     0.50000   0.87292   0.76280   0.00000  Uiso   1.00
O934   O     0.50000   0.79375   0.90387   0.00000  Uiso   1.00
O935   O     0.50000   0.87292   0.90387   0.00000  Uiso   1.00
O936   O     0.50000   0.79375   0.76280   0.00000  Uiso   1.00
C937   C     0.75418   0.83333   0.83635   0.00000  Uiso   1.00
C938   C     0.68768   0.87589   0.83780   0.00000  Uiso   1.00
C939   C     0.95723   0.83333   0.82786   0.00000  Uiso   1.00
C940   C     0.70944   0.83333   0.83881   0.00000  Uiso   1.00
C941   C     0.80854   0.69138   0.80088   0.00000  Uiso   1.00
C942   C     0.85813   0.97529   0.86579   0.00000  Uiso   1.00
C943   C     0.85813   0.69138   0.86579   0.00000  Uiso   1.00
C944   C     0.80854   0.97529   0.80088   0.00000  Uiso   1.00
C945   C     0.91248   0.83333   0.83031   0.00000  Uiso   1.00
C946   C     0.83325   0.83333   0.74025   0.00000  Uiso   1.00
C947   C     0.83342   0.83333   0.92641   0.00000  Uiso   1.00
C948   C     0.83330   0.83333   0.68852   0.00000  Uiso   1.00
C949   C     0.83336   0.83333   0.97814   0.00000  Uiso   1.00
C950   C     0.68768   0.79077   0.83782   0.00000  Uiso   1.00
C951   C     0.97899   0.87589   0.82885   0.00000  Uiso   1.00
C952   C     0.97899   0.79077   0.82886   0.00000  Uiso   1.00
Cl953  Cl    0.71090   0.73638   0.85266   0.00000  Uiso   1.00
Cl954  Cl    0.95577   0.93029   0.81401   0.00000  Uiso   1.00
Cl955  Cl    0.95578   0.73637   0.81405   0.00000  Uiso   1.00
Cl956  Cl    0.71089   0.93030   0.85262   0.00000  Uiso   1.00
Cl957  Cl    0.77590   0.72060   0.75813   0.00000  Uiso   1.00
Cl958  Cl    0.89076   0.94606   0.90854   0.00000  Uiso   1.00
Cl959  Cl    0.89076   0.72060   0.90854   0.00000  Uiso   1.00
Cl960  Cl    0.77591   0.94607   0.75812   0.00000  Uiso   1.00
Cu961  Cu    0.83333   0.88022   0.83333   0.00000  Uiso   1.00
Cu962  Cu    0.83333   0.78645   0.83333   0.00000  Uiso   1.00
N963   N     0.83333   0.95069   0.83333   0.00000  Uiso   1.00
N964   N     0.83333   0.71598   0.83333   0.00000  Uiso   1.00
O965   O     0.77321   0.87291   0.83333   0.00000  Uiso   1.00
O966   O     0.89345   0.79375   0.83334   0.00000  Uiso   1.00
O967   O     0.89345   0.87291   0.83334   0.00000  Uiso   1.00
O968   O     0.77321   0.79375   0.83333   0.00000  Uiso   1.00
O969   O     0.83333   0.87292   0.76280   0.00000  Uiso   1.00
O970   O     0.83333   0.79375   0.90387   0.00000  Uiso   1.00
O971   O     0.83333   0.87292   0.90387   0.00000  Uiso   1.00
O972   O     0.83333   0.79375   0.76280   0.00000  Uiso   1.00
loop_
_geom_bond_atom_site_label_1
_geom_bond_atom_site_label_2
_geom_bond_distance
_geom_bond_site_symmetry_2
_ccdc_geom_bond_type
C1     C4      1.473   .     S
C1     O29     1.302   .     A
C1     O32     1.302   .     A
C2     C4      1.416   .     A
C2     Cl20    1.778   .     S
C2     C87     1.392   1_455 S
C3     C16     1.416   .     A
C3     C9      1.473   .     S
C3     C15     1.416   .     A
C4     C14     1.416   .     A
C5     N28     1.373   .     A
C5     Cl21    1.763   .     S
C5     C224    1.420   1_545 S
C6     N27     1.373   .     A
C6     Cl22    1.763   .     S
C6     C115    1.420   .     S
C7     Cl23    1.763   .     S
C7     N28     1.373   .     A
C7     C222    1.420   1_545 S
C8     Cl24    1.763   .     S
C8     N27     1.373   .     A
C8     C113    1.420   .     S
C9     O30     1.302   .     A
C9     O31     1.302   .     A
C10    C12     1.408   .     S
C10    O33     1.292   .     A
C10    O36     1.292   .     A
C11    C13     1.408   .     S
C11    O35     1.292   .     A
C11    O34     1.292   .     A
C12    C661    1.190   1_554 S
C13    C336    1.190   .     S
C14    Cl17    1.778   .     S
C14    C88     1.392   1_455 S
C15    Cl18    1.778   .     S
C15    C38     1.392   .     S
C16    Cl19    1.778   .     S
C16    C50     1.392   .     S
Cu25   O31     1.985   .     S
Cu25   N27     2.024   .     S
Cu25   O29     1.985   .     S
Cu25   O35     1.931   .     S
Cu25   Cu26    2.694   .     S
Cu25   O33     1.931   .     S
Cu26   O32     1.985   .     S
Cu26   N28     2.024   .     S
Cu26   O36     1.931   .     S
Cu26   O30     1.985   .     S
Cu26   O34     1.931   .     S
C37    C40     1.473   .     S
C37    O65     1.302   .     A
C37    O68     1.302   .     A
C38    C40     1.416   .     A
C38    Cl56    1.778   .     S
C39    C52     1.416   .     A
C39    C45     1.473   .     S
C39    C51     1.416   .     A
C40    C50     1.416   .     A
C41    N64     1.373   .     A
C41    Cl57    1.763   .     S
C41    C260    1.420   1_545 S
C42    N63     1.373   .     A
C42    Cl58    1.763   .     S
C42    C151    1.420   .     S
C43    Cl59    1.763   .     S
C43    N64     1.373   .     A
C43    C258    1.420   1_545 S
C44    Cl60    1.763   .     S
C44    N63     1.373   .     A
C44    C149    1.420   .     S
C45    O66     1.302   .     A
C45    O67     1.302   .     A
C46    C48     1.408   .     S
C46    O69     1.292   .     A
C46    O72     1.292   .     A
C47    C49     1.408   .     S
C47    O71     1.292   .     A
C47    O70     1.292   .     A
C48    C697    1.190   1_554 S
C49    C372    1.190   .     S
C50    Cl53    1.778   .     S
C51    Cl54    1.778   .     S
C51    C74     1.392   .     S
C52    Cl55    1.778   .     S
C52    C86     1.392   .     S
Cu61   O67     1.985   .     S
Cu61   N63     2.024   .     S
Cu61   O65     1.985   .     S
Cu61   O71     1.931   .     S
Cu61   Cu62    2.694   .     S
Cu61   O69     1.931   .     S
Cu62   O68     1.985   .     S
Cu62   N64     2.024   .     S
Cu62   O72     1.931   .     S
Cu62   O66     1.985   .     S
Cu62   O70     1.931   .     S
C73    C76     1.473   .     S
C73    O101    1.302   .     A
C73    O104    1.302   .     A
C74    C76     1.416   .     A
C74    Cl92    1.778   .     S
C75    C88     1.416   .     A
C75    C81     1.473   .     S
C75    C87     1.416   .     A
C76    C86     1.416   .     A
C77    N100    1.373   .     A
C77    Cl93    1.763   .     S
C77    C296    1.420   1_545 S
C78    N99     1.373   .     A
C78    Cl94    1.763   .     S
C78    C187    1.420   .     S
C79    Cl95    1.763   .     S
C79    N100    1.373   .     A
C79    C294    1.420   1_545 S
C80    Cl96    1.763   .     S
C80    N99     1.373   .     A
C80    C185    1.420   .     S
C81    O102    1.302   .     A
C81    O103    1.302   .     A
C82    C84     1.408   .     S
C82    O105    1.292   .     A
C82    O108    1.292   .     A
C83    C85     1.408   .     S
C83    O107    1.292   .     A
C83    O106    1.292   .     A
C84    C733    1.190   1_554 S
C85    C408    1.190   .     S
C86    Cl89    1.778   .     S
C87    Cl90    1.778   .     S
C87    C2      1.392   1_655 S
C88    Cl91    1.778   .     S
C88    C14     1.392   1_655 S
Cu97   O103    1.985   .     S
Cu97   N99     2.024   .     S
Cu97   O101    1.985   .     S
Cu97   O107    1.931   .     S
Cu97   Cu98    2.694   .     S
Cu97   O105    1.931   .     S
Cu98   O104    1.985   .     S
Cu98   N100    2.024   .     S
Cu98   O108    1.931   .     S
Cu98   O102    1.985   .     S
Cu98   O106    1.931   .     S
C109   C112    1.473   .     S
C109   O137    1.302   .     A
C109   O140    1.302   .     A
C110   C112    1.416   .     A
C110   Cl128   1.778   .     S
C110   C195    1.392   1_455 S
C111   C124    1.416   .     A
C111   C117    1.473   .     S
C111   C123    1.416   .     A
C112   C122    1.416   .     A
C113   N136    1.373   .     A
C113   Cl129   1.763   .     S
C114   N135    1.373   .     A
C114   Cl130   1.763   .     S
C114   C223    1.420   .     S
C115   Cl131   1.763   .     S
C115   N136    1.373   .     A
C116   Cl132   1.763   .     S
C116   N135    1.373   .     A
C116   C221    1.420   .     S
C117   O138    1.302   .     A
C117   O139    1.302   .     A
C118   C120    1.408   .     S
C118   O141    1.292   .     A
C118   O144    1.292   .     A
C119   C121    1.408   .     S
C119   O143    1.292   .     A
C119   O142    1.292   .     A
C120   C769    1.190   1_554 S
C121   C444    1.190   .     S
C122   Cl125   1.778   .     S
C122   C196    1.392   1_455 S
C123   Cl126   1.778   .     S
C123   C146    1.392   .     S
C124   Cl127   1.778   .     S
C124   C158    1.392   .     S
Cu133  O139    1.985   .     S
Cu133  N135    2.024   .     S
Cu133  O137    1.985   .     S
Cu133  O143    1.931   .     S
Cu133  Cu134   2.694   .     S
Cu133  O141    1.931   .     S
Cu134  O140    1.985   .     S
Cu134  N136    2.024   .     S
Cu134  O144    1.931   .     S
Cu134  O138    1.985   .     S
Cu134  O142    1.931   .     S
C145   C148    1.473   .     S
C145   O173    1.302   .     A
C145   O176    1.302   .     A
C146   C148    1.416   .     A
C146   Cl164   1.778   .     S
C147   C160    1.416   .     A
C147   C153    1.473   .     S
C147   C159    1.416   .     A
C148   C158    1.416   .     A
C149   N172    1.373   .     A
C149   Cl165   1.763   .     S
C150   N171    1.373   .     A
C150   Cl166   1.763   .     S
C150   C259    1.420   .     S
C151   Cl167   1.763   .     S
C151   N172    1.373   .     A
C152   Cl168   1.763   .     S
C152   N171    1.373   .     A
C152   C257    1.420   .     S
C153   O174    1.302   .     A
C153   O175    1.302   .     A
C154   C156    1.408   .     S
C154   O177    1.292   .     A
C154   O180    1.292   .     A
C155   C157    1.408   .     S
C155   O179    1.292   .     A
C155   O178    1.292   .     A
C156   C805    1.190   1_554 S
C157   C480    1.190   .     S
C158   Cl161   1.778   .     S
C159   Cl162   1.778   .     S
C159   C182    1.392   .     S
C160   Cl163   1.778   .     S
C160   C194    1.392   .     S
Cu169  O175    1.985   .     S
Cu169  N171    2.024   .     S
Cu169  O173    1.985   .     S
Cu169  O179    1.931   .     S
Cu169  Cu170   2.694   .     S
Cu169  O177    1.931   .     S
Cu170  O176    1.985   .     S
Cu170  N172    2.024   .     S
Cu170  O180    1.931   .     S
Cu170  O174    1.985   .     S
Cu170  O178    1.931   .     S
C181   C184    1.473   .     S
C181   O209    1.302   .     A
C181   O212    1.302   .     A
C182   C184    1.416   .     A
C182   Cl200   1.778   .     S
C183   C196    1.416   .     A
C183   C189    1.473   .     S
C183   C195    1.416   .     A
C184   C194    1.416   .     A
C185   N208    1.373   .     A
C185   Cl201   1.763   .     S
C186   N207    1.373   .     A
C186   Cl202   1.763   .     S
C186   C295    1.420   .     S
C187   Cl203   1.763   .     S
C187   N208    1.373   .     A
C188   Cl204   1.763   .     S
C188   N207    1.373   .     A
C188   C293    1.420   .     S
C189   O210    1.302   .     A
C189   O211    1.302   .     A
C190   C192    1.408   .     S
C190   O213    1.292   .     A
C190   O216    1.292   .     A
C191   C193    1.408   .     S
C191   O215    1.292   .     A
C191   O214    1.292   .     A
C192   C841    1.190   1_554 S
C193   C516    1.190   .     S
C194   Cl197   1.778   .     S
C195   Cl198   1.778   .     S
C195   C110    1.392   1_655 S
C196   Cl199   1.778   .     S
C196   C122    1.392   1_655 S
Cu205  O211    1.985   .     S
Cu205  N207    2.024   .     S
Cu205  O209    1.985   .     S
Cu205  O215    1.931   .     S
Cu205  Cu206   2.694   .     S
Cu205  O213    1.931   .     S
Cu206  O212    1.985   .     S
Cu206  N208    2.024   .     S
Cu206  O216    1.931   .     S
Cu206  O210    1.985   .     S
Cu206  O214    1.931   .     S
C217   C220    1.473   .     S
C217   O245    1.302   .     A
C217   O248    1.302   .     A
C218   C220    1.416   .     A
C218   Cl236   1.778   .     S
C218   C303    1.392   1_455 S
C219   C232    1.416   .     A
C219   C225    1.473   .     S
C219   C231    1.416   .     A
C220   C230    1.416   .     A
C221   N244    1.373   .     A
C221   Cl237   1.763   .     S
C222   N243    1.373   .     A
C222   Cl238   1.763   .     S
C222   C7      1.420   1_565 S
C223   Cl239   1.763   .     S
C223   N244    1.373   .     A
C224   Cl240   1.763   .     S
C224   N243    1.373   .     A
C224   C5      1.420   1_565 S
C225   O246    1.302   .     A
C225   O247    1.302   .     A
C226   C228    1.408   .     S
C226   O249    1.292   .     A
C226   O252    1.292   .     A
C227   C229    1.408   .     S
C227   O251    1.292   .     A
C227   O250    1.292   .     A
C228   C877    1.190   1_554 S
C229   C552    1.190   .     S
C230   Cl233   1.778   .     S
C230   C304    1.392   1_455 S
C231   Cl234   1.778   .     S
C231   C254    1.392   .     S
C232   Cl235   1.778   .     S
C232   C266    1.392   .     S
Cu241  O247    1.985   .     S
Cu241  N243    2.024   .     S
Cu241  O245    1.985   .     S
Cu241  O251    1.931   .     S
Cu241  Cu242   2.694   .     S
Cu241  O249    1.931   .     S
Cu242  O248    1.985   .     S
Cu242  N244    2.024   .     S
Cu242  O252    1.931   .     S
Cu242  O246    1.985   .     S
Cu242  O250    1.931   .     S
C253   C256    1.473   .     S
C253   O281    1.302   .     A
C253   O284    1.302   .     A
C254   C256    1.416   .     A
C254   Cl272   1.778   .     S
C255   C268    1.416   .     A
C255   C261    1.473   .     S
C255   C267    1.416   .     A
C256   C266    1.416   .     A
C257   N280    1.373   .     A
C257   Cl273   1.763   .     S
C258   N279    1.373   .     A
C258   Cl274   1.763   .     S
C258   C43     1.420   1_565 S
C259   Cl275   1.763   .     S
C259   N280    1.373   .     A
C260   Cl276   1.763   .     S
C260   N279    1.373   .     A
C260   C41     1.420   1_565 S
C261   O282    1.302   .     A
C261   O283    1.302   .     A
C262   C264    1.408   .     S
C262   O285    1.292   .     A
C262   O288    1.292   .     A
C263   C265    1.408   .     S
C263   O287    1.292   .     A
C263   O286    1.292   .     A
C264   C913    1.190   1_554 S
C265   C588    1.190   .     S
C266   Cl269   1.778   .     S
C267   Cl270   1.778   .     S
C267   C290    1.392   .     S
C268   Cl271   1.778   .     S
C268   C302    1.392   .     S
Cu277  O283    1.985   .     S
Cu277  N279    2.024   .     S
Cu277  O281    1.985   .     S
Cu277  O287    1.931   .     S
Cu277  Cu278   2.694   .     S
Cu277  O285    1.931   .     S
Cu278  O284    1.985   .     S
Cu278  N280    2.024   .     S
Cu278  O288    1.931   .     S
Cu278  O282    1.985   .     S
Cu278  O286    1.931   .     S
C289   C292    1.473   .     S
C289   O317    1.302   .     A
C289   O320    1.302   .     A
C290   C292    1.416   .     A
C290   Cl308   1.778   .     S
C291   C304    1.416   .     A
C291   C297    1.473   .     S
C291   C303    1.416   .     A
C292   C302    1.416   .     A
C293   N316    1.373   .     A
C293   Cl309   1.763   .     S
C294   N315    1.373   .     A
C294   Cl310   1.763   .     S
C294   C79     1.420   1_565 S
C295   Cl311   1.763   .     S
C295   N316    1.373   .     A
C296   Cl312   1.763   .     S
C296   N315    1.373   .     A
C296   C77     1.420   1_565 S
C297   O318    1.302   .     A
C297   O319    1.302   .     A
C298   C300    1.408   .     S
C298   O321    1.292   .     A
C298   O324    1.292   .     A
C299   C301    1.408   .     S
C299   O323    1.292   .     A
C299   O322    1.292   .     A
C300   C949    1.190   1_554 S
C301   C624    1.190   .     S
C302   Cl305   1.778   .     S
C303   Cl306   1.778   .     S
C303   C218    1.392   1_655 S
C304   Cl307   1.778   .     S
C304   C230    1.392   1_655 S
Cu313  O319    1.985   .     S
Cu313  N315    2.024   .     S
Cu313  O317    1.985   .     S
Cu313  O323    1.931   .     S
Cu313  Cu314   2.694   .     S
Cu313  O321    1.931   .     S
Cu314  O320    1.985   .     S
Cu314  N316    2.024   .     S
Cu314  O324    1.931   .     S
Cu314  O318    1.985   .     S
Cu314  O322    1.931   .     S
C325   C328    1.473   .     S
C325   O353    1.302   .     A
C325   O356    1.302   .     A
C326   C328    1.416   .     A
C326   Cl344   1.778   .     S
C326   C411    1.392   1_455 S
C327   C340    1.416   .     A
C327   C333    1.473   .     S
C327   C339    1.416   .     A
C328   C338    1.416   .     A
C329   N352    1.373   .     A
C329   Cl345   1.763   .     S
C329   C548    1.420   1_545 S
C330   N351    1.373   .     A
C330   Cl346   1.763   .     S
C330   C439    1.420   .     S
C331   Cl347   1.763   .     S
C331   N352    1.373   .     A
C331   C546    1.420   1_545 S
C332   Cl348   1.763   .     S
C332   N351    1.373   .     A
C332   C437    1.420   .     S
C333   O354    1.302   .     A
C333   O355    1.302   .     A
C334   C336    1.408   .     S
C334   O357    1.292   .     A
C334   O360    1.292   .     A
C335   C337    1.408   .     S
C335   O359    1.292   .     A
C335   O358    1.292   .     A
C337   C660    1.190   .     S
C338   Cl341   1.778   .     S
C338   C412    1.392   1_455 S
C339   Cl342   1.778   .     S
C339   C362    1.392   .     S
C340   Cl343   1.778   .     S
C340   C374    1.392   .     S
Cu349  O355    1.985   .     S
Cu349  N351    2.024   .     S
Cu349  O353    1.985   .     S
Cu349  O359    1.931   .     S
Cu349  Cu350   2.694   .     S
Cu349  O357    1.931   .     S
Cu350  O356    1.985   .     S
Cu350  N352    2.024   .     S
Cu350  O360    1.931   .     S
Cu350  O354    1.985   .     S
Cu350  O358    1.931   .     S
C361   C364    1.473   .     S
C361   O389    1.302   .     A
C361   O392    1.302   .     A
C362   C364    1.416   .     A
C362   Cl380   1.778   .     S
C363   C376    1.416   .     A
C363   C369    1.473   .     S
C363   C375    1.416   .     A
C364   C374    1.416   .     A
C365   N388    1.373   .     A
C365   Cl381   1.763   .     S
C365   C584    1.420   1_545 S
C366   N387    1.373   .     A
C366   Cl382   1.763   .     S
C366   C475    1.420   .     S
C367   Cl383   1.763   .     S
C367   N388    1.373   .     A
C367   C582    1.420   1_545 S
C368   Cl384   1.763   .     S
C368   N387    1.373   .     A
C368   C473    1.420   .     S
C369   O390    1.302   .     A
C369   O391    1.302   .     A
C370   C372    1.408   .     S
C370   O393    1.292   .     A
C370   O396    1.292   .     A
C371   C373    1.408   .     S
C371   O395    1.292   .     A
C371   O394    1.292   .     A
C373   C696    1.190   .     S
C374   Cl377   1.778   .     S
C375   Cl378   1.778   .     S
C375   C398    1.392   .     S
C376   Cl379   1.778   .     S
C376   C410    1.392   .     S
Cu385  O391    1.985   .     S
Cu385  N387    2.024   .     S
Cu385  O389    1.985   .     S
Cu385  O395    1.931   .     S
Cu385  Cu386   2.694   .     S
Cu385  O393    1.931   .     S
Cu386  O392    1.985   .     S
Cu386  N388    2.024   .     S
Cu386  O396    1.931   .     S
Cu386  O390    1.985   .     S
Cu386  O394    1.931   .     S
C397   C400    1.473   .     S
C397   O425    1.302   .     A
C397   O428    1.302   .     A
C398   C400    1.416   .     A
C398   Cl416   1.778   .     S
C399   C412    1.416   .     A
C399   C405    1.473   .     S
C399   C411    1.416   .     A
C400   C410    1.416   .     A
C401   N424    1.373   .     A
C401   Cl417   1.763   .     S
C401   C620    1.420   1_545 S
C402   N423    1.373   .     A
C402   Cl418   1.763   .     S
C402   C511    1.420   .     S
C403   Cl419   1.763   .     S
C403   N424    1.373   .     A
C403   C618    1.420   1_545 S
C404   Cl420   1.763   .     S
C404   N423    1.373   .     A
C404   C509    1.420   .     S
C405   O426    1.302   .     A
C405   O427    1.302   .     A
C406   C408    1.408   .     S
C406   O429    1.292   .     A
C406   O432    1.292   .     A
C407   C409    1.408   .     S
C407   O431    1.292   .     A
C407   O430    1.292   .     A
C409   C732    1.190   .     S
C410   Cl413   1.778   .     S
C411   Cl414   1.778   .     S
C411   C326    1.392   1_655 S
C412   Cl415   1.778   .     S
C412   C338    1.392   1_655 S
Cu421  O427    1.985   .     S
Cu421  N423    2.024   .     S
Cu421  O425    1.985   .     S
Cu421  O431    1.931   .     S
Cu421  Cu422   2.694   .     S
Cu421  O429    1.931   .     S
Cu422  O428    1.985   .     S
Cu422  N424    2.024   .     S
Cu422  O432    1.931   .     S
Cu422  O426    1.985   .     S
Cu422  O430    1.931   .     S
C433   C436    1.473   .     S
C433   O461    1.302   .     A
C433   O464    1.302   .     A
C434   C436    1.416   .     A
C434   Cl452   1.778   .     S
C434   C519    1.392   1_455 S
C435   C448    1.416   .     A
C435   C441    1.473   .     S
C435   C447    1.416   .     A
C436   C446    1.416   .     A
C437   N460    1.373   .     A
C437   Cl453   1.763   .     S
C438   N459    1.373   .     A
C438   Cl454   1.763   .     S
C438   C547    1.420   .     S
C439   Cl455   1.763   .     S
C439   N460    1.373   .     A
C440   Cl456   1.763   .     S
C440   N459    1.373   .     A
C440   C545    1.420   .     S
C441   O462    1.302   .     A
C441   O463    1.302   .     A
C442   C444    1.408   .     S
C442   O465    1.292   .     A
C442   O468    1.292   .     A
C443   C445    1.408   .     S
C443   O467    1.292   .     A
C443   O466    1.292   .     A
C445   C768    1.190   .     S
C446   Cl449   1.778   .     S
C446   C520    1.392   1_455 S
C447   Cl450   1.778   .     S
C447   C470    1.392   .     S
C448   Cl451   1.778   .     S
C448   C482    1.392   .     S
Cu457  O463    1.985   .     S
Cu457  N459    2.024   .     S
Cu457  O461    1.985   .     S
Cu457  O467    1.931   .     S
Cu457  Cu458   2.694   .     S
Cu457  O465    1.931   .     S
Cu458  O464    1.985   .     S
Cu458  N460    2.024   .     S
Cu458  O468    1.931   .     S
Cu458  O462    1.985   .     S
Cu458  O466    1.931   .     S
C469   C472    1.473   .     S
C469   O497    1.302   .     A
C469   O500    1.302   .     A
C470   C472    1.416   .     A
C470   Cl488   1.778   .     S
C471   C484    1.416   .     A
C471   C477    1.473   .     S
C471   C483    1.416   .     A
C472   C482    1.416   .     A
C473   N496    1.373   .     A
C473   Cl489   1.763   .     S
C474   N495    1.373   .     A
C474   Cl490   1.763   .     S
C474   C583    1.420   .     S
C475   Cl491   1.763   .     S
C475   N496    1.373   .     A
C476   Cl492   1.763   .     S
C476   N495    1.373   .     A
C476   C581    1.420   .     S
C477   O498    1.302   .     A
C477   O499    1.302   .     A
C478   C480    1.408   .     S
C478   O501    1.292   .     A
C478   O504    1.292   .     A
C479   C481    1.408   .     S
C479   O503    1.292   .     A
C479   O502    1.292   .     A
C481   C804    1.190   .     S
C482   Cl485   1.778   .     S
C483   Cl486   1.778   .     S
C483   C506    1.392   .     S
C484   Cl487   1.778   .     S
C484   C518    1.392   .     S
Cu493  O499    1.985   .     S
Cu493  N495    2.024   .     S
Cu493  O497    1.985   .     S
Cu493  O503    1.931   .     S
Cu493  Cu494   2.694   .     S
Cu493  O501    1.931   .     S
Cu494  O500    1.985   .     S
Cu494  N496    2.024   .     S
Cu494  O504    1.931   .     S
Cu494  O498    1.985   .     S
Cu494  O502    1.931   .     S
C505   C508    1.473   .     S
C505   O533    1.302   .     A
C505   O536    1.302   .     A
C506   C508    1.416   .     A
C506   Cl524   1.778   .     S
C507   C520    1.416   .     A
C507   C513    1.473   .     S
C507   C519    1.416   .     A
C508   C518    1.416   .     A
C509   N532    1.373   .     A
C509   Cl525   1.763   .     S
C510   N531    1.373   .     A
C510   Cl526   1.763   .     S
C510   C619    1.420   .     S
C511   Cl527   1.763   .     S
C511   N532    1.373   .     A
C512   Cl528   1.763   .     S
C512   N531    1.373   .     A
C512   C617    1.420   .     S
C513   O534    1.302   .     A
C513   O535    1.302   .     A
C514   C516    1.408   .     S
C514   O537    1.292   .     A
C514   O540    1.292   .     A
C515   C517    1.408   .     S
C515   O539    1.292   .     A
C515   O538    1.292   .     A
C517   C840    1.190   .     S
C518   Cl521   1.778   .     S
C519   Cl522   1.778   .     S
C519   C434    1.392   1_655 S
C520   Cl523   1.778   .     S
C520   C446    1.392   1_655 S
Cu529  O535    1.985   .     S
Cu529  N531    2.024   .     S
Cu529  O533    1.985   .     S
Cu529  O539    1.931   .     S
Cu529  Cu530   2.694   .     S
Cu529  O537    1.931   .     S
Cu530  O536    1.985   .     S
Cu530  N532    2.024   .     S
Cu530  O540    1.931   .     S
Cu530  O534    1.985   .     S
Cu530  O538    1.931   .     S
C541   C544    1.473   .     S
C541   O569    1.302   .     A
C541   O572    1.302   .     A
C542   C544    1.416   .     A
C542   Cl560   1.778   .     S
C542   C627    1.392   1_455 S
C543   C556    1.416   .     A
C543   C549    1.473   .     S
C543   C555    1.416   .     A
C544   C554    1.416   .     A
C545   N568    1.373   .     A
C545   Cl561   1.763   .     S
C546   N567    1.373   .     A
C546   Cl562   1.763   .     S
C546   C331    1.420   1_565 S
C547   Cl563   1.763   .     S
C547   N568    1.373   .     A
C548   Cl564   1.763   .     S
C548   N567    1.373   .     A
C548   C329    1.420   1_565 S
C549   O570    1.302   .     A
C549   O571    1.302   .     A
C550   C552    1.408   .     S
C550   O573    1.292   .     A
C550   O576    1.292   .     A
C551   C553    1.408   .     S
C551   O575    1.292   .     A
C551   O574    1.292   .     A
C553   C876    1.190   .     S
C554   Cl557   1.778   .     S
C554   C628    1.392   1_455 S
C555   Cl558   1.778   .     S
C555   C578    1.392   .     S
C556   Cl559   1.778   .     S
C556   C590    1.392   .     S
Cu565  O571    1.985   .     S
Cu565  N567    2.024   .     S
Cu565  O569    1.985   .     S
Cu565  O575    1.931   .     S
Cu565  Cu566   2.694   .     S
Cu565  O573    1.931   .     S
Cu566  O572    1.985   .     S
Cu566  N568    2.024   .     S
Cu566  O576    1.931   .     S
Cu566  O570    1.985   .     S
Cu566  O574    1.931   .     S
C577   C580    1.473   .     S
C577   O605    1.302   .     A
C577   O608    1.302   .     A
C578   C580    1.416   .     A
C578   Cl596   1.778   .     S
C579   C592    1.416   .     A
C579   C585    1.473   .     S
C579   C591    1.416   .     A
C580   C590    1.416   .     A
C581   N604    1.373   .     A
C581   Cl597   1.763   .     S
C582   N603    1.373   .     A
C582   Cl598   1.763   .     S
C582   C367    1.420   1_565 S
C583   Cl599   1.763   .     S
C583   N604    1.373   .     A
C584   Cl600   1.763   .     S
C584   N603    1.373   .     A
C584   C365    1.420   1_565 S
C585   O606    1.302   .     A
C585   O607    1.302   .     A
C586   C588    1.408   .     S
C586   O609    1.292   .     A
C586   O612    1.292   .     A
C587   C589    1.408   .     S
C587   O611    1.292   .     A
C587   O610    1.292   .     A
C589   C912    1.190   .     S
C590   Cl593   1.778   .     S
C591   Cl594   1.778   .     S
C591   C614    1.392   .     S
C592   Cl595   1.778   .     S
C592   C626    1.392   .     S
Cu601  O607    1.985   .     S
Cu601  N603    2.024   .     S
Cu601  O605    1.985   .     S
Cu601  O611    1.931   .     S
Cu601  Cu602   2.694   .     S
Cu601  O609    1.931   .     S
Cu602  O608    1.985   .     S
Cu602  N604    2.024   .     S
Cu602  O612    1.931   .     S
Cu602  O606    1.985   .     S
Cu602  O610    1.931   .     S
C613   C616    1.473   .     S
C613   O641    1.302   .     A
C613   O644    1.302   .     A
C614   C616    1.416   .     A
C614   Cl632   1.778   .     S
C615   C628    1.416   .     A
C615   C621    1.473   .     S
C615   C627    1.416   .     A
C616   C626    1.416   .     A
C617   N640    1.373   .     A
C617   Cl633   1.763   .     S
C618   N639    1.373   .     A
C618   Cl634   1.763   .     S
C618   C403    1.420   1_565 S
C619   Cl635   1.763   .     S
C619   N640    1.373   .     A
C620   Cl636   1.763   .     S
C620   N639    1.373   .     A
C620   C401    1.420   1_565 S
C621   O642    1.302   .     A
C621   O643    1.302   .     A
C622   C624    1.408   .     S
C622   O645    1.292   .     A
C622   O648    1.292   .     A
C623   C625    1.408   .     S
C623   O647    1.292   .     A
C623   O646    1.292   .     A
C625   C948    1.190   .     S
C626   Cl629   1.778   .     S
C627   Cl630   1.778   .     S
C627   C542    1.392   1_655 S
C628   Cl631   1.778   .     S
C628   C554    1.392   1_655 S
Cu637  O643    1.985   .     S
Cu637  N639    2.024   .     S
Cu637  O641    1.985   .     S
Cu637  O647    1.931   .     S
Cu637  Cu638   2.694   .     S
Cu637  O645    1.931   .     S
Cu638  O644    1.985   .     S
Cu638  N640    2.024   .     S
Cu638  O648    1.931   .     S
Cu638  O642    1.985   .     S
Cu638  O646    1.931   .     S
C649   C652    1.473   .     S
C649   O677    1.302   .     A
C649   O680    1.302   .     A
C650   C652    1.416   .     A
C650   Cl668   1.778   .     S
C650   C735    1.392   1_455 S
C651   C664    1.416   .     A
C651   C657    1.473   .     S
C651   C663    1.416   .     A
C652   C662    1.416   .     A
C653   N676    1.373   .     A
C653   Cl669   1.763   .     S
C653   C872    1.420   1_545 S
C654   N675    1.373   .     A
C654   Cl670   1.763   .     S
C654   C763    1.420   .     S
C655   Cl671   1.763   .     S
C655   N676    1.373   .     A
C655   C870    1.420   1_545 S
C656   Cl672   1.763   .     S
C656   N675    1.373   .     A
C656   C761    1.420   .     S
C657   O678    1.302   .     A
C657   O679    1.302   .     A
C658   C660    1.408   .     S
C658   O681    1.292   .     A
C658   O684    1.292   .     A
C659   C661    1.408   .     S
C659   O683    1.292   .     A
C659   O682    1.292   .     A
C661   C12     1.190   1_556 S
C662   Cl665   1.778   .     S
C662   C736    1.392   1_455 S
C663   Cl666   1.778   .     S
C663   C686    1.392   .     S
C664   Cl667   1.778   .     S
C664   C698    1.392   .     S
Cu673  O679    1.985   .     S
Cu673  N675    2.024   .     S
Cu673  O677    1.985   .     S
Cu673  O683    1.931   .     S
Cu673  Cu674   2.694   .     S
Cu673  O681    1.931   .     S
Cu674  O680    1.985   .     S
Cu674  N676    2.024   .     S
Cu674  O684    1.931   .     S
Cu674  O678    1.985   .     S
Cu674  O682    1.931   .     S
C685   C688    1.473   .     S
C685   O713    1.302   .     A
C685   O716    1.302   .     A
C686   C688    1.416   .     A
C686   Cl704   1.778   .     S
C687   C700    1.416   .     A
C687   C693    1.473   .     S
C687   C699    1.416   .     A
C688   C698    1.416   .     A
C689   N712    1.373   .     A
C689   Cl705   1.763   .     S
C689   C908    1.420   1_545 S
C690   N711    1.373   .     A
C690   Cl706   1.763   .     S
C690   C799    1.420   .     S
C691   Cl707   1.763   .     S
C691   N712    1.373   .     A
C691   C906    1.420   1_545 S
C692   Cl708   1.763   .     S
C692   N711    1.373   .     A
C692   C797    1.420   .     S
C693   O714    1.302   .     A
C693   O715    1.302   .     A
C694   C696    1.408   .     S
C694   O717    1.292   .     A
C694   O720    1.292   .     A
C695   C697    1.408   .     S
C695   O719    1.292   .     A
C695   O718    1.292   .     A
C697   C48     1.190   1_556 S
C698   Cl701   1.778   .     S
C699   Cl702   1.778   .     S
C699   C722    1.392   .     S
C700   Cl703   1.778   .     S
C700   C734    1.392   .     S
Cu709  O715    1.985   .     S
Cu709  N711    2.024   .     S
Cu709  O713    1.985   .     S
Cu709  O719    1.931   .     S
Cu709  Cu710   2.694   .     S
Cu709  O717    1.931   .     S
Cu710  O716    1.985   .     S
Cu710  N712    2.024   .     S
Cu710  O720    1.931   .     S
Cu710  O714    1.985   .     S
Cu710  O718    1.931   .     S
C721   C724    1.473   .     S
C721   O749    1.302   .     A
C721   O752    1.302   .     A
C722   C724    1.416   .     A
C722   Cl740   1.778   .     S
C723   C736    1.416   .     A
C723   C729    1.473   .     S
C723   C735    1.416   .     A
C724   C734    1.416   .     A
C725   N748    1.373   .     A
C725   Cl741   1.763   .     S
C725   C944    1.420   1_545 S
C726   N747    1.373   .     A
C726   Cl742   1.763   .     S
C726   C835    1.420   .     S
C727   Cl743   1.763   .     S
C727   N748    1.373   .     A
C727   C942    1.420   1_545 S
C728   Cl744   1.763   .     S
C728   N747    1.373   .     A
C728   C833    1.420   .     S
C729   O750    1.302   .     A
C729   O751    1.302   .     A
C730   C732    1.408   .     S
C730   O753    1.292   .     A
C730   O756    1.292   .     A
C731   C733    1.408   .     S
C731   O755    1.292   .     A
C731   O754    1.292   .     A
C733   C84     1.190   1_556 S
C734   Cl737   1.778   .     S
C735   Cl738   1.778   .     S
C735   C650    1.392   1_655 S
C736   Cl739   1.778   .     S
C736   C662    1.392   1_655 S
Cu745  O751    1.985   .     S
Cu745  N747    2.024   .     S
Cu745  O749    1.985   .     S
Cu745  O755    1.931   .     S
Cu745  Cu746   2.694   .     S
Cu745  O753    1.931   .     S
Cu746  O752    1.985   .     S
Cu746  N748    2.024   .     S
Cu746  O756    1.931   .     S
Cu746  O750    1.985   .     S
Cu746  O754    1.931   .     S
C757   C760    1.473   .     S
C757   O785    1.302   .     A
C757   O788    1.302   .     A
C758   C760    1.416   .     A
C758   Cl776   1.778   .     S
C758   C843    1.392   1_455 S
C759   C772    1.416   .     A
C759   C765    1.473   .     S
C759   C771    1.416   .     A
C760   C770    1.416   .     A
C761   N784    1.373   .     A
C761   Cl777   1.763   .     S
C762   N783    1.373   .     A
C762   Cl778   1.763   .     S
C762   C871    1.420   .     S
C763   Cl779   1.763   .     S
C763   N784    1.373   .     A
C764   Cl780   1.763   .     S
C764   N783    1.373   .     A
C764   C869    1.420   .     S
C765   O786    1.302   .     A
C765   O787    1.302   .     A
C766   C768    1.408   .     S
C766   O789    1.292   .     A
C766   O792    1.292   .     A
C767   C769    1.408   .     S
C767   O791    1.292   .     A
C767   O790    1.292   .     A
C769   C120    1.190   1_556 S
C770   Cl773   1.778   .     S
C770   C844    1.392   1_455 S
C771   Cl774   1.778   .     S
C771   C794    1.392   .     S
C772   Cl775   1.778   .     S
C772   C806    1.392   .     S
Cu781  O787    1.985   .     S
Cu781  N783    2.024   .     S
Cu781  O785    1.985   .     S
Cu781  O791    1.931   .     S
Cu781  Cu782   2.694   .     S
Cu781  O789    1.931   .     S
Cu782  O788    1.985   .     S
Cu782  N784    2.024   .     S
Cu782  O792    1.931   .     S
Cu782  O786    1.985   .     S
Cu782  O790    1.931   .     S
C793   C796    1.473   .     S
C793   O821    1.302   .     A
C793   O824    1.302   .     A
C794   C796    1.416   .     A
C794   Cl812   1.778   .     S
C795   C808    1.416   .     A
C795   C801    1.473   .     S
C795   C807    1.416   .     A
C796   C806    1.416   .     A
C797   N820    1.373   .     A
C797   Cl813   1.763   .     S
C798   N819    1.373   .     A
C798   Cl814   1.763   .     S
C798   C907    1.420   .     S
C799   Cl815   1.763   .     S
C799   N820    1.373   .     A
C800   Cl816   1.763   .     S
C800   N819    1.373   .     A
C800   C905    1.420   .     S
C801   O822    1.302   .     A
C801   O823    1.302   .     A
C802   C804    1.408   .     S
C802   O825    1.292   .     A
C802   O828    1.292   .     A
C803   C805    1.408   .     S
C803   O827    1.292   .     A
C803   O826    1.292   .     A
C805   C156    1.190   1_556 S
C806   Cl809   1.778   .     S
C807   Cl810   1.778   .     S
C807   C830    1.392   .     S
C808   Cl811   1.778   .     S
C808   C842    1.392   .     S
Cu817  O823    1.985   .     S
Cu817  N819    2.024   .     S
Cu817  O821    1.985   .     S
Cu817  O827    1.931   .     S
Cu817  Cu818   2.694   .     S
Cu817  O825    1.931   .     S
Cu818  O824    1.985   .     S
Cu818  N820    2.024   .     S
Cu818  O828    1.931   .     S
Cu818  O822    1.985   .     S
Cu818  O826    1.931   .     S
C829   C832    1.473   .     S
C829   O857    1.302   .     A
C829   O860    1.302   .     A
C830   C832    1.416   .     A
C830   Cl848   1.778   .     S
C831   C844    1.416   .     A
C831   C837    1.473   .     S
C831   C843    1.416   .     A
C832   C842    1.416   .     A
C833   N856    1.373   .     A
C833   Cl849   1.763   .     S
C834   N855    1.373   .     A
C834   Cl850   1.763   .     S
C834   C943    1.420   .     S
C835   Cl851   1.763   .     S
C835   N856    1.373   .     A
C836   Cl852   1.763   .     S
C836   N855    1.373   .     A
C836   C941    1.420   .     S
C837   O858    1.302   .     A
C837   O859    1.302   .     A
C838   C840    1.408   .     S
C838   O861    1.292   .     A
C838   O864    1.292   .     A
C839   C841    1.408   .     S
C839   O863    1.292   .     A
C839   O862    1.292   .     A
C841   C192    1.190   1_556 S
C842   Cl845   1.778   .     S
C843   Cl846   1.778   .     S
C843   C758    1.392   1_655 S
C844   Cl847   1.778   .     S
C844   C770    1.392   1_655 S
Cu853  O859    1.985   .     S
Cu853  N855    2.024   .     S
Cu853  O857    1.985   .     S
Cu853  O863    1.931   .     S
Cu853  Cu854   2.694   .     S
Cu853  O861    1.931   .     S
Cu854  O860    1.985   .     S
Cu854  N856    2.024   .     S
Cu854  O864    1.931   .     S
Cu854  O858    1.985   .     S
Cu854  O862    1.931   .     S
C865   C868    1.473   .     S
C865   O893    1.302   .     A
C865   O896    1.302   .     A
C866   C868    1.416   .     A
C866   Cl884   1.778   .     S
C866   C951    1.392   1_455 S
C867   C880    1.416   .     A
C867   C873    1.473   .     S
C867   C879    1.416   .     A
C868   C878    1.416   .     A
C869   N892    1.373   .     A
C869   Cl885   1.763   .     S
C870   N891    1.373   .     A
C870   Cl886   1.763   .     S
C870   C655    1.420   1_565 S
C871   Cl887   1.763   .     S
C871   N892    1.373   .     A
C872   Cl888   1.763   .     S
C872   N891    1.373   .     A
C872   C653    1.420   1_565 S
C873   O894    1.302   .     A
C873   O895    1.302   .     A
C874   C876    1.408   .     S
C874   O897    1.292   .     A
C874   O900    1.292   .     A
C875   C877    1.408   .     S
C875   O899    1.292   .     A
C875   O898    1.292   .     A
C877   C228    1.190   1_556 S
C878   Cl881   1.778   .     S
C878   C952    1.392   1_455 S
C879   Cl882   1.778   .     S
C879   C902    1.392   .     S
C880   Cl883   1.778   .     S
C880   C914    1.392   .     S
Cu889  O895    1.985   .     S
Cu889  N891    2.024   .     S
Cu889  O893    1.985   .     S
Cu889  O899    1.931   .     S
Cu889  Cu890   2.694   .     S
Cu889  O897    1.931   .     S
Cu890  O896    1.985   .     S
Cu890  N892    2.024   .     S
Cu890  O900    1.931   .     S
Cu890  O894    1.985   .     S
Cu890  O898    1.931   .     S
C901   C904    1.473   .     S
C901   O929    1.302   .     A
C901   O932    1.302   .     A
C902   C904    1.416   .     A
C902   Cl920   1.778   .     S
C903   C916    1.416   .     A
C903   C909    1.473   .     S
C903   C915    1.416   .     A
C904   C914    1.416   .     A
C905   N928    1.373   .     A
C905   Cl921   1.763   .     S
C906   N927    1.373   .     A
C906   Cl922   1.763   .     S
C906   C691    1.420   1_565 S
C907   Cl923   1.763   .     S
C907   N928    1.373   .     A
C908   Cl924   1.763   .     S
C908   N927    1.373   .     A
C908   C689    1.420   1_565 S
C909   O930    1.302   .     A
C909   O931    1.302   .     A
C910   C912    1.408   .     S
C910   O933    1.292   .     A
C910   O936    1.292   .     A
C911   C913    1.408   .     S
C911   O935    1.292   .     A
C911   O934    1.292   .     A
C913   C264    1.190   1_556 S
C914   Cl917   1.778   .     S
C915   Cl918   1.778   .     S
C915   C938    1.392   .     S
C916   Cl919   1.778   .     S
C916   C950    1.392   .     S
Cu925  O931    1.985   .     S
Cu925  N927    2.024   .     S
Cu925  O929    1.985   .     S
Cu925  O935    1.931   .     S
Cu925  Cu926   2.694   .     S
Cu925  O933    1.931   .     S
Cu926  O932    1.985   .     S
Cu926  N928    2.024   .     S
Cu926  O936    1.931   .     S
Cu926  O930    1.985   .     S
Cu926  O934    1.931   .     S
C937   C940    1.473   .     S
C937   O965    1.302   .     A
C937   O968    1.302   .     A
C938   C940    1.416   .     A
C938   Cl956   1.778   .     S
C939   C952    1.416   .     A
C939   C945    1.473   .     S
C939   C951    1.416   .     A
C940   C950    1.416   .     A
C941   N964    1.373   .     A
C941   Cl957   1.763   .     S
C942   N963    1.373   .     A
C942   Cl958   1.763   .     S
C942   C727    1.420   1_565 S
C943   Cl959   1.763   .     S
C943   N964    1.373   .     A
C944   Cl960   1.763   .     S
C944   N963    1.373   .     A
C944   C725    1.420   1_565 S
C945   O966    1.302   .     A
C945   O967    1.302   .     A
C946   C948    1.408   .     S
C946   O969    1.292   .     A
C946   O972    1.292   .     A
C947   C949    1.408   .     S
C947   O971    1.292   .     A
C947   O970    1.292   .     A
C949   C300    1.190   1_556 S
C950   Cl953   1.778   .     S
C951   Cl954   1.778   .     S
C951   C866    1.392   1_655 S
C952   Cl955   1.778   .     S
C952   C878    1.392   1_655 S
Cu961  O967    1.985   .     S
Cu961  N963    2.024   .     S
Cu961  O965    1.985   .     S
Cu961  O971    1.931   .     S
Cu961  Cu962   2.694   .     S
Cu961  O969    1.931   .     S
Cu962  O968    1.985   .     S
Cu962  N964    2.024   .     S
Cu962  O972    1.931   .     S
Cu962  O966    1.985   .     S
Cu962  O970    1.931   .     S
