data_str_m2_o1_o10_pcu_sym.7
_audit_creation_date              2020-01-03
_audit_creation_method            'Materials Studio'
_symmetry_space_group_name_H-M    'P1'
_symmetry_Int_Tables_number       1
_symmetry_cell_setting            triclinic
loop_
_symmetry_equiv_pos_as_xyz
  x,y,z
_cell_length_a                    26.3933
_cell_length_b                    32.2238
_cell_length_c                    28.8174
_cell_angle_alpha                 90.4436
_cell_angle_beta                  98.3096
_cell_angle_gamma                 92.1083
loop_
_atom_site_label
_atom_site_type_symbol
_atom_site_fract_x
_atom_site_fract_y
_atom_site_fract_z
_atom_site_U_iso_or_equiv
_atom_site_adp_type
_atom_site_occupancy
C1     C     0.16642   0.08759   0.16649   0.00000  Uiso   1.00
C2     C     0.12250   0.02040   0.17539   0.00000  Uiso   1.00
C3     C     0.16693   0.29041   0.16710   0.00000  Uiso   1.00
C4     C     0.16640   0.04292   0.16624   0.00000  Uiso   1.00
C5     C     0.13487   0.13957   0.01968   0.00000  Uiso   1.00
C6     C     0.19846   0.19376   0.31365   0.00000  Uiso   1.00
C7     C     0.13500   0.13982   0.30347   0.00000  Uiso   1.00
C8     C     0.19833   0.19351   0.02987   0.00000  Uiso   1.00
C9     C     0.16691   0.24575   0.16685   0.00000  Uiso   1.00
C10    C     0.06812   0.16603   0.15471   0.00000  Uiso   1.00
C11    C     0.26521   0.16731   0.17863   0.00000  Uiso   1.00
C12    C     0.01290   0.16129   0.14889   0.00000  Uiso   1.00
C13    C     0.32043   0.17204   0.18444   0.00000  Uiso   1.00
C14    C     0.21052   0.02308   0.15741   0.00000  Uiso   1.00
C15    C     0.12281   0.31025   0.17592   0.00000  Uiso   1.00
C16    C     0.21084   0.31294   0.15794   0.00000  Uiso   1.00
Cu17   Cu    0.16667   0.16667   0.21355   0.00000  Uiso   1.00
Cu18   Cu    0.16667   0.16666   0.11978   0.00000  Uiso   1.00
H19    H     0.32996   0.15817   0.07780   0.00000  Uiso   1.00
H20    H     0.28581   0.30057   0.17650   0.00000  Uiso   1.00
H21    H     0.06783   0.03377   0.21549   0.00000  Uiso   1.00
H22    H     0.04753   0.03276   0.15684   0.00000  Uiso   1.00
H23    H     0.06408   0.11672   0.27713   0.00000  Uiso   1.00
H24    H     0.11093   0.08134   0.28264   0.00000  Uiso   1.00
H25    H     0.26926   0.21661   0.05620   0.00000  Uiso   1.00
H26    H     0.22240   0.25199   0.05069   0.00000  Uiso   1.00
H27    H     0.00062   0.11152   0.10488   0.00000  Uiso   1.00
H28    H     0.00337   0.17516   0.25553   0.00000  Uiso   1.00
H29    H     0.33272   0.22181   0.22845   0.00000  Uiso   1.00
H30    H     0.28560   0.04075   0.17440   0.00000  Uiso   1.00
H31    H     0.26383   0.03934   0.11594   0.00000  Uiso   1.00
H32    H     0.04773   0.29258   0.15893   0.00000  Uiso   1.00
H33    H     0.06950   0.29399   0.21739   0.00000  Uiso   1.00
H34    H     0.26551   0.29956   0.11784   0.00000  Uiso   1.00
I35    I     0.08376   0.09503   0.04481   0.00000  Uiso   1.00
I36    I     0.24957   0.23831   0.28852   0.00000  Uiso   1.00
N37    N     0.16668   0.16668   0.28403   0.00000  Uiso   1.00
N38    N     0.23122   0.22158   0.06021   0.00000  Uiso   1.00
N39    N     0.16665   0.16666   0.04931   0.00000  Uiso   1.00
N40    N     0.32057   0.14153   0.10656   0.00000  Uiso   1.00
N41    N     0.01277   0.19181   0.22677   0.00000  Uiso   1.00
N42    N     0.25480   0.04749   0.14887   0.00000  Uiso   1.00
N43    N     0.07853   0.28585   0.18447   0.00000  Uiso   1.00
N44    N     0.25564   0.29131   0.15046   0.00000  Uiso   1.00
N45    N     0.07769   0.04203   0.18287   0.00000  Uiso   1.00
N46    N     0.10211   0.11175   0.27312   0.00000  Uiso   1.00
O47    O     0.16666   0.10655   0.20625   0.00000  Uiso   1.00
O48    O     0.16667   0.22678   0.12709   0.00000  Uiso   1.00
O49    O     0.16666   0.10654   0.12706   0.00000  Uiso   1.00
O50    O     0.16667   0.22679   0.20628   0.00000  Uiso   1.00
O51    O     0.09161   0.16667   0.19712   0.00000  Uiso   1.00
O52    O     0.24172   0.16666   0.13621   0.00000  Uiso   1.00
O53    O     0.09161   0.16666   0.11793   0.00000  Uiso   1.00
O54    O     0.24172   0.16667   0.21540   0.00000  Uiso   1.00
C55    C     0.49976   0.08759   0.16649   0.00000  Uiso   1.00
C56    C     0.45583   0.02040   0.17539   0.00000  Uiso   1.00
C57    C     0.50026   0.29041   0.16710   0.00000  Uiso   1.00
C58    C     0.49974   0.04292   0.16624   0.00000  Uiso   1.00
C59    C     0.46821   0.13957   0.01968   0.00000  Uiso   1.00
C60    C     0.53179   0.19376   0.31365   0.00000  Uiso   1.00
C61    C     0.46833   0.13982   0.30347   0.00000  Uiso   1.00
C62    C     0.53166   0.19351   0.02987   0.00000  Uiso   1.00
C63    C     0.50024   0.24575   0.16685   0.00000  Uiso   1.00
C64    C     0.40145   0.16603   0.15471   0.00000  Uiso   1.00
C65    C     0.59855   0.16731   0.17863   0.00000  Uiso   1.00
C66    C     0.34624   0.16129   0.14889   0.00000  Uiso   1.00
C67    C     0.65376   0.17204   0.18444   0.00000  Uiso   1.00
C68    C     0.54386   0.02308   0.15741   0.00000  Uiso   1.00
C69    C     0.45614   0.31025   0.17592   0.00000  Uiso   1.00
C70    C     0.54417   0.31294   0.15794   0.00000  Uiso   1.00
Cu71   Cu    0.50000   0.16667   0.21355   0.00000  Uiso   1.00
Cu72   Cu    0.50000   0.16666   0.11978   0.00000  Uiso   1.00
H73    H     0.66329   0.15817   0.07780   0.00000  Uiso   1.00
H74    H     0.61914   0.30057   0.17650   0.00000  Uiso   1.00
H75    H     0.40116   0.03377   0.21549   0.00000  Uiso   1.00
H76    H     0.38086   0.03276   0.15684   0.00000  Uiso   1.00
H77    H     0.39741   0.11672   0.27713   0.00000  Uiso   1.00
H78    H     0.44427   0.08134   0.28264   0.00000  Uiso   1.00
H79    H     0.60259   0.21661   0.05620   0.00000  Uiso   1.00
H80    H     0.55573   0.25199   0.05069   0.00000  Uiso   1.00
H81    H     0.33395   0.11152   0.10488   0.00000  Uiso   1.00
H82    H     0.33671   0.17516   0.25553   0.00000  Uiso   1.00
H83    H     0.66605   0.22181   0.22845   0.00000  Uiso   1.00
H84    H     0.61894   0.04075   0.17440   0.00000  Uiso   1.00
H85    H     0.59717   0.03934   0.11594   0.00000  Uiso   1.00
H86    H     0.38106   0.29258   0.15893   0.00000  Uiso   1.00
H87    H     0.40283   0.29399   0.21739   0.00000  Uiso   1.00
H88    H     0.59884   0.29956   0.11784   0.00000  Uiso   1.00
I89    I     0.41709   0.09503   0.04481   0.00000  Uiso   1.00
I90    I     0.58291   0.23831   0.28852   0.00000  Uiso   1.00
N91    N     0.50001   0.16668   0.28403   0.00000  Uiso   1.00
N92    N     0.56456   0.22158   0.06021   0.00000  Uiso   1.00
N93    N     0.49999   0.16666   0.04931   0.00000  Uiso   1.00
N94    N     0.65390   0.14153   0.10656   0.00000  Uiso   1.00
N95    N     0.34610   0.19181   0.22677   0.00000  Uiso   1.00
N96    N     0.58814   0.04749   0.14887   0.00000  Uiso   1.00
N97    N     0.41186   0.28585   0.18447   0.00000  Uiso   1.00
N98    N     0.58897   0.29131   0.15046   0.00000  Uiso   1.00
N99    N     0.41103   0.04203   0.18287   0.00000  Uiso   1.00
N100   N     0.43544   0.11175   0.27312   0.00000  Uiso   1.00
O101   O     0.50000   0.10655   0.20625   0.00000  Uiso   1.00
O102   O     0.50000   0.22678   0.12709   0.00000  Uiso   1.00
O103   O     0.50000   0.10654   0.12706   0.00000  Uiso   1.00
O104   O     0.50000   0.22679   0.20628   0.00000  Uiso   1.00
O105   O     0.42495   0.16667   0.19712   0.00000  Uiso   1.00
O106   O     0.57505   0.16666   0.13621   0.00000  Uiso   1.00
O107   O     0.42494   0.16666   0.11793   0.00000  Uiso   1.00
O108   O     0.57506   0.16667   0.21540   0.00000  Uiso   1.00
C109   C     0.83309   0.08759   0.16649   0.00000  Uiso   1.00
C110   C     0.78916   0.02040   0.17539   0.00000  Uiso   1.00
C111   C     0.83360   0.29041   0.16710   0.00000  Uiso   1.00
C112   C     0.83307   0.04292   0.16624   0.00000  Uiso   1.00
C113   C     0.80154   0.13957   0.01968   0.00000  Uiso   1.00
C114   C     0.86513   0.19376   0.31365   0.00000  Uiso   1.00
C115   C     0.80167   0.13982   0.30347   0.00000  Uiso   1.00
C116   C     0.86500   0.19351   0.02987   0.00000  Uiso   1.00
C117   C     0.83357   0.24575   0.16685   0.00000  Uiso   1.00
C118   C     0.73479   0.16603   0.15471   0.00000  Uiso   1.00
C119   C     0.93188   0.16731   0.17863   0.00000  Uiso   1.00
C120   C     0.67957   0.16129   0.14889   0.00000  Uiso   1.00
C121   C     0.98709   0.17204   0.18444   0.00000  Uiso   1.00
C122   C     0.87719   0.02308   0.15741   0.00000  Uiso   1.00
C123   C     0.78948   0.31025   0.17592   0.00000  Uiso   1.00
C124   C     0.87750   0.31294   0.15794   0.00000  Uiso   1.00
Cu125  Cu    0.83333   0.16667   0.21355   0.00000  Uiso   1.00
Cu126  Cu    0.83333   0.16666   0.11978   0.00000  Uiso   1.00
H127   H     0.99663   0.15817   0.07780   0.00000  Uiso   1.00
H128   H     0.95247   0.30057   0.17650   0.00000  Uiso   1.00
H129   H     0.73449   0.03377   0.21549   0.00000  Uiso   1.00
H130   H     0.71419   0.03276   0.15684   0.00000  Uiso   1.00
H131   H     0.73074   0.11672   0.27713   0.00000  Uiso   1.00
H132   H     0.77760   0.08134   0.28264   0.00000  Uiso   1.00
H133   H     0.93592   0.21661   0.05620   0.00000  Uiso   1.00
H134   H     0.88907   0.25199   0.05069   0.00000  Uiso   1.00
H135   H     0.66728   0.11152   0.10488   0.00000  Uiso   1.00
H136   H     0.67004   0.17516   0.25553   0.00000  Uiso   1.00
H137   H     0.99938   0.22181   0.22845   0.00000  Uiso   1.00
H138   H     0.95227   0.04075   0.17440   0.00000  Uiso   1.00
H139   H     0.93050   0.03934   0.11594   0.00000  Uiso   1.00
H140   H     0.71440   0.29258   0.15893   0.00000  Uiso   1.00
H141   H     0.73617   0.29399   0.21739   0.00000  Uiso   1.00
H142   H     0.93217   0.29956   0.11784   0.00000  Uiso   1.00
I143   I     0.75043   0.09503   0.04481   0.00000  Uiso   1.00
I144   I     0.91624   0.23831   0.28852   0.00000  Uiso   1.00
N145   N     0.83335   0.16668   0.28403   0.00000  Uiso   1.00
N146   N     0.89789   0.22158   0.06021   0.00000  Uiso   1.00
N147   N     0.83332   0.16666   0.04931   0.00000  Uiso   1.00
N148   N     0.98723   0.14153   0.10656   0.00000  Uiso   1.00
N149   N     0.67943   0.19181   0.22677   0.00000  Uiso   1.00
N150   N     0.92147   0.04749   0.14887   0.00000  Uiso   1.00
N151   N     0.74520   0.28585   0.18447   0.00000  Uiso   1.00
N152   N     0.92231   0.29131   0.15046   0.00000  Uiso   1.00
N153   N     0.74436   0.04203   0.18287   0.00000  Uiso   1.00
N154   N     0.76878   0.11175   0.27312   0.00000  Uiso   1.00
O155   O     0.83333   0.10655   0.20625   0.00000  Uiso   1.00
O156   O     0.83334   0.22678   0.12709   0.00000  Uiso   1.00
O157   O     0.83333   0.10654   0.12706   0.00000  Uiso   1.00
O158   O     0.83334   0.22679   0.20628   0.00000  Uiso   1.00
O159   O     0.75828   0.16667   0.19712   0.00000  Uiso   1.00
O160   O     0.90839   0.16666   0.13621   0.00000  Uiso   1.00
O161   O     0.75828   0.16666   0.11793   0.00000  Uiso   1.00
O162   O     0.90839   0.16667   0.21540   0.00000  Uiso   1.00
C163   C     0.16642   0.42092   0.16649   0.00000  Uiso   1.00
C164   C     0.12250   0.35373   0.17539   0.00000  Uiso   1.00
C165   C     0.16693   0.62374   0.16710   0.00000  Uiso   1.00
C166   C     0.16640   0.37626   0.16624   0.00000  Uiso   1.00
C167   C     0.13487   0.47291   0.01968   0.00000  Uiso   1.00
C168   C     0.19846   0.52709   0.31365   0.00000  Uiso   1.00
C169   C     0.13500   0.47315   0.30347   0.00000  Uiso   1.00
C170   C     0.19833   0.52685   0.02987   0.00000  Uiso   1.00
C171   C     0.16691   0.57908   0.16685   0.00000  Uiso   1.00
C172   C     0.06812   0.49936   0.15471   0.00000  Uiso   1.00
C173   C     0.26521   0.50064   0.17863   0.00000  Uiso   1.00
C174   C     0.01290   0.49463   0.14889   0.00000  Uiso   1.00
C175   C     0.32043   0.50537   0.18444   0.00000  Uiso   1.00
C176   C     0.21052   0.35642   0.15741   0.00000  Uiso   1.00
C177   C     0.12281   0.64358   0.17592   0.00000  Uiso   1.00
C178   C     0.21084   0.64627   0.15794   0.00000  Uiso   1.00
Cu179  Cu    0.16667   0.50001   0.21355   0.00000  Uiso   1.00
Cu180  Cu    0.16667   0.49999   0.11978   0.00000  Uiso   1.00
H181   H     0.32996   0.49151   0.07780   0.00000  Uiso   1.00
H182   H     0.28581   0.63390   0.17650   0.00000  Uiso   1.00
H183   H     0.06783   0.36711   0.21549   0.00000  Uiso   1.00
H184   H     0.04753   0.36610   0.15684   0.00000  Uiso   1.00
H185   H     0.06408   0.45005   0.27713   0.00000  Uiso   1.00
H186   H     0.11093   0.41467   0.28264   0.00000  Uiso   1.00
H187   H     0.26926   0.54995   0.05620   0.00000  Uiso   1.00
H188   H     0.22240   0.58533   0.05069   0.00000  Uiso   1.00
H189   H     0.00062   0.44486   0.10488   0.00000  Uiso   1.00
H190   H     0.00337   0.50849   0.25553   0.00000  Uiso   1.00
H191   H     0.33272   0.55514   0.22845   0.00000  Uiso   1.00
H192   H     0.28560   0.37409   0.17440   0.00000  Uiso   1.00
H193   H     0.26383   0.37267   0.11594   0.00000  Uiso   1.00
H194   H     0.04773   0.62592   0.15893   0.00000  Uiso   1.00
H195   H     0.06950   0.62733   0.21739   0.00000  Uiso   1.00
H196   H     0.26551   0.63289   0.11784   0.00000  Uiso   1.00
I197   I     0.08376   0.42836   0.04481   0.00000  Uiso   1.00
I198   I     0.24957   0.57164   0.28852   0.00000  Uiso   1.00
N199   N     0.16668   0.50001   0.28403   0.00000  Uiso   1.00
N200   N     0.23122   0.55492   0.06021   0.00000  Uiso   1.00
N201   N     0.16665   0.49999   0.04931   0.00000  Uiso   1.00
N202   N     0.32057   0.47486   0.10656   0.00000  Uiso   1.00
N203   N     0.01277   0.52514   0.22677   0.00000  Uiso   1.00
N204   N     0.25480   0.38082   0.14887   0.00000  Uiso   1.00
N205   N     0.07853   0.61918   0.18447   0.00000  Uiso   1.00
N206   N     0.25564   0.62464   0.15046   0.00000  Uiso   1.00
N207   N     0.07769   0.37536   0.18287   0.00000  Uiso   1.00
N208   N     0.10211   0.44508   0.27312   0.00000  Uiso   1.00
O209   O     0.16666   0.43989   0.20625   0.00000  Uiso   1.00
O210   O     0.16667   0.56011   0.12709   0.00000  Uiso   1.00
O211   O     0.16666   0.43988   0.12706   0.00000  Uiso   1.00
O212   O     0.16667   0.56012   0.20628   0.00000  Uiso   1.00
O213   O     0.09161   0.50000   0.19712   0.00000  Uiso   1.00
O214   O     0.24172   0.50000   0.13621   0.00000  Uiso   1.00
O215   O     0.09161   0.49999   0.11793   0.00000  Uiso   1.00
O216   O     0.24172   0.50001   0.21540   0.00000  Uiso   1.00
C217   C     0.49976   0.42092   0.16649   0.00000  Uiso   1.00
C218   C     0.45583   0.35373   0.17539   0.00000  Uiso   1.00
C219   C     0.50026   0.62374   0.16710   0.00000  Uiso   1.00
C220   C     0.49974   0.37626   0.16624   0.00000  Uiso   1.00
C221   C     0.46821   0.47291   0.01968   0.00000  Uiso   1.00
C222   C     0.53179   0.52709   0.31365   0.00000  Uiso   1.00
C223   C     0.46833   0.47315   0.30347   0.00000  Uiso   1.00
C224   C     0.53166   0.52685   0.02987   0.00000  Uiso   1.00
C225   C     0.50024   0.57908   0.16685   0.00000  Uiso   1.00
C226   C     0.40145   0.49936   0.15471   0.00000  Uiso   1.00
C227   C     0.59855   0.50064   0.17863   0.00000  Uiso   1.00
C228   C     0.34624   0.49463   0.14889   0.00000  Uiso   1.00
C229   C     0.65376   0.50537   0.18444   0.00000  Uiso   1.00
C230   C     0.54386   0.35642   0.15741   0.00000  Uiso   1.00
C231   C     0.45614   0.64358   0.17592   0.00000  Uiso   1.00
C232   C     0.54417   0.64627   0.15794   0.00000  Uiso   1.00
Cu233  Cu    0.50000   0.50001   0.21355   0.00000  Uiso   1.00
Cu234  Cu    0.50000   0.49999   0.11978   0.00000  Uiso   1.00
H235   H     0.66329   0.49151   0.07780   0.00000  Uiso   1.00
H236   H     0.61914   0.63390   0.17650   0.00000  Uiso   1.00
H237   H     0.40116   0.36711   0.21549   0.00000  Uiso   1.00
H238   H     0.38086   0.36610   0.15684   0.00000  Uiso   1.00
H239   H     0.39741   0.45005   0.27713   0.00000  Uiso   1.00
H240   H     0.44427   0.41467   0.28264   0.00000  Uiso   1.00
H241   H     0.60259   0.54995   0.05620   0.00000  Uiso   1.00
H242   H     0.55573   0.58533   0.05069   0.00000  Uiso   1.00
H243   H     0.33395   0.44486   0.10488   0.00000  Uiso   1.00
H244   H     0.33671   0.50849   0.25553   0.00000  Uiso   1.00
H245   H     0.66605   0.55514   0.22845   0.00000  Uiso   1.00
H246   H     0.61894   0.37409   0.17440   0.00000  Uiso   1.00
H247   H     0.59717   0.37267   0.11594   0.00000  Uiso   1.00
H248   H     0.38106   0.62592   0.15893   0.00000  Uiso   1.00
H249   H     0.40283   0.62733   0.21739   0.00000  Uiso   1.00
H250   H     0.59884   0.63289   0.11784   0.00000  Uiso   1.00
I251   I     0.41709   0.42836   0.04481   0.00000  Uiso   1.00
I252   I     0.58291   0.57164   0.28852   0.00000  Uiso   1.00
N253   N     0.50001   0.50001   0.28403   0.00000  Uiso   1.00
N254   N     0.56456   0.55492   0.06021   0.00000  Uiso   1.00
N255   N     0.49999   0.49999   0.04931   0.00000  Uiso   1.00
N256   N     0.65390   0.47486   0.10656   0.00000  Uiso   1.00
N257   N     0.34610   0.52514   0.22677   0.00000  Uiso   1.00
N258   N     0.58814   0.38082   0.14887   0.00000  Uiso   1.00
N259   N     0.41186   0.61918   0.18447   0.00000  Uiso   1.00
N260   N     0.58897   0.62464   0.15046   0.00000  Uiso   1.00
N261   N     0.41103   0.37536   0.18287   0.00000  Uiso   1.00
N262   N     0.43544   0.44508   0.27312   0.00000  Uiso   1.00
O263   O     0.50000   0.43989   0.20625   0.00000  Uiso   1.00
O264   O     0.50000   0.56011   0.12709   0.00000  Uiso   1.00
O265   O     0.50000   0.43988   0.12706   0.00000  Uiso   1.00
O266   O     0.50000   0.56012   0.20628   0.00000  Uiso   1.00
O267   O     0.42495   0.50000   0.19712   0.00000  Uiso   1.00
O268   O     0.57505   0.50000   0.13621   0.00000  Uiso   1.00
O269   O     0.42494   0.49999   0.11793   0.00000  Uiso   1.00
O270   O     0.57506   0.50001   0.21540   0.00000  Uiso   1.00
C271   C     0.83309   0.42092   0.16649   0.00000  Uiso   1.00
C272   C     0.78916   0.35373   0.17539   0.00000  Uiso   1.00
C273   C     0.83360   0.62374   0.16710   0.00000  Uiso   1.00
C274   C     0.83307   0.37626   0.16624   0.00000  Uiso   1.00
C275   C     0.80154   0.47291   0.01968   0.00000  Uiso   1.00
C276   C     0.86513   0.52709   0.31365   0.00000  Uiso   1.00
C277   C     0.80167   0.47315   0.30347   0.00000  Uiso   1.00
C278   C     0.86500   0.52685   0.02987   0.00000  Uiso   1.00
C279   C     0.83357   0.57908   0.16685   0.00000  Uiso   1.00
C280   C     0.73479   0.49936   0.15471   0.00000  Uiso   1.00
C281   C     0.93188   0.50064   0.17863   0.00000  Uiso   1.00
C282   C     0.67957   0.49463   0.14889   0.00000  Uiso   1.00
C283   C     0.98709   0.50537   0.18444   0.00000  Uiso   1.00
C284   C     0.87719   0.35642   0.15741   0.00000  Uiso   1.00
C285   C     0.78948   0.64358   0.17592   0.00000  Uiso   1.00
C286   C     0.87750   0.64627   0.15794   0.00000  Uiso   1.00
Cu287  Cu    0.83333   0.50001   0.21355   0.00000  Uiso   1.00
Cu288  Cu    0.83333   0.49999   0.11978   0.00000  Uiso   1.00
H289   H     0.99663   0.49151   0.07780   0.00000  Uiso   1.00
H290   H     0.95247   0.63390   0.17650   0.00000  Uiso   1.00
H291   H     0.73449   0.36711   0.21549   0.00000  Uiso   1.00
H292   H     0.71419   0.36610   0.15684   0.00000  Uiso   1.00
H293   H     0.73074   0.45005   0.27713   0.00000  Uiso   1.00
H294   H     0.77760   0.41467   0.28264   0.00000  Uiso   1.00
H295   H     0.93592   0.54995   0.05620   0.00000  Uiso   1.00
H296   H     0.88907   0.58533   0.05069   0.00000  Uiso   1.00
H297   H     0.66728   0.44486   0.10488   0.00000  Uiso   1.00
H298   H     0.67004   0.50849   0.25553   0.00000  Uiso   1.00
H299   H     0.99938   0.55514   0.22845   0.00000  Uiso   1.00
H300   H     0.95227   0.37409   0.17440   0.00000  Uiso   1.00
H301   H     0.93050   0.37267   0.11594   0.00000  Uiso   1.00
H302   H     0.71440   0.62592   0.15893   0.00000  Uiso   1.00
H303   H     0.73617   0.62733   0.21739   0.00000  Uiso   1.00
H304   H     0.93217   0.63289   0.11784   0.00000  Uiso   1.00
I305   I     0.75043   0.42836   0.04481   0.00000  Uiso   1.00
I306   I     0.91624   0.57164   0.28852   0.00000  Uiso   1.00
N307   N     0.83335   0.50001   0.28403   0.00000  Uiso   1.00
N308   N     0.89789   0.55492   0.06021   0.00000  Uiso   1.00
N309   N     0.83332   0.49999   0.04931   0.00000  Uiso   1.00
N310   N     0.98723   0.47486   0.10656   0.00000  Uiso   1.00
N311   N     0.67943   0.52514   0.22677   0.00000  Uiso   1.00
N312   N     0.92147   0.38082   0.14887   0.00000  Uiso   1.00
N313   N     0.74520   0.61918   0.18447   0.00000  Uiso   1.00
N314   N     0.92231   0.62464   0.15046   0.00000  Uiso   1.00
N315   N     0.74436   0.37536   0.18287   0.00000  Uiso   1.00
N316   N     0.76878   0.44508   0.27312   0.00000  Uiso   1.00
O317   O     0.83333   0.43989   0.20625   0.00000  Uiso   1.00
O318   O     0.83334   0.56011   0.12709   0.00000  Uiso   1.00
O319   O     0.83333   0.43988   0.12706   0.00000  Uiso   1.00
O320   O     0.83334   0.56012   0.20628   0.00000  Uiso   1.00
O321   O     0.75828   0.50000   0.19712   0.00000  Uiso   1.00
O322   O     0.90839   0.50000   0.13621   0.00000  Uiso   1.00
O323   O     0.75828   0.49999   0.11793   0.00000  Uiso   1.00
O324   O     0.90839   0.50001   0.21540   0.00000  Uiso   1.00
C325   C     0.16642   0.75425   0.16649   0.00000  Uiso   1.00
C326   C     0.12250   0.68706   0.17539   0.00000  Uiso   1.00
C327   C     0.16693   0.95708   0.16710   0.00000  Uiso   1.00
C328   C     0.16640   0.70959   0.16624   0.00000  Uiso   1.00
C329   C     0.13487   0.80624   0.01968   0.00000  Uiso   1.00
C330   C     0.19846   0.86043   0.31365   0.00000  Uiso   1.00
C331   C     0.13500   0.80649   0.30347   0.00000  Uiso   1.00
C332   C     0.19833   0.86018   0.02987   0.00000  Uiso   1.00
C333   C     0.16691   0.91241   0.16685   0.00000  Uiso   1.00
C334   C     0.06812   0.83269   0.15471   0.00000  Uiso   1.00
C335   C     0.26521   0.83397   0.17863   0.00000  Uiso   1.00
C336   C     0.01290   0.82796   0.14889   0.00000  Uiso   1.00
C337   C     0.32043   0.83871   0.18444   0.00000  Uiso   1.00
C338   C     0.21052   0.68975   0.15741   0.00000  Uiso   1.00
C339   C     0.12281   0.97692   0.17592   0.00000  Uiso   1.00
C340   C     0.21084   0.97960   0.15794   0.00000  Uiso   1.00
Cu341  Cu    0.16667   0.83334   0.21355   0.00000  Uiso   1.00
Cu342  Cu    0.16667   0.83333   0.11978   0.00000  Uiso   1.00
H343   H     0.32996   0.82484   0.07780   0.00000  Uiso   1.00
H344   H     0.28581   0.96724   0.17650   0.00000  Uiso   1.00
H345   H     0.06783   0.70044   0.21549   0.00000  Uiso   1.00
H346   H     0.04753   0.69943   0.15684   0.00000  Uiso   1.00
H347   H     0.06408   0.78339   0.27713   0.00000  Uiso   1.00
H348   H     0.11093   0.74801   0.28264   0.00000  Uiso   1.00
H349   H     0.26926   0.88328   0.05620   0.00000  Uiso   1.00
H350   H     0.22240   0.91866   0.05069   0.00000  Uiso   1.00
H351   H     0.00062   0.77819   0.10488   0.00000  Uiso   1.00
H352   H     0.00337   0.84183   0.25553   0.00000  Uiso   1.00
H353   H     0.33272   0.88848   0.22845   0.00000  Uiso   1.00
H354   H     0.28560   0.70742   0.17440   0.00000  Uiso   1.00
H355   H     0.26383   0.70601   0.11594   0.00000  Uiso   1.00
H356   H     0.04773   0.95925   0.15893   0.00000  Uiso   1.00
H357   H     0.06950   0.96066   0.21739   0.00000  Uiso   1.00
H358   H     0.26551   0.96623   0.11784   0.00000  Uiso   1.00
I359   I     0.08376   0.76170   0.04481   0.00000  Uiso   1.00
I360   I     0.24957   0.90497   0.28852   0.00000  Uiso   1.00
N361   N     0.16668   0.83334   0.28403   0.00000  Uiso   1.00
N362   N     0.23122   0.88825   0.06021   0.00000  Uiso   1.00
N363   N     0.16665   0.83332   0.04931   0.00000  Uiso   1.00
N364   N     0.32057   0.80819   0.10656   0.00000  Uiso   1.00
N365   N     0.01277   0.85847   0.22677   0.00000  Uiso   1.00
N366   N     0.25480   0.71416   0.14887   0.00000  Uiso   1.00
N367   N     0.07853   0.95251   0.18447   0.00000  Uiso   1.00
N368   N     0.25564   0.95797   0.15046   0.00000  Uiso   1.00
N369   N     0.07769   0.70869   0.18287   0.00000  Uiso   1.00
N370   N     0.10211   0.77842   0.27312   0.00000  Uiso   1.00
O371   O     0.16666   0.77322   0.20625   0.00000  Uiso   1.00
O372   O     0.16667   0.89345   0.12709   0.00000  Uiso   1.00
O373   O     0.16666   0.77321   0.12706   0.00000  Uiso   1.00
O374   O     0.16667   0.89346   0.20628   0.00000  Uiso   1.00
O375   O     0.09161   0.83334   0.19712   0.00000  Uiso   1.00
O376   O     0.24172   0.83333   0.13621   0.00000  Uiso   1.00
O377   O     0.09161   0.83333   0.11793   0.00000  Uiso   1.00
O378   O     0.24172   0.83334   0.21540   0.00000  Uiso   1.00
C379   C     0.49976   0.75425   0.16649   0.00000  Uiso   1.00
C380   C     0.45583   0.68706   0.17539   0.00000  Uiso   1.00
C381   C     0.50026   0.95708   0.16710   0.00000  Uiso   1.00
C382   C     0.49974   0.70959   0.16624   0.00000  Uiso   1.00
C383   C     0.46821   0.80624   0.01968   0.00000  Uiso   1.00
C384   C     0.53179   0.86043   0.31365   0.00000  Uiso   1.00
C385   C     0.46833   0.80649   0.30347   0.00000  Uiso   1.00
C386   C     0.53166   0.86018   0.02987   0.00000  Uiso   1.00
C387   C     0.50024   0.91241   0.16685   0.00000  Uiso   1.00
C388   C     0.40145   0.83269   0.15471   0.00000  Uiso   1.00
C389   C     0.59855   0.83397   0.17863   0.00000  Uiso   1.00
C390   C     0.34624   0.82796   0.14889   0.00000  Uiso   1.00
C391   C     0.65376   0.83871   0.18444   0.00000  Uiso   1.00
C392   C     0.54386   0.68975   0.15741   0.00000  Uiso   1.00
C393   C     0.45614   0.97692   0.17592   0.00000  Uiso   1.00
C394   C     0.54417   0.97960   0.15794   0.00000  Uiso   1.00
Cu395  Cu    0.50000   0.83334   0.21355   0.00000  Uiso   1.00
Cu396  Cu    0.50000   0.83333   0.11978   0.00000  Uiso   1.00
H397   H     0.66329   0.82484   0.07780   0.00000  Uiso   1.00
H398   H     0.61914   0.96724   0.17650   0.00000  Uiso   1.00
H399   H     0.40116   0.70044   0.21549   0.00000  Uiso   1.00
H400   H     0.38086   0.69943   0.15684   0.00000  Uiso   1.00
H401   H     0.39741   0.78339   0.27713   0.00000  Uiso   1.00
H402   H     0.44427   0.74801   0.28264   0.00000  Uiso   1.00
H403   H     0.60259   0.88328   0.05620   0.00000  Uiso   1.00
H404   H     0.55573   0.91866   0.05069   0.00000  Uiso   1.00
H405   H     0.33395   0.77819   0.10488   0.00000  Uiso   1.00
H406   H     0.33671   0.84183   0.25553   0.00000  Uiso   1.00
H407   H     0.66605   0.88848   0.22845   0.00000  Uiso   1.00
H408   H     0.61894   0.70742   0.17440   0.00000  Uiso   1.00
H409   H     0.59717   0.70601   0.11594   0.00000  Uiso   1.00
H410   H     0.38106   0.95925   0.15893   0.00000  Uiso   1.00
H411   H     0.40283   0.96066   0.21739   0.00000  Uiso   1.00
H412   H     0.59884   0.96623   0.11784   0.00000  Uiso   1.00
I413   I     0.41709   0.76170   0.04481   0.00000  Uiso   1.00
I414   I     0.58291   0.90497   0.28852   0.00000  Uiso   1.00
N415   N     0.50001   0.83334   0.28403   0.00000  Uiso   1.00
N416   N     0.56456   0.88825   0.06021   0.00000  Uiso   1.00
N417   N     0.49999   0.83332   0.04931   0.00000  Uiso   1.00
N418   N     0.65390   0.80819   0.10656   0.00000  Uiso   1.00
N419   N     0.34610   0.85847   0.22677   0.00000  Uiso   1.00
N420   N     0.58814   0.71416   0.14887   0.00000  Uiso   1.00
N421   N     0.41186   0.95251   0.18447   0.00000  Uiso   1.00
N422   N     0.58897   0.95797   0.15046   0.00000  Uiso   1.00
N423   N     0.41103   0.70869   0.18287   0.00000  Uiso   1.00
N424   N     0.43544   0.77842   0.27312   0.00000  Uiso   1.00
O425   O     0.50000   0.77322   0.20625   0.00000  Uiso   1.00
O426   O     0.50000   0.89345   0.12709   0.00000  Uiso   1.00
O427   O     0.50000   0.77321   0.12706   0.00000  Uiso   1.00
O428   O     0.50000   0.89346   0.20628   0.00000  Uiso   1.00
O429   O     0.42495   0.83334   0.19712   0.00000  Uiso   1.00
O430   O     0.57505   0.83333   0.13621   0.00000  Uiso   1.00
O431   O     0.42494   0.83333   0.11793   0.00000  Uiso   1.00
O432   O     0.57506   0.83334   0.21540   0.00000  Uiso   1.00
C433   C     0.83309   0.75425   0.16649   0.00000  Uiso   1.00
C434   C     0.78916   0.68706   0.17539   0.00000  Uiso   1.00
C435   C     0.83360   0.95708   0.16710   0.00000  Uiso   1.00
C436   C     0.83307   0.70959   0.16624   0.00000  Uiso   1.00
C437   C     0.80154   0.80624   0.01968   0.00000  Uiso   1.00
C438   C     0.86513   0.86043   0.31365   0.00000  Uiso   1.00
C439   C     0.80167   0.80649   0.30347   0.00000  Uiso   1.00
C440   C     0.86500   0.86018   0.02987   0.00000  Uiso   1.00
C441   C     0.83357   0.91241   0.16685   0.00000  Uiso   1.00
C442   C     0.73479   0.83269   0.15471   0.00000  Uiso   1.00
C443   C     0.93188   0.83397   0.17863   0.00000  Uiso   1.00
C444   C     0.67957   0.82796   0.14889   0.00000  Uiso   1.00
C445   C     0.98709   0.83871   0.18444   0.00000  Uiso   1.00
C446   C     0.87719   0.68975   0.15741   0.00000  Uiso   1.00
C447   C     0.78948   0.97692   0.17592   0.00000  Uiso   1.00
C448   C     0.87750   0.97960   0.15794   0.00000  Uiso   1.00
Cu449  Cu    0.83333   0.83334   0.21355   0.00000  Uiso   1.00
Cu450  Cu    0.83333   0.83333   0.11978   0.00000  Uiso   1.00
H451   H     0.99663   0.82484   0.07780   0.00000  Uiso   1.00
H452   H     0.95247   0.96724   0.17650   0.00000  Uiso   1.00
H453   H     0.73449   0.70044   0.21549   0.00000  Uiso   1.00
H454   H     0.71419   0.69943   0.15684   0.00000  Uiso   1.00
H455   H     0.73074   0.78339   0.27713   0.00000  Uiso   1.00
H456   H     0.77760   0.74801   0.28264   0.00000  Uiso   1.00
H457   H     0.93592   0.88328   0.05620   0.00000  Uiso   1.00
H458   H     0.88907   0.91866   0.05069   0.00000  Uiso   1.00
H459   H     0.66728   0.77819   0.10488   0.00000  Uiso   1.00
H460   H     0.67004   0.84183   0.25553   0.00000  Uiso   1.00
H461   H     0.99938   0.88848   0.22845   0.00000  Uiso   1.00
H462   H     0.95227   0.70742   0.17440   0.00000  Uiso   1.00
H463   H     0.93050   0.70601   0.11594   0.00000  Uiso   1.00
H464   H     0.71440   0.95925   0.15893   0.00000  Uiso   1.00
H465   H     0.73617   0.96066   0.21739   0.00000  Uiso   1.00
H466   H     0.93217   0.96623   0.11784   0.00000  Uiso   1.00
I467   I     0.75043   0.76170   0.04481   0.00000  Uiso   1.00
I468   I     0.91624   0.90497   0.28852   0.00000  Uiso   1.00
N469   N     0.83335   0.83334   0.28403   0.00000  Uiso   1.00
N470   N     0.89789   0.88825   0.06021   0.00000  Uiso   1.00
N471   N     0.83332   0.83332   0.04931   0.00000  Uiso   1.00
N472   N     0.98723   0.80819   0.10656   0.00000  Uiso   1.00
N473   N     0.67943   0.85847   0.22677   0.00000  Uiso   1.00
N474   N     0.92147   0.71416   0.14887   0.00000  Uiso   1.00
N475   N     0.74520   0.95251   0.18447   0.00000  Uiso   1.00
N476   N     0.92231   0.95797   0.15046   0.00000  Uiso   1.00
N477   N     0.74436   0.70869   0.18287   0.00000  Uiso   1.00
N478   N     0.76878   0.77842   0.27312   0.00000  Uiso   1.00
O479   O     0.83333   0.77322   0.20625   0.00000  Uiso   1.00
O480   O     0.83334   0.89345   0.12709   0.00000  Uiso   1.00
O481   O     0.83333   0.77321   0.12706   0.00000  Uiso   1.00
O482   O     0.83334   0.89346   0.20628   0.00000  Uiso   1.00
O483   O     0.75828   0.83334   0.19712   0.00000  Uiso   1.00
O484   O     0.90839   0.83333   0.13621   0.00000  Uiso   1.00
O485   O     0.75828   0.83333   0.11793   0.00000  Uiso   1.00
O486   O     0.90839   0.83334   0.21540   0.00000  Uiso   1.00
C487   C     0.16642   0.08759   0.49982   0.00000  Uiso   1.00
C488   C     0.12250   0.02040   0.50872   0.00000  Uiso   1.00
C489   C     0.16693   0.29041   0.50043   0.00000  Uiso   1.00
C490   C     0.16640   0.04292   0.49957   0.00000  Uiso   1.00
C491   C     0.13487   0.13957   0.35301   0.00000  Uiso   1.00
C492   C     0.19846   0.19376   0.64699   0.00000  Uiso   1.00
C493   C     0.13500   0.13982   0.63680   0.00000  Uiso   1.00
C494   C     0.19833   0.19351   0.36320   0.00000  Uiso   1.00
C495   C     0.16691   0.24575   0.50018   0.00000  Uiso   1.00
C496   C     0.06812   0.16603   0.48804   0.00000  Uiso   1.00
C497   C     0.26521   0.16731   0.51196   0.00000  Uiso   1.00
C498   C     0.01290   0.16129   0.48223   0.00000  Uiso   1.00
C499   C     0.32043   0.17204   0.51777   0.00000  Uiso   1.00
C500   C     0.21052   0.02308   0.49074   0.00000  Uiso   1.00
C501   C     0.12281   0.31025   0.50926   0.00000  Uiso   1.00
C502   C     0.21084   0.31294   0.49128   0.00000  Uiso   1.00
Cu503  Cu    0.16667   0.16667   0.54689   0.00000  Uiso   1.00
Cu504  Cu    0.16667   0.16666   0.45311   0.00000  Uiso   1.00
H505   H     0.32996   0.15817   0.41113   0.00000  Uiso   1.00
H506   H     0.28581   0.30057   0.50983   0.00000  Uiso   1.00
H507   H     0.06783   0.03377   0.54882   0.00000  Uiso   1.00
H508   H     0.04753   0.03276   0.49017   0.00000  Uiso   1.00
H509   H     0.06408   0.11672   0.61047   0.00000  Uiso   1.00
H510   H     0.11093   0.08134   0.61597   0.00000  Uiso   1.00
H511   H     0.26926   0.21661   0.38953   0.00000  Uiso   1.00
H512   H     0.22240   0.25199   0.38403   0.00000  Uiso   1.00
H513   H     0.00062   0.11152   0.43821   0.00000  Uiso   1.00
H514   H     0.00337   0.17516   0.58887   0.00000  Uiso   1.00
H515   H     0.33272   0.22181   0.56179   0.00000  Uiso   1.00
H516   H     0.28560   0.04075   0.50774   0.00000  Uiso   1.00
H517   H     0.26383   0.03934   0.44928   0.00000  Uiso   1.00
H518   H     0.04773   0.29258   0.49226   0.00000  Uiso   1.00
H519   H     0.06950   0.29399   0.55072   0.00000  Uiso   1.00
H520   H     0.26551   0.29956   0.45118   0.00000  Uiso   1.00
I521   I     0.08376   0.09503   0.37814   0.00000  Uiso   1.00
I522   I     0.24957   0.23831   0.62186   0.00000  Uiso   1.00
N523   N     0.16668   0.16668   0.61736   0.00000  Uiso   1.00
N524   N     0.23122   0.22158   0.39355   0.00000  Uiso   1.00
N525   N     0.16665   0.16666   0.38264   0.00000  Uiso   1.00
N526   N     0.32057   0.14153   0.43990   0.00000  Uiso   1.00
N527   N     0.01277   0.19181   0.56010   0.00000  Uiso   1.00
N528   N     0.25480   0.04749   0.48220   0.00000  Uiso   1.00
N529   N     0.07853   0.28585   0.51780   0.00000  Uiso   1.00
N530   N     0.25564   0.29131   0.48379   0.00000  Uiso   1.00
N531   N     0.07769   0.04203   0.51621   0.00000  Uiso   1.00
N532   N     0.10211   0.11175   0.60645   0.00000  Uiso   1.00
O533   O     0.16666   0.10655   0.53958   0.00000  Uiso   1.00
O534   O     0.16667   0.22678   0.46042   0.00000  Uiso   1.00
O535   O     0.16666   0.10654   0.46039   0.00000  Uiso   1.00
O536   O     0.16667   0.22679   0.53961   0.00000  Uiso   1.00
O537   O     0.09161   0.16667   0.53046   0.00000  Uiso   1.00
O538   O     0.24172   0.16666   0.46954   0.00000  Uiso   1.00
O539   O     0.09161   0.16666   0.45127   0.00000  Uiso   1.00
O540   O     0.24172   0.16667   0.54873   0.00000  Uiso   1.00
C541   C     0.49976   0.08759   0.49982   0.00000  Uiso   1.00
C542   C     0.45583   0.02040   0.50872   0.00000  Uiso   1.00
C543   C     0.50026   0.29041   0.50043   0.00000  Uiso   1.00
C544   C     0.49974   0.04292   0.49957   0.00000  Uiso   1.00
C545   C     0.46821   0.13957   0.35301   0.00000  Uiso   1.00
C546   C     0.53179   0.19376   0.64699   0.00000  Uiso   1.00
C547   C     0.46833   0.13982   0.63680   0.00000  Uiso   1.00
C548   C     0.53166   0.19351   0.36320   0.00000  Uiso   1.00
C549   C     0.50024   0.24575   0.50018   0.00000  Uiso   1.00
C550   C     0.40145   0.16603   0.48804   0.00000  Uiso   1.00
C551   C     0.59855   0.16731   0.51196   0.00000  Uiso   1.00
C552   C     0.34624   0.16129   0.48223   0.00000  Uiso   1.00
C553   C     0.65376   0.17204   0.51777   0.00000  Uiso   1.00
C554   C     0.54386   0.02308   0.49074   0.00000  Uiso   1.00
C555   C     0.45614   0.31025   0.50926   0.00000  Uiso   1.00
C556   C     0.54417   0.31294   0.49128   0.00000  Uiso   1.00
Cu557  Cu    0.50000   0.16667   0.54689   0.00000  Uiso   1.00
Cu558  Cu    0.50000   0.16666   0.45311   0.00000  Uiso   1.00
H559   H     0.66329   0.15817   0.41113   0.00000  Uiso   1.00
H560   H     0.61914   0.30057   0.50983   0.00000  Uiso   1.00
H561   H     0.40116   0.03377   0.54882   0.00000  Uiso   1.00
H562   H     0.38086   0.03276   0.49017   0.00000  Uiso   1.00
H563   H     0.39741   0.11672   0.61047   0.00000  Uiso   1.00
H564   H     0.44427   0.08134   0.61597   0.00000  Uiso   1.00
H565   H     0.60259   0.21661   0.38953   0.00000  Uiso   1.00
H566   H     0.55573   0.25199   0.38403   0.00000  Uiso   1.00
H567   H     0.33395   0.11152   0.43821   0.00000  Uiso   1.00
H568   H     0.33671   0.17516   0.58887   0.00000  Uiso   1.00
H569   H     0.66605   0.22181   0.56179   0.00000  Uiso   1.00
H570   H     0.61894   0.04075   0.50774   0.00000  Uiso   1.00
H571   H     0.59717   0.03934   0.44928   0.00000  Uiso   1.00
H572   H     0.38106   0.29258   0.49226   0.00000  Uiso   1.00
H573   H     0.40283   0.29399   0.55072   0.00000  Uiso   1.00
H574   H     0.59884   0.29956   0.45118   0.00000  Uiso   1.00
I575   I     0.41709   0.09503   0.37814   0.00000  Uiso   1.00
I576   I     0.58291   0.23831   0.62186   0.00000  Uiso   1.00
N577   N     0.50001   0.16668   0.61736   0.00000  Uiso   1.00
N578   N     0.56456   0.22158   0.39355   0.00000  Uiso   1.00
N579   N     0.49999   0.16666   0.38264   0.00000  Uiso   1.00
N580   N     0.65390   0.14153   0.43990   0.00000  Uiso   1.00
N581   N     0.34610   0.19181   0.56010   0.00000  Uiso   1.00
N582   N     0.58814   0.04749   0.48220   0.00000  Uiso   1.00
N583   N     0.41186   0.28585   0.51780   0.00000  Uiso   1.00
N584   N     0.58897   0.29131   0.48379   0.00000  Uiso   1.00
N585   N     0.41103   0.04203   0.51621   0.00000  Uiso   1.00
N586   N     0.43544   0.11175   0.60645   0.00000  Uiso   1.00
O587   O     0.50000   0.10655   0.53958   0.00000  Uiso   1.00
O588   O     0.50000   0.22678   0.46042   0.00000  Uiso   1.00
O589   O     0.50000   0.10654   0.46039   0.00000  Uiso   1.00
O590   O     0.50000   0.22679   0.53961   0.00000  Uiso   1.00
O591   O     0.42495   0.16667   0.53046   0.00000  Uiso   1.00
O592   O     0.57505   0.16666   0.46954   0.00000  Uiso   1.00
O593   O     0.42494   0.16666   0.45127   0.00000  Uiso   1.00
O594   O     0.57506   0.16667   0.54873   0.00000  Uiso   1.00
C595   C     0.83309   0.08759   0.49982   0.00000  Uiso   1.00
C596   C     0.78916   0.02040   0.50872   0.00000  Uiso   1.00
C597   C     0.83360   0.29041   0.50043   0.00000  Uiso   1.00
C598   C     0.83307   0.04292   0.49957   0.00000  Uiso   1.00
C599   C     0.80154   0.13957   0.35301   0.00000  Uiso   1.00
C600   C     0.86513   0.19376   0.64699   0.00000  Uiso   1.00
C601   C     0.80167   0.13982   0.63680   0.00000  Uiso   1.00
C602   C     0.86500   0.19351   0.36320   0.00000  Uiso   1.00
C603   C     0.83357   0.24575   0.50018   0.00000  Uiso   1.00
C604   C     0.73479   0.16603   0.48804   0.00000  Uiso   1.00
C605   C     0.93188   0.16731   0.51196   0.00000  Uiso   1.00
C606   C     0.67957   0.16129   0.48223   0.00000  Uiso   1.00
C607   C     0.98709   0.17204   0.51777   0.00000  Uiso   1.00
C608   C     0.87719   0.02308   0.49074   0.00000  Uiso   1.00
C609   C     0.78948   0.31025   0.50926   0.00000  Uiso   1.00
C610   C     0.87750   0.31294   0.49128   0.00000  Uiso   1.00
Cu611  Cu    0.83333   0.16667   0.54689   0.00000  Uiso   1.00
Cu612  Cu    0.83333   0.16666   0.45311   0.00000  Uiso   1.00
H613   H     0.99663   0.15817   0.41113   0.00000  Uiso   1.00
H614   H     0.95247   0.30057   0.50983   0.00000  Uiso   1.00
H615   H     0.73449   0.03377   0.54882   0.00000  Uiso   1.00
H616   H     0.71419   0.03276   0.49017   0.00000  Uiso   1.00
H617   H     0.73074   0.11672   0.61047   0.00000  Uiso   1.00
H618   H     0.77760   0.08134   0.61597   0.00000  Uiso   1.00
H619   H     0.93592   0.21661   0.38953   0.00000  Uiso   1.00
H620   H     0.88907   0.25199   0.38403   0.00000  Uiso   1.00
H621   H     0.66728   0.11152   0.43821   0.00000  Uiso   1.00
H622   H     0.67004   0.17516   0.58887   0.00000  Uiso   1.00
H623   H     0.99938   0.22181   0.56179   0.00000  Uiso   1.00
H624   H     0.95227   0.04075   0.50774   0.00000  Uiso   1.00
H625   H     0.93050   0.03934   0.44928   0.00000  Uiso   1.00
H626   H     0.71440   0.29258   0.49226   0.00000  Uiso   1.00
H627   H     0.73617   0.29399   0.55072   0.00000  Uiso   1.00
H628   H     0.93217   0.29956   0.45118   0.00000  Uiso   1.00
I629   I     0.75043   0.09503   0.37814   0.00000  Uiso   1.00
I630   I     0.91624   0.23831   0.62186   0.00000  Uiso   1.00
N631   N     0.83335   0.16668   0.61736   0.00000  Uiso   1.00
N632   N     0.89789   0.22158   0.39355   0.00000  Uiso   1.00
N633   N     0.83332   0.16666   0.38264   0.00000  Uiso   1.00
N634   N     0.98723   0.14153   0.43990   0.00000  Uiso   1.00
N635   N     0.67943   0.19181   0.56010   0.00000  Uiso   1.00
N636   N     0.92147   0.04749   0.48220   0.00000  Uiso   1.00
N637   N     0.74520   0.28585   0.51780   0.00000  Uiso   1.00
N638   N     0.92231   0.29131   0.48379   0.00000  Uiso   1.00
N639   N     0.74436   0.04203   0.51621   0.00000  Uiso   1.00
N640   N     0.76878   0.11175   0.60645   0.00000  Uiso   1.00
O641   O     0.83333   0.10655   0.53958   0.00000  Uiso   1.00
O642   O     0.83334   0.22678   0.46042   0.00000  Uiso   1.00
O643   O     0.83333   0.10654   0.46039   0.00000  Uiso   1.00
O644   O     0.83334   0.22679   0.53961   0.00000  Uiso   1.00
O645   O     0.75828   0.16667   0.53046   0.00000  Uiso   1.00
O646   O     0.90839   0.16666   0.46954   0.00000  Uiso   1.00
O647   O     0.75828   0.16666   0.45127   0.00000  Uiso   1.00
O648   O     0.90839   0.16667   0.54873   0.00000  Uiso   1.00
C649   C     0.16642   0.42092   0.49982   0.00000  Uiso   1.00
C650   C     0.12250   0.35373   0.50872   0.00000  Uiso   1.00
C651   C     0.16693   0.62374   0.50043   0.00000  Uiso   1.00
C652   C     0.16640   0.37626   0.49957   0.00000  Uiso   1.00
C653   C     0.13487   0.47291   0.35301   0.00000  Uiso   1.00
C654   C     0.19846   0.52709   0.64699   0.00000  Uiso   1.00
C655   C     0.13500   0.47315   0.63680   0.00000  Uiso   1.00
C656   C     0.19833   0.52685   0.36320   0.00000  Uiso   1.00
C657   C     0.16691   0.57908   0.50018   0.00000  Uiso   1.00
C658   C     0.06812   0.49936   0.48804   0.00000  Uiso   1.00
C659   C     0.26521   0.50064   0.51196   0.00000  Uiso   1.00
C660   C     0.01290   0.49463   0.48223   0.00000  Uiso   1.00
C661   C     0.32043   0.50537   0.51777   0.00000  Uiso   1.00
C662   C     0.21052   0.35642   0.49074   0.00000  Uiso   1.00
C663   C     0.12281   0.64358   0.50926   0.00000  Uiso   1.00
C664   C     0.21084   0.64627   0.49128   0.00000  Uiso   1.00
Cu665  Cu    0.16667   0.50001   0.54689   0.00000  Uiso   1.00
Cu666  Cu    0.16667   0.49999   0.45311   0.00000  Uiso   1.00
H667   H     0.32996   0.49151   0.41113   0.00000  Uiso   1.00
H668   H     0.28581   0.63390   0.50983   0.00000  Uiso   1.00
H669   H     0.06783   0.36711   0.54882   0.00000  Uiso   1.00
H670   H     0.04753   0.36610   0.49017   0.00000  Uiso   1.00
H671   H     0.06408   0.45005   0.61047   0.00000  Uiso   1.00
H672   H     0.11093   0.41467   0.61597   0.00000  Uiso   1.00
H673   H     0.26926   0.54995   0.38953   0.00000  Uiso   1.00
H674   H     0.22240   0.58533   0.38403   0.00000  Uiso   1.00
H675   H     0.00062   0.44486   0.43821   0.00000  Uiso   1.00
H676   H     0.00337   0.50849   0.58887   0.00000  Uiso   1.00
H677   H     0.33272   0.55514   0.56179   0.00000  Uiso   1.00
H678   H     0.28560   0.37409   0.50774   0.00000  Uiso   1.00
H679   H     0.26383   0.37267   0.44928   0.00000  Uiso   1.00
H680   H     0.04773   0.62592   0.49226   0.00000  Uiso   1.00
H681   H     0.06950   0.62733   0.55072   0.00000  Uiso   1.00
H682   H     0.26551   0.63289   0.45118   0.00000  Uiso   1.00
I683   I     0.08376   0.42836   0.37814   0.00000  Uiso   1.00
I684   I     0.24957   0.57164   0.62186   0.00000  Uiso   1.00
N685   N     0.16668   0.50001   0.61736   0.00000  Uiso   1.00
N686   N     0.23122   0.55492   0.39355   0.00000  Uiso   1.00
N687   N     0.16665   0.49999   0.38264   0.00000  Uiso   1.00
N688   N     0.32057   0.47486   0.43990   0.00000  Uiso   1.00
N689   N     0.01277   0.52514   0.56010   0.00000  Uiso   1.00
N690   N     0.25480   0.38082   0.48220   0.00000  Uiso   1.00
N691   N     0.07853   0.61918   0.51780   0.00000  Uiso   1.00
N692   N     0.25564   0.62464   0.48379   0.00000  Uiso   1.00
N693   N     0.07769   0.37536   0.51621   0.00000  Uiso   1.00
N694   N     0.10211   0.44508   0.60645   0.00000  Uiso   1.00
O695   O     0.16666   0.43989   0.53958   0.00000  Uiso   1.00
O696   O     0.16667   0.56011   0.46042   0.00000  Uiso   1.00
O697   O     0.16666   0.43988   0.46039   0.00000  Uiso   1.00
O698   O     0.16667   0.56012   0.53961   0.00000  Uiso   1.00
O699   O     0.09161   0.50000   0.53046   0.00000  Uiso   1.00
O700   O     0.24172   0.50000   0.46954   0.00000  Uiso   1.00
O701   O     0.09161   0.49999   0.45127   0.00000  Uiso   1.00
O702   O     0.24172   0.50001   0.54873   0.00000  Uiso   1.00
C703   C     0.49976   0.42092   0.49982   0.00000  Uiso   1.00
C704   C     0.45583   0.35373   0.50872   0.00000  Uiso   1.00
C705   C     0.50026   0.62374   0.50043   0.00000  Uiso   1.00
C706   C     0.49974   0.37626   0.49957   0.00000  Uiso   1.00
C707   C     0.46821   0.47291   0.35301   0.00000  Uiso   1.00
C708   C     0.53179   0.52709   0.64699   0.00000  Uiso   1.00
C709   C     0.46833   0.47315   0.63680   0.00000  Uiso   1.00
C710   C     0.53166   0.52685   0.36320   0.00000  Uiso   1.00
C711   C     0.50024   0.57908   0.50018   0.00000  Uiso   1.00
C712   C     0.40145   0.49936   0.48804   0.00000  Uiso   1.00
C713   C     0.59855   0.50064   0.51196   0.00000  Uiso   1.00
C714   C     0.34624   0.49463   0.48223   0.00000  Uiso   1.00
C715   C     0.65376   0.50537   0.51777   0.00000  Uiso   1.00
C716   C     0.54386   0.35642   0.49074   0.00000  Uiso   1.00
C717   C     0.45614   0.64358   0.50926   0.00000  Uiso   1.00
C718   C     0.54417   0.64627   0.49128   0.00000  Uiso   1.00
Cu719  Cu    0.50000   0.50001   0.54689   0.00000  Uiso   1.00
Cu720  Cu    0.50000   0.49999   0.45311   0.00000  Uiso   1.00
H721   H     0.66329   0.49151   0.41113   0.00000  Uiso   1.00
H722   H     0.61914   0.63390   0.50983   0.00000  Uiso   1.00
H723   H     0.40116   0.36711   0.54882   0.00000  Uiso   1.00
H724   H     0.38086   0.36610   0.49017   0.00000  Uiso   1.00
H725   H     0.39741   0.45005   0.61047   0.00000  Uiso   1.00
H726   H     0.44427   0.41467   0.61597   0.00000  Uiso   1.00
H727   H     0.60259   0.54995   0.38953   0.00000  Uiso   1.00
H728   H     0.55573   0.58533   0.38403   0.00000  Uiso   1.00
H729   H     0.33395   0.44486   0.43821   0.00000  Uiso   1.00
H730   H     0.33671   0.50849   0.58887   0.00000  Uiso   1.00
H731   H     0.66605   0.55514   0.56179   0.00000  Uiso   1.00
H732   H     0.61894   0.37409   0.50774   0.00000  Uiso   1.00
H733   H     0.59717   0.37267   0.44928   0.00000  Uiso   1.00
H734   H     0.38106   0.62592   0.49226   0.00000  Uiso   1.00
H735   H     0.40283   0.62733   0.55072   0.00000  Uiso   1.00
H736   H     0.59884   0.63289   0.45118   0.00000  Uiso   1.00
I737   I     0.41709   0.42836   0.37814   0.00000  Uiso   1.00
I738   I     0.58291   0.57164   0.62186   0.00000  Uiso   1.00
N739   N     0.50001   0.50001   0.61736   0.00000  Uiso   1.00
N740   N     0.56456   0.55492   0.39355   0.00000  Uiso   1.00
N741   N     0.49999   0.49999   0.38264   0.00000  Uiso   1.00
N742   N     0.65390   0.47486   0.43990   0.00000  Uiso   1.00
N743   N     0.34610   0.52514   0.56010   0.00000  Uiso   1.00
N744   N     0.58814   0.38082   0.48220   0.00000  Uiso   1.00
N745   N     0.41186   0.61918   0.51780   0.00000  Uiso   1.00
N746   N     0.58897   0.62464   0.48379   0.00000  Uiso   1.00
N747   N     0.41103   0.37536   0.51621   0.00000  Uiso   1.00
N748   N     0.43544   0.44508   0.60645   0.00000  Uiso   1.00
O749   O     0.50000   0.43989   0.53958   0.00000  Uiso   1.00
O750   O     0.50000   0.56011   0.46042   0.00000  Uiso   1.00
O751   O     0.50000   0.43988   0.46039   0.00000  Uiso   1.00
O752   O     0.50000   0.56012   0.53961   0.00000  Uiso   1.00
O753   O     0.42495   0.50000   0.53046   0.00000  Uiso   1.00
O754   O     0.57505   0.50000   0.46954   0.00000  Uiso   1.00
O755   O     0.42494   0.49999   0.45127   0.00000  Uiso   1.00
O756   O     0.57506   0.50001   0.54873   0.00000  Uiso   1.00
C757   C     0.83309   0.42092   0.49982   0.00000  Uiso   1.00
C758   C     0.78916   0.35373   0.50872   0.00000  Uiso   1.00
C759   C     0.83360   0.62374   0.50043   0.00000  Uiso   1.00
C760   C     0.83307   0.37626   0.49957   0.00000  Uiso   1.00
C761   C     0.80154   0.47291   0.35301   0.00000  Uiso   1.00
C762   C     0.86513   0.52709   0.64699   0.00000  Uiso   1.00
C763   C     0.80167   0.47315   0.63680   0.00000  Uiso   1.00
C764   C     0.86500   0.52685   0.36320   0.00000  Uiso   1.00
C765   C     0.83357   0.57908   0.50018   0.00000  Uiso   1.00
C766   C     0.73479   0.49936   0.48804   0.00000  Uiso   1.00
C767   C     0.93188   0.50064   0.51196   0.00000  Uiso   1.00
C768   C     0.67957   0.49463   0.48223   0.00000  Uiso   1.00
C769   C     0.98709   0.50537   0.51777   0.00000  Uiso   1.00
C770   C     0.87719   0.35642   0.49074   0.00000  Uiso   1.00
C771   C     0.78948   0.64358   0.50926   0.00000  Uiso   1.00
C772   C     0.87750   0.64627   0.49128   0.00000  Uiso   1.00
Cu773  Cu    0.83333   0.50001   0.54689   0.00000  Uiso   1.00
Cu774  Cu    0.83333   0.49999   0.45311   0.00000  Uiso   1.00
H775   H     0.99663   0.49151   0.41113   0.00000  Uiso   1.00
H776   H     0.95247   0.63390   0.50983   0.00000  Uiso   1.00
H777   H     0.73449   0.36711   0.54882   0.00000  Uiso   1.00
H778   H     0.71419   0.36610   0.49017   0.00000  Uiso   1.00
H779   H     0.73074   0.45005   0.61047   0.00000  Uiso   1.00
H780   H     0.77760   0.41467   0.61597   0.00000  Uiso   1.00
H781   H     0.93592   0.54995   0.38953   0.00000  Uiso   1.00
H782   H     0.88907   0.58533   0.38403   0.00000  Uiso   1.00
H783   H     0.66728   0.44486   0.43821   0.00000  Uiso   1.00
H784   H     0.67004   0.50849   0.58887   0.00000  Uiso   1.00
H785   H     0.99938   0.55514   0.56179   0.00000  Uiso   1.00
H786   H     0.95227   0.37409   0.50774   0.00000  Uiso   1.00
H787   H     0.93050   0.37267   0.44928   0.00000  Uiso   1.00
H788   H     0.71440   0.62592   0.49226   0.00000  Uiso   1.00
H789   H     0.73617   0.62733   0.55072   0.00000  Uiso   1.00
H790   H     0.93217   0.63289   0.45118   0.00000  Uiso   1.00
I791   I     0.75043   0.42836   0.37814   0.00000  Uiso   1.00
I792   I     0.91624   0.57164   0.62186   0.00000  Uiso   1.00
N793   N     0.83335   0.50001   0.61736   0.00000  Uiso   1.00
N794   N     0.89789   0.55492   0.39355   0.00000  Uiso   1.00
N795   N     0.83332   0.49999   0.38264   0.00000  Uiso   1.00
N796   N     0.98723   0.47486   0.43990   0.00000  Uiso   1.00
N797   N     0.67943   0.52514   0.56010   0.00000  Uiso   1.00
N798   N     0.92147   0.38082   0.48220   0.00000  Uiso   1.00
N799   N     0.74520   0.61918   0.51780   0.00000  Uiso   1.00
N800   N     0.92231   0.62464   0.48379   0.00000  Uiso   1.00
N801   N     0.74436   0.37536   0.51621   0.00000  Uiso   1.00
N802   N     0.76878   0.44508   0.60645   0.00000  Uiso   1.00
O803   O     0.83333   0.43989   0.53958   0.00000  Uiso   1.00
O804   O     0.83334   0.56011   0.46042   0.00000  Uiso   1.00
O805   O     0.83333   0.43988   0.46039   0.00000  Uiso   1.00
O806   O     0.83334   0.56012   0.53961   0.00000  Uiso   1.00
O807   O     0.75828   0.50000   0.53046   0.00000  Uiso   1.00
O808   O     0.90839   0.50000   0.46954   0.00000  Uiso   1.00
O809   O     0.75828   0.49999   0.45127   0.00000  Uiso   1.00
O810   O     0.90839   0.50001   0.54873   0.00000  Uiso   1.00
C811   C     0.16642   0.75425   0.49982   0.00000  Uiso   1.00
C812   C     0.12250   0.68706   0.50872   0.00000  Uiso   1.00
C813   C     0.16693   0.95708   0.50043   0.00000  Uiso   1.00
C814   C     0.16640   0.70959   0.49957   0.00000  Uiso   1.00
C815   C     0.13487   0.80624   0.35301   0.00000  Uiso   1.00
C816   C     0.19846   0.86043   0.64699   0.00000  Uiso   1.00
C817   C     0.13500   0.80649   0.63680   0.00000  Uiso   1.00
C818   C     0.19833   0.86018   0.36320   0.00000  Uiso   1.00
C819   C     0.16691   0.91241   0.50018   0.00000  Uiso   1.00
C820   C     0.06812   0.83269   0.48804   0.00000  Uiso   1.00
C821   C     0.26521   0.83397   0.51196   0.00000  Uiso   1.00
C822   C     0.01290   0.82796   0.48223   0.00000  Uiso   1.00
C823   C     0.32043   0.83871   0.51777   0.00000  Uiso   1.00
C824   C     0.21052   0.68975   0.49074   0.00000  Uiso   1.00
C825   C     0.12281   0.97692   0.50926   0.00000  Uiso   1.00
C826   C     0.21084   0.97960   0.49128   0.00000  Uiso   1.00
Cu827  Cu    0.16667   0.83334   0.54689   0.00000  Uiso   1.00
Cu828  Cu    0.16667   0.83333   0.45311   0.00000  Uiso   1.00
H829   H     0.32996   0.82484   0.41113   0.00000  Uiso   1.00
H830   H     0.28581   0.96724   0.50983   0.00000  Uiso   1.00
H831   H     0.06783   0.70044   0.54882   0.00000  Uiso   1.00
H832   H     0.04753   0.69943   0.49017   0.00000  Uiso   1.00
H833   H     0.06408   0.78339   0.61047   0.00000  Uiso   1.00
H834   H     0.11093   0.74801   0.61597   0.00000  Uiso   1.00
H835   H     0.26926   0.88328   0.38953   0.00000  Uiso   1.00
H836   H     0.22240   0.91866   0.38403   0.00000  Uiso   1.00
H837   H     0.00062   0.77819   0.43821   0.00000  Uiso   1.00
H838   H     0.00337   0.84183   0.58887   0.00000  Uiso   1.00
H839   H     0.33272   0.88848   0.56179   0.00000  Uiso   1.00
H840   H     0.28560   0.70742   0.50774   0.00000  Uiso   1.00
H841   H     0.26383   0.70601   0.44928   0.00000  Uiso   1.00
H842   H     0.04773   0.95925   0.49226   0.00000  Uiso   1.00
H843   H     0.06950   0.96066   0.55072   0.00000  Uiso   1.00
H844   H     0.26551   0.96623   0.45118   0.00000  Uiso   1.00
I845   I     0.08376   0.76170   0.37814   0.00000  Uiso   1.00
I846   I     0.24957   0.90497   0.62186   0.00000  Uiso   1.00
N847   N     0.16668   0.83334   0.61736   0.00000  Uiso   1.00
N848   N     0.23122   0.88825   0.39355   0.00000  Uiso   1.00
N849   N     0.16665   0.83332   0.38264   0.00000  Uiso   1.00
N850   N     0.32057   0.80819   0.43990   0.00000  Uiso   1.00
N851   N     0.01277   0.85847   0.56010   0.00000  Uiso   1.00
N852   N     0.25480   0.71416   0.48220   0.00000  Uiso   1.00
N853   N     0.07853   0.95251   0.51780   0.00000  Uiso   1.00
N854   N     0.25564   0.95797   0.48379   0.00000  Uiso   1.00
N855   N     0.07769   0.70869   0.51621   0.00000  Uiso   1.00
N856   N     0.10211   0.77842   0.60645   0.00000  Uiso   1.00
O857   O     0.16666   0.77322   0.53958   0.00000  Uiso   1.00
O858   O     0.16667   0.89345   0.46042   0.00000  Uiso   1.00
O859   O     0.16666   0.77321   0.46039   0.00000  Uiso   1.00
O860   O     0.16667   0.89346   0.53961   0.00000  Uiso   1.00
O861   O     0.09161   0.83334   0.53046   0.00000  Uiso   1.00
O862   O     0.24172   0.83333   0.46954   0.00000  Uiso   1.00
O863   O     0.09161   0.83333   0.45127   0.00000  Uiso   1.00
O864   O     0.24172   0.83334   0.54873   0.00000  Uiso   1.00
C865   C     0.49976   0.75425   0.49982   0.00000  Uiso   1.00
C866   C     0.45583   0.68706   0.50872   0.00000  Uiso   1.00
C867   C     0.50026   0.95708   0.50043   0.00000  Uiso   1.00
C868   C     0.49974   0.70959   0.49957   0.00000  Uiso   1.00
C869   C     0.46821   0.80624   0.35301   0.00000  Uiso   1.00
C870   C     0.53179   0.86043   0.64699   0.00000  Uiso   1.00
C871   C     0.46833   0.80649   0.63680   0.00000  Uiso   1.00
C872   C     0.53166   0.86018   0.36320   0.00000  Uiso   1.00
C873   C     0.50024   0.91241   0.50018   0.00000  Uiso   1.00
C874   C     0.40145   0.83269   0.48804   0.00000  Uiso   1.00
C875   C     0.59855   0.83397   0.51196   0.00000  Uiso   1.00
C876   C     0.34624   0.82796   0.48223   0.00000  Uiso   1.00
C877   C     0.65376   0.83871   0.51777   0.00000  Uiso   1.00
C878   C     0.54386   0.68975   0.49074   0.00000  Uiso   1.00
C879   C     0.45614   0.97692   0.50926   0.00000  Uiso   1.00
C880   C     0.54417   0.97960   0.49128   0.00000  Uiso   1.00
Cu881  Cu    0.50000   0.83334   0.54689   0.00000  Uiso   1.00
Cu882  Cu    0.50000   0.83333   0.45311   0.00000  Uiso   1.00
H883   H     0.66329   0.82484   0.41113   0.00000  Uiso   1.00
H884   H     0.61914   0.96724   0.50983   0.00000  Uiso   1.00
H885   H     0.40116   0.70044   0.54882   0.00000  Uiso   1.00
H886   H     0.38086   0.69943   0.49017   0.00000  Uiso   1.00
H887   H     0.39741   0.78339   0.61047   0.00000  Uiso   1.00
H888   H     0.44427   0.74801   0.61597   0.00000  Uiso   1.00
H889   H     0.60259   0.88328   0.38953   0.00000  Uiso   1.00
H890   H     0.55573   0.91866   0.38403   0.00000  Uiso   1.00
H891   H     0.33395   0.77819   0.43821   0.00000  Uiso   1.00
H892   H     0.33671   0.84183   0.58887   0.00000  Uiso   1.00
H893   H     0.66605   0.88848   0.56179   0.00000  Uiso   1.00
H894   H     0.61894   0.70742   0.50774   0.00000  Uiso   1.00
H895   H     0.59717   0.70601   0.44928   0.00000  Uiso   1.00
H896   H     0.38106   0.95925   0.49226   0.00000  Uiso   1.00
H897   H     0.40283   0.96066   0.55072   0.00000  Uiso   1.00
H898   H     0.59884   0.96623   0.45118   0.00000  Uiso   1.00
I899   I     0.41709   0.76170   0.37814   0.00000  Uiso   1.00
I900   I     0.58291   0.90497   0.62186   0.00000  Uiso   1.00
N901   N     0.50001   0.83334   0.61736   0.00000  Uiso   1.00
N902   N     0.56456   0.88825   0.39355   0.00000  Uiso   1.00
N903   N     0.49999   0.83332   0.38264   0.00000  Uiso   1.00
N904   N     0.65390   0.80819   0.43990   0.00000  Uiso   1.00
N905   N     0.34610   0.85847   0.56010   0.00000  Uiso   1.00
N906   N     0.58814   0.71416   0.48220   0.00000  Uiso   1.00
N907   N     0.41186   0.95251   0.51780   0.00000  Uiso   1.00
N908   N     0.58897   0.95797   0.48379   0.00000  Uiso   1.00
N909   N     0.41103   0.70869   0.51621   0.00000  Uiso   1.00
N910   N     0.43544   0.77842   0.60645   0.00000  Uiso   1.00
O911   O     0.50000   0.77322   0.53958   0.00000  Uiso   1.00
O912   O     0.50000   0.89345   0.46042   0.00000  Uiso   1.00
O913   O     0.50000   0.77321   0.46039   0.00000  Uiso   1.00
O914   O     0.50000   0.89346   0.53961   0.00000  Uiso   1.00
O915   O     0.42495   0.83334   0.53046   0.00000  Uiso   1.00
O916   O     0.57505   0.83333   0.46954   0.00000  Uiso   1.00
O917   O     0.42494   0.83333   0.45127   0.00000  Uiso   1.00
O918   O     0.57506   0.83334   0.54873   0.00000  Uiso   1.00
C919   C     0.83309   0.75425   0.49982   0.00000  Uiso   1.00
C920   C     0.78916   0.68706   0.50872   0.00000  Uiso   1.00
C921   C     0.83360   0.95708   0.50043   0.00000  Uiso   1.00
C922   C     0.83307   0.70959   0.49957   0.00000  Uiso   1.00
C923   C     0.80154   0.80624   0.35301   0.00000  Uiso   1.00
C924   C     0.86513   0.86043   0.64699   0.00000  Uiso   1.00
C925   C     0.80167   0.80649   0.63680   0.00000  Uiso   1.00
C926   C     0.86500   0.86018   0.36320   0.00000  Uiso   1.00
C927   C     0.83357   0.91241   0.50018   0.00000  Uiso   1.00
C928   C     0.73479   0.83269   0.48804   0.00000  Uiso   1.00
C929   C     0.93188   0.83397   0.51196   0.00000  Uiso   1.00
C930   C     0.67957   0.82796   0.48223   0.00000  Uiso   1.00
C931   C     0.98709   0.83871   0.51777   0.00000  Uiso   1.00
C932   C     0.87719   0.68975   0.49074   0.00000  Uiso   1.00
C933   C     0.78948   0.97692   0.50926   0.00000  Uiso   1.00
C934   C     0.87750   0.97960   0.49128   0.00000  Uiso   1.00
Cu935  Cu    0.83333   0.83334   0.54689   0.00000  Uiso   1.00
Cu936  Cu    0.83333   0.83333   0.45311   0.00000  Uiso   1.00
H937   H     0.99663   0.82484   0.41113   0.00000  Uiso   1.00
H938   H     0.95247   0.96724   0.50983   0.00000  Uiso   1.00
H939   H     0.73449   0.70044   0.54882   0.00000  Uiso   1.00
H940   H     0.71419   0.69943   0.49017   0.00000  Uiso   1.00
H941   H     0.73074   0.78339   0.61047   0.00000  Uiso   1.00
H942   H     0.77760   0.74801   0.61597   0.00000  Uiso   1.00
H943   H     0.93592   0.88328   0.38953   0.00000  Uiso   1.00
H944   H     0.88907   0.91866   0.38403   0.00000  Uiso   1.00
H945   H     0.66728   0.77819   0.43821   0.00000  Uiso   1.00
H946   H     0.67004   0.84183   0.58887   0.00000  Uiso   1.00
H947   H     0.99938   0.88848   0.56179   0.00000  Uiso   1.00
H948   H     0.95227   0.70742   0.50774   0.00000  Uiso   1.00
H949   H     0.93050   0.70601   0.44928   0.00000  Uiso   1.00
H950   H     0.71440   0.95925   0.49226   0.00000  Uiso   1.00
H951   H     0.73617   0.96066   0.55072   0.00000  Uiso   1.00
H952   H     0.93217   0.96623   0.45118   0.00000  Uiso   1.00
I953   I     0.75043   0.76170   0.37814   0.00000  Uiso   1.00
I954   I     0.91624   0.90497   0.62186   0.00000  Uiso   1.00
N955   N     0.83335   0.83334   0.61736   0.00000  Uiso   1.00
N956   N     0.89789   0.88825   0.39355   0.00000  Uiso   1.00
N957   N     0.83332   0.83332   0.38264   0.00000  Uiso   1.00
N958   N     0.98723   0.80819   0.43990   0.00000  Uiso   1.00
N959   N     0.67943   0.85847   0.56010   0.00000  Uiso   1.00
N960   N     0.92147   0.71416   0.48220   0.00000  Uiso   1.00
N961   N     0.74520   0.95251   0.51780   0.00000  Uiso   1.00
N962   N     0.92231   0.95797   0.48379   0.00000  Uiso   1.00
N963   N     0.74436   0.70869   0.51621   0.00000  Uiso   1.00
N964   N     0.76878   0.77842   0.60645   0.00000  Uiso   1.00
O965   O     0.83333   0.77322   0.53958   0.00000  Uiso   1.00
O966   O     0.83334   0.89345   0.46042   0.00000  Uiso   1.00
O967   O     0.83333   0.77321   0.46039   0.00000  Uiso   1.00
O968   O     0.83334   0.89346   0.53961   0.00000  Uiso   1.00
O969   O     0.75828   0.83334   0.53046   0.00000  Uiso   1.00
O970   O     0.90839   0.83333   0.46954   0.00000  Uiso   1.00
O971   O     0.75828   0.83333   0.45127   0.00000  Uiso   1.00
O972   O     0.90839   0.83334   0.54873   0.00000  Uiso   1.00
C973   C     0.16642   0.08759   0.83315   0.00000  Uiso   1.00
C974   C     0.12250   0.02040   0.84206   0.00000  Uiso   1.00
C975   C     0.16693   0.29041   0.83376   0.00000  Uiso   1.00
C976   C     0.16640   0.04292   0.83290   0.00000  Uiso   1.00
C977   C     0.13487   0.13957   0.68635   0.00000  Uiso   1.00
C978   C     0.19846   0.19376   0.98032   0.00000  Uiso   1.00
C979   C     0.13500   0.13982   0.97013   0.00000  Uiso   1.00
C980   C     0.19833   0.19351   0.69653   0.00000  Uiso   1.00
C981   C     0.16691   0.24575   0.83351   0.00000  Uiso   1.00
C982   C     0.06812   0.16603   0.82137   0.00000  Uiso   1.00
C983   C     0.26521   0.16731   0.84529   0.00000  Uiso   1.00
C984   C     0.01290   0.16129   0.81556   0.00000  Uiso   1.00
C985   C     0.32043   0.17204   0.85111   0.00000  Uiso   1.00
C986   C     0.21052   0.02308   0.82408   0.00000  Uiso   1.00
C987   C     0.12281   0.31025   0.84259   0.00000  Uiso   1.00
C988   C     0.21084   0.31294   0.82461   0.00000  Uiso   1.00
Cu989  Cu    0.16667   0.16667   0.88022   0.00000  Uiso   1.00
Cu990  Cu    0.16667   0.16666   0.78645   0.00000  Uiso   1.00
H991   H     0.32996   0.15817   0.74447   0.00000  Uiso   1.00
H992   H     0.28581   0.30057   0.84316   0.00000  Uiso   1.00
H993   H     0.06783   0.03377   0.88216   0.00000  Uiso   1.00
H994   H     0.04753   0.03276   0.82350   0.00000  Uiso   1.00
H995   H     0.06408   0.11672   0.94380   0.00000  Uiso   1.00
H996   H     0.11093   0.08134   0.94931   0.00000  Uiso   1.00
H997   H     0.26926   0.21661   0.72287   0.00000  Uiso   1.00
H998   H     0.22240   0.25199   0.71736   0.00000  Uiso   1.00
H999   H     0.00062   0.11152   0.77155   0.00000  Uiso   1.00
H1000  H     0.00337   0.17516   0.92220   0.00000  Uiso   1.00
H1001  H     0.33272   0.22181   0.89512   0.00000  Uiso   1.00
H1002  H     0.28560   0.04075   0.84107   0.00000  Uiso   1.00
H1003  H     0.26383   0.03934   0.78261   0.00000  Uiso   1.00
H1004  H     0.04773   0.29258   0.82560   0.00000  Uiso   1.00
H1005  H     0.06950   0.29399   0.88406   0.00000  Uiso   1.00
H1006  H     0.26551   0.29956   0.78451   0.00000  Uiso   1.00
I1007  I     0.08376   0.09503   0.71148   0.00000  Uiso   1.00
I1008  I     0.24957   0.23831   0.95519   0.00000  Uiso   1.00
N1009  N     0.16668   0.16668   0.95069   0.00000  Uiso   1.00
N1010  N     0.23122   0.22158   0.72688   0.00000  Uiso   1.00
N1011  N     0.16665   0.16666   0.71597   0.00000  Uiso   1.00
N1012  N     0.32057   0.14153   0.77323   0.00000  Uiso   1.00
N1013  N     0.01277   0.19181   0.89344   0.00000  Uiso   1.00
N1014  N     0.25480   0.04749   0.81553   0.00000  Uiso   1.00
N1015  N     0.07853   0.28585   0.85113   0.00000  Uiso   1.00
N1016  N     0.25564   0.29131   0.81713   0.00000  Uiso   1.00
N1017  N     0.07769   0.04203   0.84954   0.00000  Uiso   1.00
N1018  N     0.10211   0.11175   0.93979   0.00000  Uiso   1.00
O1019  O     0.16666   0.10655   0.87291   0.00000  Uiso   1.00
O1020  O     0.16667   0.22678   0.79375   0.00000  Uiso   1.00
O1021  O     0.16666   0.10654   0.79372   0.00000  Uiso   1.00
O1022  O     0.16667   0.22679   0.87294   0.00000  Uiso   1.00
O1023  O     0.09161   0.16667   0.86379   0.00000  Uiso   1.00
O1024  O     0.24172   0.16666   0.80288   0.00000  Uiso   1.00
O1025  O     0.09161   0.16666   0.78460   0.00000  Uiso   1.00
O1026  O     0.24172   0.16667   0.88207   0.00000  Uiso   1.00
C1027  C     0.49976   0.08759   0.83315   0.00000  Uiso   1.00
C1028  C     0.45583   0.02040   0.84206   0.00000  Uiso   1.00
C1029  C     0.50026   0.29041   0.83376   0.00000  Uiso   1.00
C1030  C     0.49974   0.04292   0.83290   0.00000  Uiso   1.00
C1031  C     0.46821   0.13957   0.68635   0.00000  Uiso   1.00
C1032  C     0.53179   0.19376   0.98032   0.00000  Uiso   1.00
C1033  C     0.46833   0.13982   0.97013   0.00000  Uiso   1.00
C1034  C     0.53166   0.19351   0.69653   0.00000  Uiso   1.00
C1035  C     0.50024   0.24575   0.83351   0.00000  Uiso   1.00
C1036  C     0.40145   0.16603   0.82137   0.00000  Uiso   1.00
C1037  C     0.59855   0.16731   0.84529   0.00000  Uiso   1.00
C1038  C     0.34624   0.16129   0.81556   0.00000  Uiso   1.00
C1039  C     0.65376   0.17204   0.85111   0.00000  Uiso   1.00
C1040  C     0.54386   0.02308   0.82408   0.00000  Uiso   1.00
C1041  C     0.45614   0.31025   0.84259   0.00000  Uiso   1.00
C1042  C     0.54417   0.31294   0.82461   0.00000  Uiso   1.00
Cu1043 Cu    0.50000   0.16667   0.88022   0.00000  Uiso   1.00
Cu1044 Cu    0.50000   0.16666   0.78645   0.00000  Uiso   1.00
H1045  H     0.66329   0.15817   0.74447   0.00000  Uiso   1.00
H1046  H     0.61914   0.30057   0.84316   0.00000  Uiso   1.00
H1047  H     0.40116   0.03377   0.88216   0.00000  Uiso   1.00
H1048  H     0.38086   0.03276   0.82350   0.00000  Uiso   1.00
H1049  H     0.39741   0.11672   0.94380   0.00000  Uiso   1.00
H1050  H     0.44427   0.08134   0.94931   0.00000  Uiso   1.00
H1051  H     0.60259   0.21661   0.72287   0.00000  Uiso   1.00
H1052  H     0.55573   0.25199   0.71736   0.00000  Uiso   1.00
H1053  H     0.33395   0.11152   0.77155   0.00000  Uiso   1.00
H1054  H     0.33671   0.17516   0.92220   0.00000  Uiso   1.00
H1055  H     0.66605   0.22181   0.89512   0.00000  Uiso   1.00
H1056  H     0.61894   0.04075   0.84107   0.00000  Uiso   1.00
H1057  H     0.59717   0.03934   0.78261   0.00000  Uiso   1.00
H1058  H     0.38106   0.29258   0.82560   0.00000  Uiso   1.00
H1059  H     0.40283   0.29399   0.88406   0.00000  Uiso   1.00
H1060  H     0.59884   0.29956   0.78451   0.00000  Uiso   1.00
I1061  I     0.41709   0.09503   0.71148   0.00000  Uiso   1.00
I1062  I     0.58291   0.23831   0.95519   0.00000  Uiso   1.00
N1063  N     0.50001   0.16668   0.95069   0.00000  Uiso   1.00
N1064  N     0.56456   0.22158   0.72688   0.00000  Uiso   1.00
N1065  N     0.49999   0.16666   0.71597   0.00000  Uiso   1.00
N1066  N     0.65390   0.14153   0.77323   0.00000  Uiso   1.00
N1067  N     0.34610   0.19181   0.89344   0.00000  Uiso   1.00
N1068  N     0.58814   0.04749   0.81553   0.00000  Uiso   1.00
N1069  N     0.41186   0.28585   0.85113   0.00000  Uiso   1.00
N1070  N     0.58897   0.29131   0.81713   0.00000  Uiso   1.00
N1071  N     0.41103   0.04203   0.84954   0.00000  Uiso   1.00
N1072  N     0.43544   0.11175   0.93979   0.00000  Uiso   1.00
O1073  O     0.50000   0.10655   0.87291   0.00000  Uiso   1.00
O1074  O     0.50000   0.22678   0.79375   0.00000  Uiso   1.00
O1075  O     0.50000   0.10654   0.79372   0.00000  Uiso   1.00
O1076  O     0.50000   0.22679   0.87294   0.00000  Uiso   1.00
O1077  O     0.42495   0.16667   0.86379   0.00000  Uiso   1.00
O1078  O     0.57505   0.16666   0.80288   0.00000  Uiso   1.00
O1079  O     0.42494   0.16666   0.78460   0.00000  Uiso   1.00
O1080  O     0.57506   0.16667   0.88207   0.00000  Uiso   1.00
C1081  C     0.83309   0.08759   0.83315   0.00000  Uiso   1.00
C1082  C     0.78916   0.02040   0.84206   0.00000  Uiso   1.00
C1083  C     0.83360   0.29041   0.83376   0.00000  Uiso   1.00
C1084  C     0.83307   0.04292   0.83290   0.00000  Uiso   1.00
C1085  C     0.80154   0.13957   0.68635   0.00000  Uiso   1.00
C1086  C     0.86513   0.19376   0.98032   0.00000  Uiso   1.00
C1087  C     0.80167   0.13982   0.97013   0.00000  Uiso   1.00
C1088  C     0.86500   0.19351   0.69653   0.00000  Uiso   1.00
C1089  C     0.83357   0.24575   0.83351   0.00000  Uiso   1.00
C1090  C     0.73479   0.16603   0.82137   0.00000  Uiso   1.00
C1091  C     0.93188   0.16731   0.84529   0.00000  Uiso   1.00
C1092  C     0.67957   0.16129   0.81556   0.00000  Uiso   1.00
C1093  C     0.98709   0.17204   0.85111   0.00000  Uiso   1.00
C1094  C     0.87719   0.02308   0.82408   0.00000  Uiso   1.00
C1095  C     0.78948   0.31025   0.84259   0.00000  Uiso   1.00
C1096  C     0.87750   0.31294   0.82461   0.00000  Uiso   1.00
Cu1097 Cu    0.83333   0.16667   0.88022   0.00000  Uiso   1.00
Cu1098 Cu    0.83333   0.16666   0.78645   0.00000  Uiso   1.00
H1099  H     0.99663   0.15817   0.74447   0.00000  Uiso   1.00
H1100  H     0.95247   0.30057   0.84316   0.00000  Uiso   1.00
H1101  H     0.73449   0.03377   0.88216   0.00000  Uiso   1.00
H1102  H     0.71419   0.03276   0.82350   0.00000  Uiso   1.00
H1103  H     0.73074   0.11672   0.94380   0.00000  Uiso   1.00
H1104  H     0.77760   0.08134   0.94931   0.00000  Uiso   1.00
H1105  H     0.93592   0.21661   0.72287   0.00000  Uiso   1.00
H1106  H     0.88907   0.25199   0.71736   0.00000  Uiso   1.00
H1107  H     0.66728   0.11152   0.77155   0.00000  Uiso   1.00
H1108  H     0.67004   0.17516   0.92220   0.00000  Uiso   1.00
H1109  H     0.99938   0.22181   0.89512   0.00000  Uiso   1.00
H1110  H     0.95227   0.04075   0.84107   0.00000  Uiso   1.00
H1111  H     0.93050   0.03934   0.78261   0.00000  Uiso   1.00
H1112  H     0.71440   0.29258   0.82560   0.00000  Uiso   1.00
H1113  H     0.73617   0.29399   0.88406   0.00000  Uiso   1.00
H1114  H     0.93217   0.29956   0.78451   0.00000  Uiso   1.00
I1115  I     0.75043   0.09503   0.71148   0.00000  Uiso   1.00
I1116  I     0.91624   0.23831   0.95519   0.00000  Uiso   1.00
N1117  N     0.83335   0.16668   0.95069   0.00000  Uiso   1.00
N1118  N     0.89789   0.22158   0.72688   0.00000  Uiso   1.00
N1119  N     0.83332   0.16666   0.71597   0.00000  Uiso   1.00
N1120  N     0.98723   0.14153   0.77323   0.00000  Uiso   1.00
N1121  N     0.67943   0.19181   0.89344   0.00000  Uiso   1.00
N1122  N     0.92147   0.04749   0.81553   0.00000  Uiso   1.00
N1123  N     0.74520   0.28585   0.85113   0.00000  Uiso   1.00
N1124  N     0.92231   0.29131   0.81713   0.00000  Uiso   1.00
N1125  N     0.74436   0.04203   0.84954   0.00000  Uiso   1.00
N1126  N     0.76878   0.11175   0.93979   0.00000  Uiso   1.00
O1127  O     0.83333   0.10655   0.87291   0.00000  Uiso   1.00
O1128  O     0.83334   0.22678   0.79375   0.00000  Uiso   1.00
O1129  O     0.83333   0.10654   0.79372   0.00000  Uiso   1.00
O1130  O     0.83334   0.22679   0.87294   0.00000  Uiso   1.00
O1131  O     0.75828   0.16667   0.86379   0.00000  Uiso   1.00
O1132  O     0.90839   0.16666   0.80288   0.00000  Uiso   1.00
O1133  O     0.75828   0.16666   0.78460   0.00000  Uiso   1.00
O1134  O     0.90839   0.16667   0.88207   0.00000  Uiso   1.00
C1135  C     0.16642   0.42092   0.83315   0.00000  Uiso   1.00
C1136  C     0.12250   0.35373   0.84206   0.00000  Uiso   1.00
C1137  C     0.16693   0.62374   0.83376   0.00000  Uiso   1.00
C1138  C     0.16640   0.37626   0.83290   0.00000  Uiso   1.00
C1139  C     0.13487   0.47291   0.68635   0.00000  Uiso   1.00
C1140  C     0.19846   0.52709   0.98032   0.00000  Uiso   1.00
C1141  C     0.13500   0.47315   0.97013   0.00000  Uiso   1.00
C1142  C     0.19833   0.52685   0.69653   0.00000  Uiso   1.00
C1143  C     0.16691   0.57908   0.83351   0.00000  Uiso   1.00
C1144  C     0.06812   0.49936   0.82137   0.00000  Uiso   1.00
C1145  C     0.26521   0.50064   0.84529   0.00000  Uiso   1.00
C1146  C     0.01290   0.49463   0.81556   0.00000  Uiso   1.00
C1147  C     0.32043   0.50537   0.85111   0.00000  Uiso   1.00
C1148  C     0.21052   0.35642   0.82408   0.00000  Uiso   1.00
C1149  C     0.12281   0.64358   0.84259   0.00000  Uiso   1.00
C1150  C     0.21084   0.64627   0.82461   0.00000  Uiso   1.00
Cu1151 Cu    0.16667   0.50001   0.88022   0.00000  Uiso   1.00
Cu1152 Cu    0.16667   0.49999   0.78645   0.00000  Uiso   1.00
H1153  H     0.32996   0.49151   0.74447   0.00000  Uiso   1.00
H1154  H     0.28581   0.63390   0.84316   0.00000  Uiso   1.00
H1155  H     0.06783   0.36711   0.88216   0.00000  Uiso   1.00
H1156  H     0.04753   0.36610   0.82350   0.00000  Uiso   1.00
H1157  H     0.06408   0.45005   0.94380   0.00000  Uiso   1.00
H1158  H     0.11093   0.41467   0.94931   0.00000  Uiso   1.00
H1159  H     0.26926   0.54995   0.72287   0.00000  Uiso   1.00
H1160  H     0.22240   0.58533   0.71736   0.00000  Uiso   1.00
H1161  H     0.00062   0.44486   0.77155   0.00000  Uiso   1.00
H1162  H     0.00337   0.50849   0.92220   0.00000  Uiso   1.00
H1163  H     0.33272   0.55514   0.89512   0.00000  Uiso   1.00
H1164  H     0.28560   0.37409   0.84107   0.00000  Uiso   1.00
H1165  H     0.26383   0.37267   0.78261   0.00000  Uiso   1.00
H1166  H     0.04773   0.62592   0.82560   0.00000  Uiso   1.00
H1167  H     0.06950   0.62733   0.88406   0.00000  Uiso   1.00
H1168  H     0.26551   0.63289   0.78451   0.00000  Uiso   1.00
I1169  I     0.08376   0.42836   0.71148   0.00000  Uiso   1.00
I1170  I     0.24957   0.57164   0.95519   0.00000  Uiso   1.00
N1171  N     0.16668   0.50001   0.95069   0.00000  Uiso   1.00
N1172  N     0.23122   0.55492   0.72688   0.00000  Uiso   1.00
N1173  N     0.16665   0.49999   0.71597   0.00000  Uiso   1.00
N1174  N     0.32057   0.47486   0.77323   0.00000  Uiso   1.00
N1175  N     0.01277   0.52514   0.89344   0.00000  Uiso   1.00
N1176  N     0.25480   0.38082   0.81553   0.00000  Uiso   1.00
N1177  N     0.07853   0.61918   0.85113   0.00000  Uiso   1.00
N1178  N     0.25564   0.62464   0.81713   0.00000  Uiso   1.00
N1179  N     0.07769   0.37536   0.84954   0.00000  Uiso   1.00
N1180  N     0.10211   0.44508   0.93979   0.00000  Uiso   1.00
O1181  O     0.16666   0.43989   0.87291   0.00000  Uiso   1.00
O1182  O     0.16667   0.56011   0.79375   0.00000  Uiso   1.00
O1183  O     0.16666   0.43988   0.79372   0.00000  Uiso   1.00
O1184  O     0.16667   0.56012   0.87294   0.00000  Uiso   1.00
O1185  O     0.09161   0.50000   0.86379   0.00000  Uiso   1.00
O1186  O     0.24172   0.50000   0.80288   0.00000  Uiso   1.00
O1187  O     0.09161   0.49999   0.78460   0.00000  Uiso   1.00
O1188  O     0.24172   0.50001   0.88207   0.00000  Uiso   1.00
C1189  C     0.49976   0.42092   0.83315   0.00000  Uiso   1.00
C1190  C     0.45583   0.35373   0.84206   0.00000  Uiso   1.00
C1191  C     0.50026   0.62374   0.83376   0.00000  Uiso   1.00
C1192  C     0.49974   0.37626   0.83290   0.00000  Uiso   1.00
C1193  C     0.46821   0.47291   0.68635   0.00000  Uiso   1.00
C1194  C     0.53179   0.52709   0.98032   0.00000  Uiso   1.00
C1195  C     0.46833   0.47315   0.97013   0.00000  Uiso   1.00
C1196  C     0.53166   0.52685   0.69653   0.00000  Uiso   1.00
C1197  C     0.50024   0.57908   0.83351   0.00000  Uiso   1.00
C1198  C     0.40145   0.49936   0.82137   0.00000  Uiso   1.00
C1199  C     0.59855   0.50064   0.84529   0.00000  Uiso   1.00
C1200  C     0.34624   0.49463   0.81556   0.00000  Uiso   1.00
C1201  C     0.65376   0.50537   0.85111   0.00000  Uiso   1.00
C1202  C     0.54386   0.35642   0.82408   0.00000  Uiso   1.00
C1203  C     0.45614   0.64358   0.84259   0.00000  Uiso   1.00
C1204  C     0.54417   0.64627   0.82461   0.00000  Uiso   1.00
Cu1205 Cu    0.50000   0.50001   0.88022   0.00000  Uiso   1.00
Cu1206 Cu    0.50000   0.49999   0.78645   0.00000  Uiso   1.00
H1207  H     0.66329   0.49151   0.74447   0.00000  Uiso   1.00
H1208  H     0.61914   0.63390   0.84316   0.00000  Uiso   1.00
H1209  H     0.40116   0.36711   0.88216   0.00000  Uiso   1.00
H1210  H     0.38086   0.36610   0.82350   0.00000  Uiso   1.00
H1211  H     0.39741   0.45005   0.94380   0.00000  Uiso   1.00
H1212  H     0.44427   0.41467   0.94931   0.00000  Uiso   1.00
H1213  H     0.60259   0.54995   0.72287   0.00000  Uiso   1.00
H1214  H     0.55573   0.58533   0.71736   0.00000  Uiso   1.00
H1215  H     0.33395   0.44486   0.77155   0.00000  Uiso   1.00
H1216  H     0.33671   0.50849   0.92220   0.00000  Uiso   1.00
H1217  H     0.66605   0.55514   0.89512   0.00000  Uiso   1.00
H1218  H     0.61894   0.37409   0.84107   0.00000  Uiso   1.00
H1219  H     0.59717   0.37267   0.78261   0.00000  Uiso   1.00
H1220  H     0.38106   0.62592   0.82560   0.00000  Uiso   1.00
H1221  H     0.40283   0.62733   0.88406   0.00000  Uiso   1.00
H1222  H     0.59884   0.63289   0.78451   0.00000  Uiso   1.00
I1223  I     0.41709   0.42836   0.71148   0.00000  Uiso   1.00
I1224  I     0.58291   0.57164   0.95519   0.00000  Uiso   1.00
N1225  N     0.50001   0.50001   0.95069   0.00000  Uiso   1.00
N1226  N     0.56456   0.55492   0.72688   0.00000  Uiso   1.00
N1227  N     0.49999   0.49999   0.71597   0.00000  Uiso   1.00
N1228  N     0.65390   0.47486   0.77323   0.00000  Uiso   1.00
N1229  N     0.34610   0.52514   0.89344   0.00000  Uiso   1.00
N1230  N     0.58814   0.38082   0.81553   0.00000  Uiso   1.00
N1231  N     0.41186   0.61918   0.85113   0.00000  Uiso   1.00
N1232  N     0.58897   0.62464   0.81713   0.00000  Uiso   1.00
N1233  N     0.41103   0.37536   0.84954   0.00000  Uiso   1.00
N1234  N     0.43544   0.44508   0.93979   0.00000  Uiso   1.00
O1235  O     0.50000   0.43989   0.87291   0.00000  Uiso   1.00
O1236  O     0.50000   0.56011   0.79375   0.00000  Uiso   1.00
O1237  O     0.50000   0.43988   0.79372   0.00000  Uiso   1.00
O1238  O     0.50000   0.56012   0.87294   0.00000  Uiso   1.00
O1239  O     0.42495   0.50000   0.86379   0.00000  Uiso   1.00
O1240  O     0.57505   0.50000   0.80288   0.00000  Uiso   1.00
O1241  O     0.42494   0.49999   0.78460   0.00000  Uiso   1.00
O1242  O     0.57506   0.50001   0.88207   0.00000  Uiso   1.00
C1243  C     0.83309   0.42092   0.83315   0.00000  Uiso   1.00
C1244  C     0.78916   0.35373   0.84206   0.00000  Uiso   1.00
C1245  C     0.83360   0.62374   0.83376   0.00000  Uiso   1.00
C1246  C     0.83307   0.37626   0.83290   0.00000  Uiso   1.00
C1247  C     0.80154   0.47291   0.68635   0.00000  Uiso   1.00
C1248  C     0.86513   0.52709   0.98032   0.00000  Uiso   1.00
C1249  C     0.80167   0.47315   0.97013   0.00000  Uiso   1.00
C1250  C     0.86500   0.52685   0.69653   0.00000  Uiso   1.00
C1251  C     0.83357   0.57908   0.83351   0.00000  Uiso   1.00
C1252  C     0.73479   0.49936   0.82137   0.00000  Uiso   1.00
C1253  C     0.93188   0.50064   0.84529   0.00000  Uiso   1.00
C1254  C     0.67957   0.49463   0.81556   0.00000  Uiso   1.00
C1255  C     0.98709   0.50537   0.85111   0.00000  Uiso   1.00
C1256  C     0.87719   0.35642   0.82408   0.00000  Uiso   1.00
C1257  C     0.78948   0.64358   0.84259   0.00000  Uiso   1.00
C1258  C     0.87750   0.64627   0.82461   0.00000  Uiso   1.00
Cu1259 Cu    0.83333   0.50001   0.88022   0.00000  Uiso   1.00
Cu1260 Cu    0.83333   0.49999   0.78645   0.00000  Uiso   1.00
H1261  H     0.99663   0.49151   0.74447   0.00000  Uiso   1.00
H1262  H     0.95247   0.63390   0.84316   0.00000  Uiso   1.00
H1263  H     0.73449   0.36711   0.88216   0.00000  Uiso   1.00
H1264  H     0.71419   0.36610   0.82350   0.00000  Uiso   1.00
H1265  H     0.73074   0.45005   0.94380   0.00000  Uiso   1.00
H1266  H     0.77760   0.41467   0.94931   0.00000  Uiso   1.00
H1267  H     0.93592   0.54995   0.72287   0.00000  Uiso   1.00
H1268  H     0.88907   0.58533   0.71736   0.00000  Uiso   1.00
H1269  H     0.66728   0.44486   0.77155   0.00000  Uiso   1.00
H1270  H     0.67004   0.50849   0.92220   0.00000  Uiso   1.00
H1271  H     0.99938   0.55514   0.89512   0.00000  Uiso   1.00
H1272  H     0.95227   0.37409   0.84107   0.00000  Uiso   1.00
H1273  H     0.93050   0.37267   0.78261   0.00000  Uiso   1.00
H1274  H     0.71440   0.62592   0.82560   0.00000  Uiso   1.00
H1275  H     0.73617   0.62733   0.88406   0.00000  Uiso   1.00
H1276  H     0.93217   0.63289   0.78451   0.00000  Uiso   1.00
I1277  I     0.75043   0.42836   0.71148   0.00000  Uiso   1.00
I1278  I     0.91624   0.57164   0.95519   0.00000  Uiso   1.00
N1279  N     0.83335   0.50001   0.95069   0.00000  Uiso   1.00
N1280  N     0.89789   0.55492   0.72688   0.00000  Uiso   1.00
N1281  N     0.83332   0.49999   0.71597   0.00000  Uiso   1.00
N1282  N     0.98723   0.47486   0.77323   0.00000  Uiso   1.00
N1283  N     0.67943   0.52514   0.89344   0.00000  Uiso   1.00
N1284  N     0.92147   0.38082   0.81553   0.00000  Uiso   1.00
N1285  N     0.74520   0.61918   0.85113   0.00000  Uiso   1.00
N1286  N     0.92231   0.62464   0.81713   0.00000  Uiso   1.00
N1287  N     0.74436   0.37536   0.84954   0.00000  Uiso   1.00
N1288  N     0.76878   0.44508   0.93979   0.00000  Uiso   1.00
O1289  O     0.83333   0.43989   0.87291   0.00000  Uiso   1.00
O1290  O     0.83334   0.56011   0.79375   0.00000  Uiso   1.00
O1291  O     0.83333   0.43988   0.79372   0.00000  Uiso   1.00
O1292  O     0.83334   0.56012   0.87294   0.00000  Uiso   1.00
O1293  O     0.75828   0.50000   0.86379   0.00000  Uiso   1.00
O1294  O     0.90839   0.50000   0.80288   0.00000  Uiso   1.00
O1295  O     0.75828   0.49999   0.78460   0.00000  Uiso   1.00
O1296  O     0.90839   0.50001   0.88207   0.00000  Uiso   1.00
C1297  C     0.16642   0.75425   0.83315   0.00000  Uiso   1.00
C1298  C     0.12250   0.68706   0.84206   0.00000  Uiso   1.00
C1299  C     0.16693   0.95708   0.83376   0.00000  Uiso   1.00
C1300  C     0.16640   0.70959   0.83290   0.00000  Uiso   1.00
C1301  C     0.13487   0.80624   0.68635   0.00000  Uiso   1.00
C1302  C     0.19846   0.86043   0.98032   0.00000  Uiso   1.00
C1303  C     0.13500   0.80649   0.97013   0.00000  Uiso   1.00
C1304  C     0.19833   0.86018   0.69653   0.00000  Uiso   1.00
C1305  C     0.16691   0.91241   0.83351   0.00000  Uiso   1.00
C1306  C     0.06812   0.83269   0.82137   0.00000  Uiso   1.00
C1307  C     0.26521   0.83397   0.84529   0.00000  Uiso   1.00
C1308  C     0.01290   0.82796   0.81556   0.00000  Uiso   1.00
C1309  C     0.32043   0.83871   0.85111   0.00000  Uiso   1.00
C1310  C     0.21052   0.68975   0.82408   0.00000  Uiso   1.00
C1311  C     0.12281   0.97692   0.84259   0.00000  Uiso   1.00
C1312  C     0.21084   0.97960   0.82461   0.00000  Uiso   1.00
Cu1313 Cu    0.16667   0.83334   0.88022   0.00000  Uiso   1.00
Cu1314 Cu    0.16667   0.83333   0.78645   0.00000  Uiso   1.00
H1315  H     0.32996   0.82484   0.74447   0.00000  Uiso   1.00
H1316  H     0.28581   0.96724   0.84316   0.00000  Uiso   1.00
H1317  H     0.06783   0.70044   0.88216   0.00000  Uiso   1.00
H1318  H     0.04753   0.69943   0.82350   0.00000  Uiso   1.00
H1319  H     0.06408   0.78339   0.94380   0.00000  Uiso   1.00
H1320  H     0.11093   0.74801   0.94931   0.00000  Uiso   1.00
H1321  H     0.26926   0.88328   0.72287   0.00000  Uiso   1.00
H1322  H     0.22240   0.91866   0.71736   0.00000  Uiso   1.00
H1323  H     0.00062   0.77819   0.77155   0.00000  Uiso   1.00
H1324  H     0.00337   0.84183   0.92220   0.00000  Uiso   1.00
H1325  H     0.33272   0.88848   0.89512   0.00000  Uiso   1.00
H1326  H     0.28560   0.70742   0.84107   0.00000  Uiso   1.00
H1327  H     0.26383   0.70601   0.78261   0.00000  Uiso   1.00
H1328  H     0.04773   0.95925   0.82560   0.00000  Uiso   1.00
H1329  H     0.06950   0.96066   0.88406   0.00000  Uiso   1.00
H1330  H     0.26551   0.96623   0.78451   0.00000  Uiso   1.00
I1331  I     0.08376   0.76170   0.71148   0.00000  Uiso   1.00
I1332  I     0.24957   0.90497   0.95519   0.00000  Uiso   1.00
N1333  N     0.16668   0.83334   0.95069   0.00000  Uiso   1.00
N1334  N     0.23122   0.88825   0.72688   0.00000  Uiso   1.00
N1335  N     0.16665   0.83332   0.71597   0.00000  Uiso   1.00
N1336  N     0.32057   0.80819   0.77323   0.00000  Uiso   1.00
N1337  N     0.01277   0.85847   0.89344   0.00000  Uiso   1.00
N1338  N     0.25480   0.71416   0.81553   0.00000  Uiso   1.00
N1339  N     0.07853   0.95251   0.85113   0.00000  Uiso   1.00
N1340  N     0.25564   0.95797   0.81713   0.00000  Uiso   1.00
N1341  N     0.07769   0.70869   0.84954   0.00000  Uiso   1.00
N1342  N     0.10211   0.77842   0.93979   0.00000  Uiso   1.00
O1343  O     0.16666   0.77322   0.87291   0.00000  Uiso   1.00
O1344  O     0.16667   0.89345   0.79375   0.00000  Uiso   1.00
O1345  O     0.16666   0.77321   0.79372   0.00000  Uiso   1.00
O1346  O     0.16667   0.89346   0.87294   0.00000  Uiso   1.00
O1347  O     0.09161   0.83334   0.86379   0.00000  Uiso   1.00
O1348  O     0.24172   0.83333   0.80288   0.00000  Uiso   1.00
O1349  O     0.09161   0.83333   0.78460   0.00000  Uiso   1.00
O1350  O     0.24172   0.83334   0.88207   0.00000  Uiso   1.00
C1351  C     0.49976   0.75425   0.83315   0.00000  Uiso   1.00
C1352  C     0.45583   0.68706   0.84206   0.00000  Uiso   1.00
C1353  C     0.50026   0.95708   0.83376   0.00000  Uiso   1.00
C1354  C     0.49974   0.70959   0.83290   0.00000  Uiso   1.00
C1355  C     0.46821   0.80624   0.68635   0.00000  Uiso   1.00
C1356  C     0.53179   0.86043   0.98032   0.00000  Uiso   1.00
C1357  C     0.46833   0.80649   0.97013   0.00000  Uiso   1.00
C1358  C     0.53166   0.86018   0.69653   0.00000  Uiso   1.00
C1359  C     0.50024   0.91241   0.83351   0.00000  Uiso   1.00
C1360  C     0.40145   0.83269   0.82137   0.00000  Uiso   1.00
C1361  C     0.59855   0.83397   0.84529   0.00000  Uiso   1.00
C1362  C     0.34624   0.82796   0.81556   0.00000  Uiso   1.00
C1363  C     0.65376   0.83871   0.85111   0.00000  Uiso   1.00
C1364  C     0.54386   0.68975   0.82408   0.00000  Uiso   1.00
C1365  C     0.45614   0.97692   0.84259   0.00000  Uiso   1.00
C1366  C     0.54417   0.97960   0.82461   0.00000  Uiso   1.00
Cu1367 Cu    0.50000   0.83334   0.88022   0.00000  Uiso   1.00
Cu1368 Cu    0.50000   0.83333   0.78645   0.00000  Uiso   1.00
H1369  H     0.66329   0.82484   0.74447   0.00000  Uiso   1.00
H1370  H     0.61914   0.96724   0.84316   0.00000  Uiso   1.00
H1371  H     0.40116   0.70044   0.88216   0.00000  Uiso   1.00
H1372  H     0.38086   0.69943   0.82350   0.00000  Uiso   1.00
H1373  H     0.39741   0.78339   0.94380   0.00000  Uiso   1.00
H1374  H     0.44427   0.74801   0.94931   0.00000  Uiso   1.00
H1375  H     0.60259   0.88328   0.72287   0.00000  Uiso   1.00
H1376  H     0.55573   0.91866   0.71736   0.00000  Uiso   1.00
H1377  H     0.33395   0.77819   0.77155   0.00000  Uiso   1.00
H1378  H     0.33671   0.84183   0.92220   0.00000  Uiso   1.00
H1379  H     0.66605   0.88848   0.89512   0.00000  Uiso   1.00
H1380  H     0.61894   0.70742   0.84107   0.00000  Uiso   1.00
H1381  H     0.59717   0.70601   0.78261   0.00000  Uiso   1.00
H1382  H     0.38106   0.95925   0.82560   0.00000  Uiso   1.00
H1383  H     0.40283   0.96066   0.88406   0.00000  Uiso   1.00
H1384  H     0.59884   0.96623   0.78451   0.00000  Uiso   1.00
I1385  I     0.41709   0.76170   0.71148   0.00000  Uiso   1.00
I1386  I     0.58291   0.90497   0.95519   0.00000  Uiso   1.00
N1387  N     0.50001   0.83334   0.95069   0.00000  Uiso   1.00
N1388  N     0.56456   0.88825   0.72688   0.00000  Uiso   1.00
N1389  N     0.49999   0.83332   0.71597   0.00000  Uiso   1.00
N1390  N     0.65390   0.80819   0.77323   0.00000  Uiso   1.00
N1391  N     0.34610   0.85847   0.89344   0.00000  Uiso   1.00
N1392  N     0.58814   0.71416   0.81553   0.00000  Uiso   1.00
N1393  N     0.41186   0.95251   0.85113   0.00000  Uiso   1.00
N1394  N     0.58897   0.95797   0.81713   0.00000  Uiso   1.00
N1395  N     0.41103   0.70869   0.84954   0.00000  Uiso   1.00
N1396  N     0.43544   0.77842   0.93979   0.00000  Uiso   1.00
O1397  O     0.50000   0.77322   0.87291   0.00000  Uiso   1.00
O1398  O     0.50000   0.89345   0.79375   0.00000  Uiso   1.00
O1399  O     0.50000   0.77321   0.79372   0.00000  Uiso   1.00
O1400  O     0.50000   0.89346   0.87294   0.00000  Uiso   1.00
O1401  O     0.42495   0.83334   0.86379   0.00000  Uiso   1.00
O1402  O     0.57505   0.83333   0.80288   0.00000  Uiso   1.00
O1403  O     0.42494   0.83333   0.78460   0.00000  Uiso   1.00
O1404  O     0.57506   0.83334   0.88207   0.00000  Uiso   1.00
C1405  C     0.83309   0.75425   0.83315   0.00000  Uiso   1.00
C1406  C     0.78916   0.68706   0.84206   0.00000  Uiso   1.00
C1407  C     0.83360   0.95708   0.83376   0.00000  Uiso   1.00
C1408  C     0.83307   0.70959   0.83290   0.00000  Uiso   1.00
C1409  C     0.80154   0.80624   0.68635   0.00000  Uiso   1.00
C1410  C     0.86513   0.86043   0.98032   0.00000  Uiso   1.00
C1411  C     0.80167   0.80649   0.97013   0.00000  Uiso   1.00
C1412  C     0.86500   0.86018   0.69653   0.00000  Uiso   1.00
C1413  C     0.83357   0.91241   0.83351   0.00000  Uiso   1.00
C1414  C     0.73479   0.83269   0.82137   0.00000  Uiso   1.00
C1415  C     0.93188   0.83397   0.84529   0.00000  Uiso   1.00
C1416  C     0.67957   0.82796   0.81556   0.00000  Uiso   1.00
C1417  C     0.98709   0.83871   0.85111   0.00000  Uiso   1.00
C1418  C     0.87719   0.68975   0.82408   0.00000  Uiso   1.00
C1419  C     0.78948   0.97692   0.84259   0.00000  Uiso   1.00
C1420  C     0.87750   0.97960   0.82461   0.00000  Uiso   1.00
Cu1421 Cu    0.83333   0.83334   0.88022   0.00000  Uiso   1.00
Cu1422 Cu    0.83333   0.83333   0.78645   0.00000  Uiso   1.00
H1423  H     0.99663   0.82484   0.74447   0.00000  Uiso   1.00
H1424  H     0.95247   0.96724   0.84316   0.00000  Uiso   1.00
H1425  H     0.73449   0.70044   0.88216   0.00000  Uiso   1.00
H1426  H     0.71419   0.69943   0.82350   0.00000  Uiso   1.00
H1427  H     0.73074   0.78339   0.94380   0.00000  Uiso   1.00
H1428  H     0.77760   0.74801   0.94931   0.00000  Uiso   1.00
H1429  H     0.93592   0.88328   0.72287   0.00000  Uiso   1.00
H1430  H     0.88907   0.91866   0.71736   0.00000  Uiso   1.00
H1431  H     0.66728   0.77819   0.77155   0.00000  Uiso   1.00
H1432  H     0.67004   0.84183   0.92220   0.00000  Uiso   1.00
H1433  H     0.99938   0.88848   0.89512   0.00000  Uiso   1.00
H1434  H     0.95227   0.70742   0.84107   0.00000  Uiso   1.00
H1435  H     0.93050   0.70601   0.78261   0.00000  Uiso   1.00
H1436  H     0.71440   0.95925   0.82560   0.00000  Uiso   1.00
H1437  H     0.73617   0.96066   0.88406   0.00000  Uiso   1.00
H1438  H     0.93217   0.96623   0.78451   0.00000  Uiso   1.00
I1439  I     0.75043   0.76170   0.71148   0.00000  Uiso   1.00
I1440  I     0.91624   0.90497   0.95519   0.00000  Uiso   1.00
N1441  N     0.83335   0.83334   0.95069   0.00000  Uiso   1.00
N1442  N     0.89789   0.88825   0.72688   0.00000  Uiso   1.00
N1443  N     0.83332   0.83332   0.71597   0.00000  Uiso   1.00
N1444  N     0.98723   0.80819   0.77323   0.00000  Uiso   1.00
N1445  N     0.67943   0.85847   0.89344   0.00000  Uiso   1.00
N1446  N     0.92147   0.71416   0.81553   0.00000  Uiso   1.00
N1447  N     0.74520   0.95251   0.85113   0.00000  Uiso   1.00
N1448  N     0.92231   0.95797   0.81713   0.00000  Uiso   1.00
N1449  N     0.74436   0.70869   0.84954   0.00000  Uiso   1.00
N1450  N     0.76878   0.77842   0.93979   0.00000  Uiso   1.00
O1451  O     0.83333   0.77322   0.87291   0.00000  Uiso   1.00
O1452  O     0.83334   0.89345   0.79375   0.00000  Uiso   1.00
O1453  O     0.83333   0.77321   0.79372   0.00000  Uiso   1.00
O1454  O     0.83334   0.89346   0.87294   0.00000  Uiso   1.00
O1455  O     0.75828   0.83334   0.86379   0.00000  Uiso   1.00
O1456  O     0.90839   0.83333   0.80288   0.00000  Uiso   1.00
O1457  O     0.75828   0.83333   0.78460   0.00000  Uiso   1.00
O1458  O     0.90839   0.83334   0.88207   0.00000  Uiso   1.00
loop_
_geom_bond_atom_site_label_1
_geom_bond_atom_site_label_2
_geom_bond_distance
_geom_bond_site_symmetry_2
_ccdc_geom_bond_type
C1     C4      1.439   .     S
C1     O47     1.294   .     A
C1     O49     1.295   .     A
C2     C4      1.403   .     A
C2     N45     1.436   .     S
C2     C339    1.402   1_545 S
C3     C9      1.439   .     S
C3     C15     1.403   .     A
C3     C16     1.403   .     A
C4     C14     1.403   .     A
C5     I35     2.136   .     S
C5     N39     1.386   .     A
C5     C979    1.428   1_554 S
C6     N37     1.386   .     A
C6     I36     2.136   .     S
C6     C494    1.428   .     S
C7     N37     1.361   .     A
C7     N46     1.431   .     S
C7     C491    1.428   .     S
C8     N39     1.361   .     A
C8     N38     1.431   .     S
C8     C978    1.428   1_554 S
C9     O50     1.295   .     A
C9     O48     1.294   .     A
C10    C12     1.445   .     S
C10    O51     1.288   .     A
C10    O53     1.303   .     A
C11    C13     1.445   .     S
C11    O54     1.303   .     A
C11    O52     1.288   .     A
C12    C121    1.359   1_455 S
C12    N148    1.439   1_455 S
C13    C66     1.359   .     S
C13    N95     1.439   .     S
C14    N42     1.436   .     S
C14    C340    1.402   1_545 S
C15    N43     1.436   .     S
C15    C164    1.402   .     S
C16    N44     1.436   .     S
C16    C176    1.402   .     S
Cu17   O50     1.950   .     S
Cu17   O51     1.969   .     S
Cu17   Cu18    2.702   .     S
Cu17   N37     2.031   .     S
Cu17   O54     1.974   .     S
Cu17   O47     1.947   .     S
Cu18   N39     2.031   .     S
Cu18   O52     1.969   .     S
Cu18   O53     1.974   .     S
Cu18   O49     1.950   .     S
Cu18   O48     1.947   .     S
H19    N40     1.045   .     S
H20    N44     1.045   .     S
H21    N45     1.045   .     S
H22    N45     1.045   .     S
H23    N46     1.045   .     S
H24    N46     1.045   .     S
H25    N38     1.045   .     S
H26    N38     1.045   .     S
H27    N148    1.045   1_455 S
H28    N41     1.045   .     S
H29    N95     1.045   .     S
H30    N42     1.045   .     S
H31    N42     1.045   .     S
H32    N43     1.045   .     S
H33    N43     1.045   .     S
H34    N44     1.045   .     S
N40    C66     1.439   .     S
N40    H81     1.045   .     S
N41    H137    1.045   1_455 S
N41    C121    1.439   1_455 S
C55    C58     1.439   .     S
C55    O101    1.294   .     A
C55    O103    1.295   .     A
C56    C58     1.403   .     A
C56    N99     1.436   .     S
C56    C393    1.402   1_545 S
C57    C63     1.439   .     S
C57    C69     1.403   .     A
C57    C70     1.403   .     A
C58    C68     1.403   .     A
C59    I89     2.136   .     S
C59    N93     1.386   .     A
C59    C1033   1.428   1_554 S
C60    N91     1.386   .     A
C60    I90     2.136   .     S
C60    C548    1.428   .     S
C61    N91     1.361   .     A
C61    N100    1.431   .     S
C61    C545    1.428   .     S
C62    N93     1.361   .     A
C62    N92     1.431   .     S
C62    C1032   1.428   1_554 S
C63    O104    1.295   .     A
C63    O102    1.294   .     A
C64    C66     1.445   .     S
C64    O105    1.288   .     A
C64    O107    1.303   .     A
C65    C67     1.445   .     S
C65    O108    1.303   .     A
C65    O106    1.288   .     A
C67    C120    1.359   .     S
C67    N149    1.439   .     S
C68    N96     1.436   .     S
C68    C394    1.402   1_545 S
C69    N97     1.436   .     S
C69    C218    1.402   .     S
C70    N98     1.436   .     S
C70    C230    1.402   .     S
Cu71   O104    1.950   .     S
Cu71   O105    1.969   .     S
Cu71   Cu72    2.702   .     S
Cu71   N91     2.031   .     S
Cu71   O108    1.974   .     S
Cu71   O101    1.947   .     S
Cu72   N93     2.031   .     S
Cu72   O106    1.969   .     S
Cu72   O107    1.974   .     S
Cu72   O103    1.950   .     S
Cu72   O102    1.947   .     S
H73    N94     1.045   .     S
H74    N98     1.045   .     S
H75    N99     1.045   .     S
H76    N99     1.045   .     S
H77    N100    1.045   .     S
H78    N100    1.045   .     S
H79    N92     1.045   .     S
H80    N92     1.045   .     S
H82    N95     1.045   .     S
H83    N149    1.045   .     S
H84    N96     1.045   .     S
H85    N96     1.045   .     S
H86    N97     1.045   .     S
H87    N97     1.045   .     S
H88    N98     1.045   .     S
N94    C120    1.439   .     S
N94    H135    1.045   .     S
C109   C112    1.439   .     S
C109   O155    1.294   .     A
C109   O157    1.295   .     A
C110   C112    1.403   .     A
C110   N153    1.436   .     S
C110   C447    1.402   1_545 S
C111   C117    1.439   .     S
C111   C123    1.403   .     A
C111   C124    1.403   .     A
C112   C122    1.403   .     A
C113   I143    2.136   .     S
C113   N147    1.386   .     A
C113   C1087   1.428   1_554 S
C114   N145    1.386   .     A
C114   I144    2.136   .     S
C114   C602    1.428   .     S
C115   N145    1.361   .     A
C115   N154    1.431   .     S
C115   C599    1.428   .     S
C116   N147    1.361   .     A
C116   N146    1.431   .     S
C116   C1086   1.428   1_554 S
C117   O158    1.295   .     A
C117   O156    1.294   .     A
C118   C120    1.445   .     S
C118   O159    1.288   .     A
C118   O161    1.303   .     A
C119   C121    1.445   .     S
C119   O162    1.303   .     A
C119   O160    1.288   .     A
C121   C12     1.359   1_655 S
C121   N41     1.439   1_655 S
C122   N150    1.436   .     S
C122   C448    1.402   1_545 S
C123   N151    1.436   .     S
C123   C272    1.402   .     S
C124   N152    1.436   .     S
C124   C284    1.402   .     S
Cu125  O158    1.950   .     S
Cu125  O159    1.969   .     S
Cu125  Cu126   2.702   .     S
Cu125  N145    2.031   .     S
Cu125  O162    1.974   .     S
Cu125  O155    1.947   .     S
Cu126  N147    2.031   .     S
Cu126  O160    1.969   .     S
Cu126  O161    1.974   .     S
Cu126  O157    1.950   .     S
Cu126  O156    1.947   .     S
H127   N148    1.045   .     S
H128   N152    1.045   .     S
H129   N153    1.045   .     S
H130   N153    1.045   .     S
H131   N154    1.045   .     S
H132   N154    1.045   .     S
H133   N146    1.045   .     S
H134   N146    1.045   .     S
H136   N149    1.045   .     S
H137   N41     1.045   1_655 S
H138   N150    1.045   .     S
H139   N150    1.045   .     S
H140   N151    1.045   .     S
H141   N151    1.045   .     S
H142   N152    1.045   .     S
N148   C12     1.439   1_655 S
N148   H27     1.045   1_655 S
C163   C166    1.439   .     S
C163   O209    1.294   .     A
C163   O211    1.295   .     A
C164   C166    1.403   .     A
C164   N207    1.436   .     S
C165   C171    1.439   .     S
C165   C177    1.403   .     A
C165   C178    1.403   .     A
C166   C176    1.403   .     A
C167   I197    2.136   .     S
C167   N201    1.386   .     A
C167   C1141   1.428   1_554 S
C168   N199    1.386   .     A
C168   I198    2.136   .     S
C168   C656    1.428   .     S
C169   N199    1.361   .     A
C169   N208    1.431   .     S
C169   C653    1.428   .     S
C170   N201    1.361   .     A
C170   N200    1.431   .     S
C170   C1140   1.428   1_554 S
C171   O212    1.295   .     A
C171   O210    1.294   .     A
C172   C174    1.445   .     S
C172   O213    1.288   .     A
C172   O215    1.303   .     A
C173   C175    1.445   .     S
C173   O216    1.303   .     A
C173   O214    1.288   .     A
C174   C283    1.359   1_455 S
C174   N310    1.439   1_455 S
C175   C228    1.359   .     S
C175   N257    1.439   .     S
C176   N204    1.436   .     S
C177   N205    1.436   .     S
C177   C326    1.402   .     S
C178   N206    1.436   .     S
C178   C338    1.402   .     S
Cu179  O212    1.950   .     S
Cu179  O213    1.969   .     S
Cu179  Cu180   2.702   .     S
Cu179  N199    2.031   .     S
Cu179  O216    1.974   .     S
Cu179  O209    1.947   .     S
Cu180  N201    2.031   .     S
Cu180  O214    1.969   .     S
Cu180  O215    1.974   .     S
Cu180  O211    1.950   .     S
Cu180  O210    1.947   .     S
H181   N202    1.045   .     S
H182   N206    1.045   .     S
H183   N207    1.045   .     S
H184   N207    1.045   .     S
H185   N208    1.045   .     S
H186   N208    1.045   .     S
H187   N200    1.045   .     S
H188   N200    1.045   .     S
H189   N310    1.045   1_455 S
H190   N203    1.045   .     S
H191   N257    1.045   .     S
H192   N204    1.045   .     S
H193   N204    1.045   .     S
H194   N205    1.045   .     S
H195   N205    1.045   .     S
H196   N206    1.045   .     S
N202   C228    1.439   .     S
N202   H243    1.045   .     S
N203   H299    1.045   1_455 S
N203   C283    1.439   1_455 S
C217   C220    1.439   .     S
C217   O263    1.294   .     A
C217   O265    1.295   .     A
C218   C220    1.403   .     A
C218   N261    1.436   .     S
C219   C225    1.439   .     S
C219   C231    1.403   .     A
C219   C232    1.403   .     A
C220   C230    1.403   .     A
C221   I251    2.136   .     S
C221   N255    1.386   .     A
C221   C1195   1.428   1_554 S
C222   N253    1.386   .     A
C222   I252    2.136   .     S
C222   C710    1.428   .     S
C223   N253    1.361   .     A
C223   N262    1.431   .     S
C223   C707    1.428   .     S
C224   N255    1.361   .     A
C224   N254    1.431   .     S
C224   C1194   1.428   1_554 S
C225   O266    1.295   .     A
C225   O264    1.294   .     A
C226   C228    1.445   .     S
C226   O267    1.288   .     A
C226   O269    1.303   .     A
C227   C229    1.445   .     S
C227   O270    1.303   .     A
C227   O268    1.288   .     A
C229   C282    1.359   .     S
C229   N311    1.439   .     S
C230   N258    1.436   .     S
C231   N259    1.436   .     S
C231   C380    1.402   .     S
C232   N260    1.436   .     S
C232   C392    1.402   .     S
Cu233  O266    1.950   .     S
Cu233  O267    1.969   .     S
Cu233  Cu234   2.702   .     S
Cu233  N253    2.031   .     S
Cu233  O270    1.974   .     S
Cu233  O263    1.947   .     S
Cu234  N255    2.031   .     S
Cu234  O268    1.969   .     S
Cu234  O269    1.974   .     S
Cu234  O265    1.950   .     S
Cu234  O264    1.947   .     S
H235   N256    1.045   .     S
H236   N260    1.045   .     S
H237   N261    1.045   .     S
H238   N261    1.045   .     S
H239   N262    1.045   .     S
H240   N262    1.045   .     S
H241   N254    1.045   .     S
H242   N254    1.045   .     S
H244   N257    1.045   .     S
H245   N311    1.045   .     S
H246   N258    1.045   .     S
H247   N258    1.045   .     S
H248   N259    1.045   .     S
H249   N259    1.045   .     S
H250   N260    1.045   .     S
N256   C282    1.439   .     S
N256   H297    1.045   .     S
C271   C274    1.439   .     S
C271   O317    1.294   .     A
C271   O319    1.295   .     A
C272   C274    1.403   .     A
C272   N315    1.436   .     S
C273   C279    1.439   .     S
C273   C285    1.403   .     A
C273   C286    1.403   .     A
C274   C284    1.403   .     A
C275   I305    2.136   .     S
C275   N309    1.386   .     A
C275   C1249   1.428   1_554 S
C276   N307    1.386   .     A
C276   I306    2.136   .     S
C276   C764    1.428   .     S
C277   N307    1.361   .     A
C277   N316    1.431   .     S
C277   C761    1.428   .     S
C278   N309    1.361   .     A
C278   N308    1.431   .     S
C278   C1248   1.428   1_554 S
C279   O320    1.295   .     A
C279   O318    1.294   .     A
C280   C282    1.445   .     S
C280   O321    1.288   .     A
C280   O323    1.303   .     A
C281   C283    1.445   .     S
C281   O324    1.303   .     A
C281   O322    1.288   .     A
C283   C174    1.359   1_655 S
C283   N203    1.439   1_655 S
C284   N312    1.436   .     S
C285   N313    1.436   .     S
C285   C434    1.402   .     S
C286   N314    1.436   .     S
C286   C446    1.402   .     S
Cu287  O320    1.950   .     S
Cu287  O321    1.969   .     S
Cu287  Cu288   2.702   .     S
Cu287  N307    2.031   .     S
Cu287  O324    1.974   .     S
Cu287  O317    1.947   .     S
Cu288  N309    2.031   .     S
Cu288  O322    1.969   .     S
Cu288  O323    1.974   .     S
Cu288  O319    1.950   .     S
Cu288  O318    1.947   .     S
H289   N310    1.045   .     S
H290   N314    1.045   .     S
H291   N315    1.045   .     S
H292   N315    1.045   .     S
H293   N316    1.045   .     S
H294   N316    1.045   .     S
H295   N308    1.045   .     S
H296   N308    1.045   .     S
H298   N311    1.045   .     S
H299   N203    1.045   1_655 S
H300   N312    1.045   .     S
H301   N312    1.045   .     S
H302   N313    1.045   .     S
H303   N313    1.045   .     S
H304   N314    1.045   .     S
N310   C174    1.439   1_655 S
N310   H189    1.045   1_655 S
C325   C328    1.439   .     S
C325   O371    1.294   .     A
C325   O373    1.295   .     A
C326   C328    1.403   .     A
C326   N369    1.436   .     S
C327   C333    1.439   .     S
C327   C339    1.403   .     A
C327   C340    1.403   .     A
C328   C338    1.403   .     A
C329   I359    2.136   .     S
C329   N363    1.386   .     A
C329   C1303   1.428   1_554 S
C330   N361    1.386   .     A
C330   I360    2.136   .     S
C330   C818    1.428   .     S
C331   N361    1.361   .     A
C331   N370    1.431   .     S
C331   C815    1.428   .     S
C332   N363    1.361   .     A
C332   N362    1.431   .     S
C332   C1302   1.428   1_554 S
C333   O374    1.295   .     A
C333   O372    1.294   .     A
C334   C336    1.445   .     S
C334   O375    1.288   .     A
C334   O377    1.303   .     A
C335   C337    1.445   .     S
C335   O378    1.303   .     A
C335   O376    1.288   .     A
C336   C445    1.359   1_455 S
C336   N472    1.439   1_455 S
C337   C390    1.359   .     S
C337   N419    1.439   .     S
C338   N366    1.436   .     S
C339   N367    1.436   .     S
C339   C2      1.402   1_565 S
C340   N368    1.436   .     S
C340   C14     1.402   1_565 S
Cu341  O374    1.950   .     S
Cu341  O375    1.969   .     S
Cu341  Cu342   2.702   .     S
Cu341  N361    2.031   .     S
Cu341  O378    1.974   .     S
Cu341  O371    1.947   .     S
Cu342  N363    2.031   .     S
Cu342  O376    1.969   .     S
Cu342  O377    1.974   .     S
Cu342  O373    1.950   .     S
Cu342  O372    1.947   .     S
H343   N364    1.045   .     S
H344   N368    1.045   .     S
H345   N369    1.045   .     S
H346   N369    1.045   .     S
H347   N370    1.045   .     S
H348   N370    1.045   .     S
H349   N362    1.045   .     S
H350   N362    1.045   .     S
H351   N472    1.045   1_455 S
H352   N365    1.045   .     S
H353   N419    1.045   .     S
H354   N366    1.045   .     S
H355   N366    1.045   .     S
H356   N367    1.045   .     S
H357   N367    1.045   .     S
H358   N368    1.045   .     S
N364   C390    1.439   .     S
N364   H405    1.045   .     S
N365   H461    1.045   1_455 S
N365   C445    1.439   1_455 S
C379   C382    1.439   .     S
C379   O425    1.294   .     A
C379   O427    1.295   .     A
C380   C382    1.403   .     A
C380   N423    1.436   .     S
C381   C387    1.439   .     S
C381   C393    1.403   .     A
C381   C394    1.403   .     A
C382   C392    1.403   .     A
C383   I413    2.136   .     S
C383   N417    1.386   .     A
C383   C1357   1.428   1_554 S
C384   N415    1.386   .     A
C384   I414    2.136   .     S
C384   C872    1.428   .     S
C385   N415    1.361   .     A
C385   N424    1.431   .     S
C385   C869    1.428   .     S
C386   N417    1.361   .     A
C386   N416    1.431   .     S
C386   C1356   1.428   1_554 S
C387   O428    1.295   .     A
C387   O426    1.294   .     A
C388   C390    1.445   .     S
C388   O429    1.288   .     A
C388   O431    1.303   .     A
C389   C391    1.445   .     S
C389   O432    1.303   .     A
C389   O430    1.288   .     A
C391   C444    1.359   .     S
C391   N473    1.439   .     S
C392   N420    1.436   .     S
C393   N421    1.436   .     S
C393   C56     1.402   1_565 S
C394   N422    1.436   .     S
C394   C68     1.402   1_565 S
Cu395  O428    1.950   .     S
Cu395  O429    1.969   .     S
Cu395  Cu396   2.702   .     S
Cu395  N415    2.031   .     S
Cu395  O432    1.974   .     S
Cu395  O425    1.947   .     S
Cu396  N417    2.031   .     S
Cu396  O430    1.969   .     S
Cu396  O431    1.974   .     S
Cu396  O427    1.950   .     S
Cu396  O426    1.947   .     S
H397   N418    1.045   .     S
H398   N422    1.045   .     S
H399   N423    1.045   .     S
H400   N423    1.045   .     S
H401   N424    1.045   .     S
H402   N424    1.045   .     S
H403   N416    1.045   .     S
H404   N416    1.045   .     S
H406   N419    1.045   .     S
H407   N473    1.045   .     S
H408   N420    1.045   .     S
H409   N420    1.045   .     S
H410   N421    1.045   .     S
H411   N421    1.045   .     S
H412   N422    1.045   .     S
N418   C444    1.439   .     S
N418   H459    1.045   .     S
C433   C436    1.439   .     S
C433   O479    1.294   .     A
C433   O481    1.295   .     A
C434   C436    1.403   .     A
C434   N477    1.436   .     S
C435   C441    1.439   .     S
C435   C447    1.403   .     A
C435   C448    1.403   .     A
C436   C446    1.403   .     A
C437   I467    2.136   .     S
C437   N471    1.386   .     A
C437   C1411   1.428   1_554 S
C438   N469    1.386   .     A
C438   I468    2.136   .     S
C438   C926    1.428   .     S
C439   N469    1.361   .     A
C439   N478    1.431   .     S
C439   C923    1.428   .     S
C440   N471    1.361   .     A
C440   N470    1.431   .     S
C440   C1410   1.428   1_554 S
C441   O482    1.295   .     A
C441   O480    1.294   .     A
C442   C444    1.445   .     S
C442   O483    1.288   .     A
C442   O485    1.303   .     A
C443   C445    1.445   .     S
C443   O486    1.303   .     A
C443   O484    1.288   .     A
C445   C336    1.359   1_655 S
C445   N365    1.439   1_655 S
C446   N474    1.436   .     S
C447   N475    1.436   .     S
C447   C110    1.402   1_565 S
C448   N476    1.436   .     S
C448   C122    1.402   1_565 S
Cu449  O482    1.950   .     S
Cu449  O483    1.969   .     S
Cu449  Cu450   2.702   .     S
Cu449  N469    2.031   .     S
Cu449  O486    1.974   .     S
Cu449  O479    1.947   .     S
Cu450  N471    2.031   .     S
Cu450  O484    1.969   .     S
Cu450  O485    1.974   .     S
Cu450  O481    1.950   .     S
Cu450  O480    1.947   .     S
H451   N472    1.045   .     S
H452   N476    1.045   .     S
H453   N477    1.045   .     S
H454   N477    1.045   .     S
H455   N478    1.045   .     S
H456   N478    1.045   .     S
H457   N470    1.045   .     S
H458   N470    1.045   .     S
H460   N473    1.045   .     S
H461   N365    1.045   1_655 S
H462   N474    1.045   .     S
H463   N474    1.045   .     S
H464   N475    1.045   .     S
H465   N475    1.045   .     S
H466   N476    1.045   .     S
N472   C336    1.439   1_655 S
N472   H351    1.045   1_655 S
C487   C490    1.439   .     S
C487   O533    1.294   .     A
C487   O535    1.295   .     A
C488   C490    1.403   .     A
C488   N531    1.436   .     S
C488   C825    1.402   1_545 S
C489   C495    1.439   .     S
C489   C501    1.403   .     A
C489   C502    1.403   .     A
C490   C500    1.403   .     A
C491   I521    2.136   .     S
C491   N525    1.386   .     A
C492   N523    1.386   .     A
C492   I522    2.136   .     S
C492   C980    1.428   .     S
C493   N523    1.361   .     A
C493   N532    1.431   .     S
C493   C977    1.428   .     S
C494   N525    1.361   .     A
C494   N524    1.431   .     S
C495   O536    1.295   .     A
C495   O534    1.294   .     A
C496   C498    1.445   .     S
C496   O537    1.288   .     A
C496   O539    1.303   .     A
C497   C499    1.445   .     S
C497   O540    1.303   .     A
C497   O538    1.288   .     A
C498   C607    1.359   1_455 S
C498   N634    1.439   1_455 S
C499   C552    1.359   .     S
C499   N581    1.439   .     S
C500   N528    1.436   .     S
C500   C826    1.402   1_545 S
C501   N529    1.436   .     S
C501   C650    1.402   .     S
C502   N530    1.436   .     S
C502   C662    1.402   .     S
Cu503  O536    1.950   .     S
Cu503  O537    1.969   .     S
Cu503  Cu504   2.702   .     S
Cu503  N523    2.031   .     S
Cu503  O540    1.974   .     S
Cu503  O533    1.947   .     S
Cu504  N525    2.031   .     S
Cu504  O538    1.969   .     S
Cu504  O539    1.974   .     S
Cu504  O535    1.950   .     S
Cu504  O534    1.947   .     S
H505   N526    1.045   .     S
H506   N530    1.045   .     S
H507   N531    1.045   .     S
H508   N531    1.045   .     S
H509   N532    1.045   .     S
H510   N532    1.045   .     S
H511   N524    1.045   .     S
H512   N524    1.045   .     S
H513   N634    1.045   1_455 S
H514   N527    1.045   .     S
H515   N581    1.045   .     S
H516   N528    1.045   .     S
H517   N528    1.045   .     S
H518   N529    1.045   .     S
H519   N529    1.045   .     S
H520   N530    1.045   .     S
N526   C552    1.439   .     S
N526   H567    1.045   .     S
N527   H623    1.045   1_455 S
N527   C607    1.439   1_455 S
C541   C544    1.439   .     S
C541   O587    1.294   .     A
C541   O589    1.295   .     A
C542   C544    1.403   .     A
C542   N585    1.436   .     S
C542   C879    1.402   1_545 S
C543   C549    1.439   .     S
C543   C555    1.403   .     A
C543   C556    1.403   .     A
C544   C554    1.403   .     A
C545   I575    2.136   .     S
C545   N579    1.386   .     A
C546   N577    1.386   .     A
C546   I576    2.136   .     S
C546   C1034   1.428   .     S
C547   N577    1.361   .     A
C547   N586    1.431   .     S
C547   C1031   1.428   .     S
C548   N579    1.361   .     A
C548   N578    1.431   .     S
C549   O590    1.295   .     A
C549   O588    1.294   .     A
C550   C552    1.445   .     S
C550   O591    1.288   .     A
C550   O593    1.303   .     A
C551   C553    1.445   .     S
C551   O594    1.303   .     A
C551   O592    1.288   .     A
C553   C606    1.359   .     S
C553   N635    1.439   .     S
C554   N582    1.436   .     S
C554   C880    1.402   1_545 S
C555   N583    1.436   .     S
C555   C704    1.402   .     S
C556   N584    1.436   .     S
C556   C716    1.402   .     S
Cu557  O590    1.950   .     S
Cu557  O591    1.969   .     S
Cu557  Cu558   2.702   .     S
Cu557  N577    2.031   .     S
Cu557  O594    1.974   .     S
Cu557  O587    1.947   .     S
Cu558  N579    2.031   .     S
Cu558  O592    1.969   .     S
Cu558  O593    1.974   .     S
Cu558  O589    1.950   .     S
Cu558  O588    1.947   .     S
H559   N580    1.045   .     S
H560   N584    1.045   .     S
H561   N585    1.045   .     S
H562   N585    1.045   .     S
H563   N586    1.045   .     S
H564   N586    1.045   .     S
H565   N578    1.045   .     S
H566   N578    1.045   .     S
H568   N581    1.045   .     S
H569   N635    1.045   .     S
H570   N582    1.045   .     S
H571   N582    1.045   .     S
H572   N583    1.045   .     S
H573   N583    1.045   .     S
H574   N584    1.045   .     S
N580   C606    1.439   .     S
N580   H621    1.045   .     S
C595   C598    1.439   .     S
C595   O641    1.294   .     A
C595   O643    1.295   .     A
C596   C598    1.403   .     A
C596   N639    1.436   .     S
C596   C933    1.402   1_545 S
C597   C603    1.439   .     S
C597   C609    1.403   .     A
C597   C610    1.403   .     A
C598   C608    1.403   .     A
C599   I629    2.136   .     S
C599   N633    1.386   .     A
C600   N631    1.386   .     A
C600   I630    2.136   .     S
C600   C1088   1.428   .     S
C601   N631    1.361   .     A
C601   N640    1.431   .     S
C601   C1085   1.428   .     S
C602   N633    1.361   .     A
C602   N632    1.431   .     S
C603   O644    1.295   .     A
C603   O642    1.294   .     A
C604   C606    1.445   .     S
C604   O645    1.288   .     A
C604   O647    1.303   .     A
C605   C607    1.445   .     S
C605   O648    1.303   .     A
C605   O646    1.288   .     A
C607   C498    1.359   1_655 S
C607   N527    1.439   1_655 S
C608   N636    1.436   .     S
C608   C934    1.402   1_545 S
C609   N637    1.436   .     S
C609   C758    1.402   .     S
C610   N638    1.436   .     S
C610   C770    1.402   .     S
Cu611  O644    1.950   .     S
Cu611  O645    1.969   .     S
Cu611  Cu612   2.702   .     S
Cu611  N631    2.031   .     S
Cu611  O648    1.974   .     S
Cu611  O641    1.947   .     S
Cu612  N633    2.031   .     S
Cu612  O646    1.969   .     S
Cu612  O647    1.974   .     S
Cu612  O643    1.950   .     S
Cu612  O642    1.947   .     S
H613   N634    1.045   .     S
H614   N638    1.045   .     S
H615   N639    1.045   .     S
H616   N639    1.045   .     S
H617   N640    1.045   .     S
H618   N640    1.045   .     S
H619   N632    1.045   .     S
H620   N632    1.045   .     S
H622   N635    1.045   .     S
H623   N527    1.045   1_655 S
H624   N636    1.045   .     S
H625   N636    1.045   .     S
H626   N637    1.045   .     S
H627   N637    1.045   .     S
H628   N638    1.045   .     S
N634   C498    1.439   1_655 S
N634   H513    1.045   1_655 S
C649   C652    1.439   .     S
C649   O695    1.294   .     A
C649   O697    1.295   .     A
C650   C652    1.403   .     A
C650   N693    1.436   .     S
C651   C657    1.439   .     S
C651   C663    1.403   .     A
C651   C664    1.403   .     A
C652   C662    1.403   .     A
C653   I683    2.136   .     S
C653   N687    1.386   .     A
C654   N685    1.386   .     A
C654   I684    2.136   .     S
C654   C1142   1.428   .     S
C655   N685    1.361   .     A
C655   N694    1.431   .     S
C655   C1139   1.428   .     S
C656   N687    1.361   .     A
C656   N686    1.431   .     S
C657   O698    1.295   .     A
C657   O696    1.294   .     A
C658   C660    1.445   .     S
C658   O699    1.288   .     A
C658   O701    1.303   .     A
C659   C661    1.445   .     S
C659   O702    1.303   .     A
C659   O700    1.288   .     A
C660   C769    1.359   1_455 S
C660   N796    1.439   1_455 S
C661   C714    1.359   .     S
C661   N743    1.439   .     S
C662   N690    1.436   .     S
C663   N691    1.436   .     S
C663   C812    1.402   .     S
C664   N692    1.436   .     S
C664   C824    1.402   .     S
Cu665  O698    1.950   .     S
Cu665  O699    1.969   .     S
Cu665  Cu666   2.702   .     S
Cu665  N685    2.031   .     S
Cu665  O702    1.974   .     S
Cu665  O695    1.947   .     S
Cu666  N687    2.031   .     S
Cu666  O700    1.969   .     S
Cu666  O701    1.974   .     S
Cu666  O697    1.950   .     S
Cu666  O696    1.947   .     S
H667   N688    1.045   .     S
H668   N692    1.045   .     S
H669   N693    1.045   .     S
H670   N693    1.045   .     S
H671   N694    1.045   .     S
H672   N694    1.045   .     S
H673   N686    1.045   .     S
H674   N686    1.045   .     S
H675   N796    1.045   1_455 S
H676   N689    1.045   .     S
H677   N743    1.045   .     S
H678   N690    1.045   .     S
H679   N690    1.045   .     S
H680   N691    1.045   .     S
H681   N691    1.045   .     S
H682   N692    1.045   .     S
N688   C714    1.439   .     S
N688   H729    1.045   .     S
N689   H785    1.045   1_455 S
N689   C769    1.439   1_455 S
C703   C706    1.439   .     S
C703   O749    1.294   .     A
C703   O751    1.295   .     A
C704   C706    1.403   .     A
C704   N747    1.436   .     S
C705   C711    1.439   .     S
C705   C717    1.403   .     A
C705   C718    1.403   .     A
C706   C716    1.403   .     A
C707   I737    2.136   .     S
C707   N741    1.386   .     A
C708   N739    1.386   .     A
C708   I738    2.136   .     S
C708   C1196   1.428   .     S
C709   N739    1.361   .     A
C709   N748    1.431   .     S
C709   C1193   1.428   .     S
C710   N741    1.361   .     A
C710   N740    1.431   .     S
C711   O752    1.295   .     A
C711   O750    1.294   .     A
C712   C714    1.445   .     S
C712   O753    1.288   .     A
C712   O755    1.303   .     A
C713   C715    1.445   .     S
C713   O756    1.303   .     A
C713   O754    1.288   .     A
C715   C768    1.359   .     S
C715   N797    1.439   .     S
C716   N744    1.436   .     S
C717   N745    1.436   .     S
C717   C866    1.402   .     S
C718   N746    1.436   .     S
C718   C878    1.402   .     S
Cu719  O752    1.950   .     S
Cu719  O753    1.969   .     S
Cu719  Cu720   2.702   .     S
Cu719  N739    2.031   .     S
Cu719  O756    1.974   .     S
Cu719  O749    1.947   .     S
Cu720  N741    2.031   .     S
Cu720  O754    1.969   .     S
Cu720  O755    1.974   .     S
Cu720  O751    1.950   .     S
Cu720  O750    1.947   .     S
H721   N742    1.045   .     S
H722   N746    1.045   .     S
H723   N747    1.045   .     S
H724   N747    1.045   .     S
H725   N748    1.045   .     S
H726   N748    1.045   .     S
H727   N740    1.045   .     S
H728   N740    1.045   .     S
H730   N743    1.045   .     S
H731   N797    1.045   .     S
H732   N744    1.045   .     S
H733   N744    1.045   .     S
H734   N745    1.045   .     S
H735   N745    1.045   .     S
H736   N746    1.045   .     S
N742   C768    1.439   .     S
N742   H783    1.045   .     S
C757   C760    1.439   .     S
C757   O803    1.294   .     A
C757   O805    1.295   .     A
C758   C760    1.403   .     A
C758   N801    1.436   .     S
C759   C765    1.439   .     S
C759   C771    1.403   .     A
C759   C772    1.403   .     A
C760   C770    1.403   .     A
C761   I791    2.136   .     S
C761   N795    1.386   .     A
C762   N793    1.386   .     A
C762   I792    2.136   .     S
C762   C1250   1.428   .     S
C763   N793    1.361   .     A
C763   N802    1.431   .     S
C763   C1247   1.428   .     S
C764   N795    1.361   .     A
C764   N794    1.431   .     S
C765   O806    1.295   .     A
C765   O804    1.294   .     A
C766   C768    1.445   .     S
C766   O807    1.288   .     A
C766   O809    1.303   .     A
C767   C769    1.445   .     S
C767   O810    1.303   .     A
C767   O808    1.288   .     A
C769   C660    1.359   1_655 S
C769   N689    1.439   1_655 S
C770   N798    1.436   .     S
C771   N799    1.436   .     S
C771   C920    1.402   .     S
C772   N800    1.436   .     S
C772   C932    1.402   .     S
Cu773  O806    1.950   .     S
Cu773  O807    1.969   .     S
Cu773  Cu774   2.702   .     S
Cu773  N793    2.031   .     S
Cu773  O810    1.974   .     S
Cu773  O803    1.947   .     S
Cu774  N795    2.031   .     S
Cu774  O808    1.969   .     S
Cu774  O809    1.974   .     S
Cu774  O805    1.950   .     S
Cu774  O804    1.947   .     S
H775   N796    1.045   .     S
H776   N800    1.045   .     S
H777   N801    1.045   .     S
H778   N801    1.045   .     S
H779   N802    1.045   .     S
H780   N802    1.045   .     S
H781   N794    1.045   .     S
H782   N794    1.045   .     S
H784   N797    1.045   .     S
H785   N689    1.045   1_655 S
H786   N798    1.045   .     S
H787   N798    1.045   .     S
H788   N799    1.045   .     S
H789   N799    1.045   .     S
H790   N800    1.045   .     S
N796   C660    1.439   1_655 S
N796   H675    1.045   1_655 S
C811   C814    1.439   .     S
C811   O857    1.294   .     A
C811   O859    1.295   .     A
C812   C814    1.403   .     A
C812   N855    1.436   .     S
C813   C819    1.439   .     S
C813   C825    1.403   .     A
C813   C826    1.403   .     A
C814   C824    1.403   .     A
C815   I845    2.136   .     S
C815   N849    1.386   .     A
C816   N847    1.386   .     A
C816   I846    2.136   .     S
C816   C1304   1.428   .     S
C817   N847    1.361   .     A
C817   N856    1.431   .     S
C817   C1301   1.428   .     S
C818   N849    1.361   .     A
C818   N848    1.431   .     S
C819   O860    1.295   .     A
C819   O858    1.294   .     A
C820   C822    1.445   .     S
C820   O861    1.288   .     A
C820   O863    1.303   .     A
C821   C823    1.445   .     S
C821   O864    1.303   .     A
C821   O862    1.288   .     A
C822   C931    1.359   1_455 S
C822   N958    1.439   1_455 S
C823   C876    1.359   .     S
C823   N905    1.439   .     S
C824   N852    1.436   .     S
C825   N853    1.436   .     S
C825   C488    1.402   1_565 S
C826   N854    1.436   .     S
C826   C500    1.402   1_565 S
Cu827  O860    1.950   .     S
Cu827  O861    1.969   .     S
Cu827  Cu828   2.702   .     S
Cu827  N847    2.031   .     S
Cu827  O864    1.974   .     S
Cu827  O857    1.947   .     S
Cu828  N849    2.031   .     S
Cu828  O862    1.969   .     S
Cu828  O863    1.974   .     S
Cu828  O859    1.950   .     S
Cu828  O858    1.947   .     S
H829   N850    1.045   .     S
H830   N854    1.045   .     S
H831   N855    1.045   .     S
H832   N855    1.045   .     S
H833   N856    1.045   .     S
H834   N856    1.045   .     S
H835   N848    1.045   .     S
H836   N848    1.045   .     S
H837   N958    1.045   1_455 S
H838   N851    1.045   .     S
H839   N905    1.045   .     S
H840   N852    1.045   .     S
H841   N852    1.045   .     S
H842   N853    1.045   .     S
H843   N853    1.045   .     S
H844   N854    1.045   .     S
N850   C876    1.439   .     S
N850   H891    1.045   .     S
N851   H947    1.045   1_455 S
N851   C931    1.439   1_455 S
C865   C868    1.439   .     S
C865   O911    1.294   .     A
C865   O913    1.295   .     A
C866   C868    1.403   .     A
C866   N909    1.436   .     S
C867   C873    1.439   .     S
C867   C879    1.403   .     A
C867   C880    1.403   .     A
C868   C878    1.403   .     A
C869   I899    2.136   .     S
C869   N903    1.386   .     A
C870   N901    1.386   .     A
C870   I900    2.136   .     S
C870   C1358   1.428   .     S
C871   N901    1.361   .     A
C871   N910    1.431   .     S
C871   C1355   1.428   .     S
C872   N903    1.361   .     A
C872   N902    1.431   .     S
C873   O914    1.295   .     A
C873   O912    1.294   .     A
C874   C876    1.445   .     S
C874   O915    1.288   .     A
C874   O917    1.303   .     A
C875   C877    1.445   .     S
C875   O918    1.303   .     A
C875   O916    1.288   .     A
C877   C930    1.359   .     S
C877   N959    1.439   .     S
C878   N906    1.436   .     S
C879   N907    1.436   .     S
C879   C542    1.402   1_565 S
C880   N908    1.436   .     S
C880   C554    1.402   1_565 S
Cu881  O914    1.950   .     S
Cu881  O915    1.969   .     S
Cu881  Cu882   2.702   .     S
Cu881  N901    2.031   .     S
Cu881  O918    1.974   .     S
Cu881  O911    1.947   .     S
Cu882  N903    2.031   .     S
Cu882  O916    1.969   .     S
Cu882  O917    1.974   .     S
Cu882  O913    1.950   .     S
Cu882  O912    1.947   .     S
H883   N904    1.045   .     S
H884   N908    1.045   .     S
H885   N909    1.045   .     S
H886   N909    1.045   .     S
H887   N910    1.045   .     S
H888   N910    1.045   .     S
H889   N902    1.045   .     S
H890   N902    1.045   .     S
H892   N905    1.045   .     S
H893   N959    1.045   .     S
H894   N906    1.045   .     S
H895   N906    1.045   .     S
H896   N907    1.045   .     S
H897   N907    1.045   .     S
H898   N908    1.045   .     S
N904   C930    1.439   .     S
N904   H945    1.045   .     S
C919   C922    1.439   .     S
C919   O965    1.294   .     A
C919   O967    1.295   .     A
C920   C922    1.403   .     A
C920   N963    1.436   .     S
C921   C927    1.439   .     S
C921   C933    1.403   .     A
C921   C934    1.403   .     A
C922   C932    1.403   .     A
C923   I953    2.136   .     S
C923   N957    1.386   .     A
C924   N955    1.386   .     A
C924   I954    2.136   .     S
C924   C1412   1.428   .     S
C925   N955    1.361   .     A
C925   N964    1.431   .     S
C925   C1409   1.428   .     S
C926   N957    1.361   .     A
C926   N956    1.431   .     S
C927   O968    1.295   .     A
C927   O966    1.294   .     A
C928   C930    1.445   .     S
C928   O969    1.288   .     A
C928   O971    1.303   .     A
C929   C931    1.445   .     S
C929   O972    1.303   .     A
C929   O970    1.288   .     A
C931   C822    1.359   1_655 S
C931   N851    1.439   1_655 S
C932   N960    1.436   .     S
C933   N961    1.436   .     S
C933   C596    1.402   1_565 S
C934   N962    1.436   .     S
C934   C608    1.402   1_565 S
Cu935  O968    1.950   .     S
Cu935  O969    1.969   .     S
Cu935  Cu936   2.702   .     S
Cu935  N955    2.031   .     S
Cu935  O972    1.974   .     S
Cu935  O965    1.947   .     S
Cu936  N957    2.031   .     S
Cu936  O970    1.969   .     S
Cu936  O971    1.974   .     S
Cu936  O967    1.950   .     S
Cu936  O966    1.947   .     S
H937   N958    1.045   .     S
H938   N962    1.045   .     S
H939   N963    1.045   .     S
H940   N963    1.045   .     S
H941   N964    1.045   .     S
H942   N964    1.045   .     S
H943   N956    1.045   .     S
H944   N956    1.045   .     S
H946   N959    1.045   .     S
H947   N851    1.045   1_655 S
H948   N960    1.045   .     S
H949   N960    1.045   .     S
H950   N961    1.045   .     S
H951   N961    1.045   .     S
H952   N962    1.045   .     S
N958   C822    1.439   1_655 S
N958   H837    1.045   1_655 S
C973   C976    1.439   .     S
C973   O1019   1.294   .     A
C973   O1021   1.295   .     A
C974   C976    1.403   .     A
C974   N1017   1.436   .     S
C974   C1311   1.402   1_545 S
C975   C981    1.439   .     S
C975   C987    1.403   .     A
C975   C988    1.403   .     A
C976   C986    1.403   .     A
C977   I1007   2.136   .     S
C977   N1011   1.386   .     A
C978   N1009   1.386   .     A
C978   I1008   2.136   .     S
C978   C8      1.428   1_556 S
C979   N1009   1.361   .     A
C979   N1018   1.431   .     S
C979   C5      1.428   1_556 S
C980   N1011   1.361   .     A
C980   N1010   1.431   .     S
C981   O1022   1.295   .     A
C981   O1020   1.294   .     A
C982   C984    1.445   .     S
C982   O1023   1.288   .     A
C982   O1025   1.303   .     A
C983   C985    1.445   .     S
C983   O1026   1.303   .     A
C983   O1024   1.288   .     A
C984   C1093   1.359   1_455 S
C984   N1120   1.439   1_455 S
C985   C1038   1.359   .     S
C985   N1067   1.439   .     S
C986   N1014   1.436   .     S
C986   C1312   1.402   1_545 S
C987   N1015   1.436   .     S
C987   C1136   1.402   .     S
C988   N1016   1.436   .     S
C988   C1148   1.402   .     S
Cu989  O1022   1.950   .     S
Cu989  O1023   1.969   .     S
Cu989  Cu990   2.702   .     S
Cu989  N1009   2.031   .     S
Cu989  O1026   1.974   .     S
Cu989  O1019   1.947   .     S
Cu990  N1011   2.031   .     S
Cu990  O1024   1.969   .     S
Cu990  O1025   1.974   .     S
Cu990  O1021   1.950   .     S
Cu990  O1020   1.947   .     S
H991   N1012   1.045   .     S
H992   N1016   1.045   .     S
H993   N1017   1.045   .     S
H994   N1017   1.045   .     S
H995   N1018   1.045   .     S
H996   N1018   1.045   .     S
H997   N1010   1.045   .     S
H998   N1010   1.045   .     S
H999   N1120   1.045   1_455 S
H1000  N1013   1.045   .     S
H1001  N1067   1.045   .     S
H1002  N1014   1.045   .     S
H1003  N1014   1.045   .     S
H1004  N1015   1.045   .     S
H1005  N1015   1.045   .     S
H1006  N1016   1.045   .     S
N1012  C1038   1.439   .     S
N1012  H1053   1.045   .     S
N1013  H1109   1.045   1_455 S
N1013  C1093   1.439   1_455 S
C1027  C1030   1.439   .     S
C1027  O1073   1.294   .     A
C1027  O1075   1.295   .     A
C1028  C1030   1.403   .     A
C1028  N1071   1.436   .     S
C1028  C1365   1.402   1_545 S
C1029  C1035   1.439   .     S
C1029  C1041   1.403   .     A
C1029  C1042   1.403   .     A
C1030  C1040   1.403   .     A
C1031  I1061   2.136   .     S
C1031  N1065   1.386   .     A
C1032  N1063   1.386   .     A
C1032  I1062   2.136   .     S
C1032  C62     1.428   1_556 S
C1033  N1063   1.361   .     A
C1033  N1072   1.431   .     S
C1033  C59     1.428   1_556 S
C1034  N1065   1.361   .     A
C1034  N1064   1.431   .     S
C1035  O1076   1.295   .     A
C1035  O1074   1.294   .     A
C1036  C1038   1.445   .     S
C1036  O1077   1.288   .     A
C1036  O1079   1.303   .     A
C1037  C1039   1.445   .     S
C1037  O1080   1.303   .     A
C1037  O1078   1.288   .     A
C1039  C1092   1.359   .     S
C1039  N1121   1.439   .     S
C1040  N1068   1.436   .     S
C1040  C1366   1.402   1_545 S
C1041  N1069   1.436   .     S
C1041  C1190   1.402   .     S
C1042  N1070   1.436   .     S
C1042  C1202   1.402   .     S
Cu1043 O1076   1.950   .     S
Cu1043 O1077   1.969   .     S
Cu1043 Cu1044  2.702   .     S
Cu1043 N1063   2.031   .     S
Cu1043 O1080   1.974   .     S
Cu1043 O1073   1.947   .     S
Cu1044 N1065   2.031   .     S
Cu1044 O1078   1.969   .     S
Cu1044 O1079   1.974   .     S
Cu1044 O1075   1.950   .     S
Cu1044 O1074   1.947   .     S
H1045  N1066   1.045   .     S
H1046  N1070   1.045   .     S
H1047  N1071   1.045   .     S
H1048  N1071   1.045   .     S
H1049  N1072   1.045   .     S
H1050  N1072   1.045   .     S
H1051  N1064   1.045   .     S
H1052  N1064   1.045   .     S
H1054  N1067   1.045   .     S
H1055  N1121   1.045   .     S
H1056  N1068   1.045   .     S
H1057  N1068   1.045   .     S
H1058  N1069   1.045   .     S
H1059  N1069   1.045   .     S
H1060  N1070   1.045   .     S
N1066  C1092   1.439   .     S
N1066  H1107   1.045   .     S
C1081  C1084   1.439   .     S
C1081  O1127   1.294   .     A
C1081  O1129   1.295   .     A
C1082  C1084   1.403   .     A
C1082  N1125   1.436   .     S
C1082  C1419   1.402   1_545 S
C1083  C1089   1.439   .     S
C1083  C1095   1.403   .     A
C1083  C1096   1.403   .     A
C1084  C1094   1.403   .     A
C1085  I1115   2.136   .     S
C1085  N1119   1.386   .     A
C1086  N1117   1.386   .     A
C1086  I1116   2.136   .     S
C1086  C116    1.428   1_556 S
C1087  N1117   1.361   .     A
C1087  N1126   1.431   .     S
C1087  C113    1.428   1_556 S
C1088  N1119   1.361   .     A
C1088  N1118   1.431   .     S
C1089  O1130   1.295   .     A
C1089  O1128   1.294   .     A
C1090  C1092   1.445   .     S
C1090  O1131   1.288   .     A
C1090  O1133   1.303   .     A
C1091  C1093   1.445   .     S
C1091  O1134   1.303   .     A
C1091  O1132   1.288   .     A
C1093  C984    1.359   1_655 S
C1093  N1013   1.439   1_655 S
C1094  N1122   1.436   .     S
C1094  C1420   1.402   1_545 S
C1095  N1123   1.436   .     S
C1095  C1244   1.402   .     S
C1096  N1124   1.436   .     S
C1096  C1256   1.402   .     S
Cu1097 O1130   1.950   .     S
Cu1097 O1131   1.969   .     S
Cu1097 Cu1098  2.702   .     S
Cu1097 N1117   2.031   .     S
Cu1097 O1134   1.974   .     S
Cu1097 O1127   1.947   .     S
Cu1098 N1119   2.031   .     S
Cu1098 O1132   1.969   .     S
Cu1098 O1133   1.974   .     S
Cu1098 O1129   1.950   .     S
Cu1098 O1128   1.947   .     S
H1099  N1120   1.045   .     S
H1100  N1124   1.045   .     S
H1101  N1125   1.045   .     S
H1102  N1125   1.045   .     S
H1103  N1126   1.045   .     S
H1104  N1126   1.045   .     S
H1105  N1118   1.045   .     S
H1106  N1118   1.045   .     S
H1108  N1121   1.045   .     S
H1109  N1013   1.045   1_655 S
H1110  N1122   1.045   .     S
H1111  N1122   1.045   .     S
H1112  N1123   1.045   .     S
H1113  N1123   1.045   .     S
H1114  N1124   1.045   .     S
N1120  C984    1.439   1_655 S
N1120  H999    1.045   1_655 S
C1135  C1138   1.439   .     S
C1135  O1181   1.294   .     A
C1135  O1183   1.295   .     A
C1136  C1138   1.403   .     A
C1136  N1179   1.436   .     S
C1137  C1143   1.439   .     S
C1137  C1149   1.403   .     A
C1137  C1150   1.403   .     A
C1138  C1148   1.403   .     A
C1139  I1169   2.136   .     S
C1139  N1173   1.386   .     A
C1140  N1171   1.386   .     A
C1140  I1170   2.136   .     S
C1140  C170    1.428   1_556 S
C1141  N1171   1.361   .     A
C1141  N1180   1.431   .     S
C1141  C167    1.428   1_556 S
C1142  N1173   1.361   .     A
C1142  N1172   1.431   .     S
C1143  O1184   1.295   .     A
C1143  O1182   1.294   .     A
C1144  C1146   1.445   .     S
C1144  O1185   1.288   .     A
C1144  O1187   1.303   .     A
C1145  C1147   1.445   .     S
C1145  O1188   1.303   .     A
C1145  O1186   1.288   .     A
C1146  C1255   1.359   1_455 S
C1146  N1282   1.439   1_455 S
C1147  C1200   1.359   .     S
C1147  N1229   1.439   .     S
C1148  N1176   1.436   .     S
C1149  N1177   1.436   .     S
C1149  C1298   1.402   .     S
C1150  N1178   1.436   .     S
C1150  C1310   1.402   .     S
Cu1151 O1184   1.950   .     S
Cu1151 O1185   1.969   .     S
Cu1151 Cu1152  2.702   .     S
Cu1151 N1171   2.031   .     S
Cu1151 O1188   1.974   .     S
Cu1151 O1181   1.947   .     S
Cu1152 N1173   2.031   .     S
Cu1152 O1186   1.969   .     S
Cu1152 O1187   1.974   .     S
Cu1152 O1183   1.950   .     S
Cu1152 O1182   1.947   .     S
H1153  N1174   1.045   .     S
H1154  N1178   1.045   .     S
H1155  N1179   1.045   .     S
H1156  N1179   1.045   .     S
H1157  N1180   1.045   .     S
H1158  N1180   1.045   .     S
H1159  N1172   1.045   .     S
H1160  N1172   1.045   .     S
H1161  N1282   1.045   1_455 S
H1162  N1175   1.045   .     S
H1163  N1229   1.045   .     S
H1164  N1176   1.045   .     S
H1165  N1176   1.045   .     S
H1166  N1177   1.045   .     S
H1167  N1177   1.045   .     S
H1168  N1178   1.045   .     S
N1174  C1200   1.439   .     S
N1174  H1215   1.045   .     S
N1175  H1271   1.045   1_455 S
N1175  C1255   1.439   1_455 S
C1189  C1192   1.439   .     S
C1189  O1235   1.294   .     A
C1189  O1237   1.295   .     A
C1190  C1192   1.403   .     A
C1190  N1233   1.436   .     S
C1191  C1197   1.439   .     S
C1191  C1203   1.403   .     A
C1191  C1204   1.403   .     A
C1192  C1202   1.403   .     A
C1193  I1223   2.136   .     S
C1193  N1227   1.386   .     A
C1194  N1225   1.386   .     A
C1194  I1224   2.136   .     S
C1194  C224    1.428   1_556 S
C1195  N1225   1.361   .     A
C1195  N1234   1.431   .     S
C1195  C221    1.428   1_556 S
C1196  N1227   1.361   .     A
C1196  N1226   1.431   .     S
C1197  O1238   1.295   .     A
C1197  O1236   1.294   .     A
C1198  C1200   1.445   .     S
C1198  O1239   1.288   .     A
C1198  O1241   1.303   .     A
C1199  C1201   1.445   .     S
C1199  O1242   1.303   .     A
C1199  O1240   1.288   .     A
C1201  C1254   1.359   .     S
C1201  N1283   1.439   .     S
C1202  N1230   1.436   .     S
C1203  N1231   1.436   .     S
C1203  C1352   1.402   .     S
C1204  N1232   1.436   .     S
C1204  C1364   1.402   .     S
Cu1205 O1238   1.950   .     S
Cu1205 O1239   1.969   .     S
Cu1205 Cu1206  2.702   .     S
Cu1205 N1225   2.031   .     S
Cu1205 O1242   1.974   .     S
Cu1205 O1235   1.947   .     S
Cu1206 N1227   2.031   .     S
Cu1206 O1240   1.969   .     S
Cu1206 O1241   1.974   .     S
Cu1206 O1237   1.950   .     S
Cu1206 O1236   1.947   .     S
H1207  N1228   1.045   .     S
H1208  N1232   1.045   .     S
H1209  N1233   1.045   .     S
H1210  N1233   1.045   .     S
H1211  N1234   1.045   .     S
H1212  N1234   1.045   .     S
H1213  N1226   1.045   .     S
H1214  N1226   1.045   .     S
H1216  N1229   1.045   .     S
H1217  N1283   1.045   .     S
H1218  N1230   1.045   .     S
H1219  N1230   1.045   .     S
H1220  N1231   1.045   .     S
H1221  N1231   1.045   .     S
H1222  N1232   1.045   .     S
N1228  C1254   1.439   .     S
N1228  H1269   1.045   .     S
C1243  C1246   1.439   .     S
C1243  O1289   1.294   .     A
C1243  O1291   1.295   .     A
C1244  C1246   1.403   .     A
C1244  N1287   1.436   .     S
C1245  C1251   1.439   .     S
C1245  C1257   1.403   .     A
C1245  C1258   1.403   .     A
C1246  C1256   1.403   .     A
C1247  I1277   2.136   .     S
C1247  N1281   1.386   .     A
C1248  N1279   1.386   .     A
C1248  I1278   2.136   .     S
C1248  C278    1.428   1_556 S
C1249  N1279   1.361   .     A
C1249  N1288   1.431   .     S
C1249  C275    1.428   1_556 S
C1250  N1281   1.361   .     A
C1250  N1280   1.431   .     S
C1251  O1292   1.295   .     A
C1251  O1290   1.294   .     A
C1252  C1254   1.445   .     S
C1252  O1293   1.288   .     A
C1252  O1295   1.303   .     A
C1253  C1255   1.445   .     S
C1253  O1296   1.303   .     A
C1253  O1294   1.288   .     A
C1255  C1146   1.359   1_655 S
C1255  N1175   1.439   1_655 S
C1256  N1284   1.436   .     S
C1257  N1285   1.436   .     S
C1257  C1406   1.402   .     S
C1258  N1286   1.436   .     S
C1258  C1418   1.402   .     S
Cu1259 O1292   1.950   .     S
Cu1259 O1293   1.969   .     S
Cu1259 Cu1260  2.702   .     S
Cu1259 N1279   2.031   .     S
Cu1259 O1296   1.974   .     S
Cu1259 O1289   1.947   .     S
Cu1260 N1281   2.031   .     S
Cu1260 O1294   1.969   .     S
Cu1260 O1295   1.974   .     S
Cu1260 O1291   1.950   .     S
Cu1260 O1290   1.947   .     S
H1261  N1282   1.045   .     S
H1262  N1286   1.045   .     S
H1263  N1287   1.045   .     S
H1264  N1287   1.045   .     S
H1265  N1288   1.045   .     S
H1266  N1288   1.045   .     S
H1267  N1280   1.045   .     S
H1268  N1280   1.045   .     S
H1270  N1283   1.045   .     S
H1271  N1175   1.045   1_655 S
H1272  N1284   1.045   .     S
H1273  N1284   1.045   .     S
H1274  N1285   1.045   .     S
H1275  N1285   1.045   .     S
H1276  N1286   1.045   .     S
N1282  C1146   1.439   1_655 S
N1282  H1161   1.045   1_655 S
C1297  C1300   1.439   .     S
C1297  O1343   1.294   .     A
C1297  O1345   1.295   .     A
C1298  C1300   1.403   .     A
C1298  N1341   1.436   .     S
C1299  C1305   1.439   .     S
C1299  C1311   1.403   .     A
C1299  C1312   1.403   .     A
C1300  C1310   1.403   .     A
C1301  I1331   2.136   .     S
C1301  N1335   1.386   .     A
C1302  N1333   1.386   .     A
C1302  I1332   2.136   .     S
C1302  C332    1.428   1_556 S
C1303  N1333   1.361   .     A
C1303  N1342   1.431   .     S
C1303  C329    1.428   1_556 S
C1304  N1335   1.361   .     A
C1304  N1334   1.431   .     S
C1305  O1346   1.295   .     A
C1305  O1344   1.294   .     A
C1306  C1308   1.445   .     S
C1306  O1347   1.288   .     A
C1306  O1349   1.303   .     A
C1307  C1309   1.445   .     S
C1307  O1350   1.303   .     A
C1307  O1348   1.288   .     A
C1308  C1417   1.359   1_455 S
C1308  N1444   1.439   1_455 S
C1309  C1362   1.359   .     S
C1309  N1391   1.439   .     S
C1310  N1338   1.436   .     S
C1311  N1339   1.436   .     S
C1311  C974    1.402   1_565 S
C1312  N1340   1.436   .     S
C1312  C986    1.402   1_565 S
Cu1313 O1346   1.950   .     S
Cu1313 O1347   1.969   .     S
Cu1313 Cu1314  2.702   .     S
Cu1313 N1333   2.031   .     S
Cu1313 O1350   1.974   .     S
Cu1313 O1343   1.947   .     S
Cu1314 N1335   2.031   .     S
Cu1314 O1348   1.969   .     S
Cu1314 O1349   1.974   .     S
Cu1314 O1345   1.950   .     S
Cu1314 O1344   1.947   .     S
H1315  N1336   1.045   .     S
H1316  N1340   1.045   .     S
H1317  N1341   1.045   .     S
H1318  N1341   1.045   .     S
H1319  N1342   1.045   .     S
H1320  N1342   1.045   .     S
H1321  N1334   1.045   .     S
H1322  N1334   1.045   .     S
H1323  N1444   1.045   1_455 S
H1324  N1337   1.045   .     S
H1325  N1391   1.045   .     S
H1326  N1338   1.045   .     S
H1327  N1338   1.045   .     S
H1328  N1339   1.045   .     S
H1329  N1339   1.045   .     S
H1330  N1340   1.045   .     S
N1336  C1362   1.439   .     S
N1336  H1377   1.045   .     S
N1337  H1433   1.045   1_455 S
N1337  C1417   1.439   1_455 S
C1351  C1354   1.439   .     S
C1351  O1397   1.294   .     A
C1351  O1399   1.295   .     A
C1352  C1354   1.403   .     A
C1352  N1395   1.436   .     S
C1353  C1359   1.439   .     S
C1353  C1365   1.403   .     A
C1353  C1366   1.403   .     A
C1354  C1364   1.403   .     A
C1355  I1385   2.136   .     S
C1355  N1389   1.386   .     A
C1356  N1387   1.386   .     A
C1356  I1386   2.136   .     S
C1356  C386    1.428   1_556 S
C1357  N1387   1.361   .     A
C1357  N1396   1.431   .     S
C1357  C383    1.428   1_556 S
C1358  N1389   1.361   .     A
C1358  N1388   1.431   .     S
C1359  O1400   1.295   .     A
C1359  O1398   1.294   .     A
C1360  C1362   1.445   .     S
C1360  O1401   1.288   .     A
C1360  O1403   1.303   .     A
C1361  C1363   1.445   .     S
C1361  O1404   1.303   .     A
C1361  O1402   1.288   .     A
C1363  C1416   1.359   .     S
C1363  N1445   1.439   .     S
C1364  N1392   1.436   .     S
C1365  N1393   1.436   .     S
C1365  C1028   1.402   1_565 S
C1366  N1394   1.436   .     S
C1366  C1040   1.402   1_565 S
Cu1367 O1400   1.950   .     S
Cu1367 O1401   1.969   .     S
Cu1367 Cu1368  2.702   .     S
Cu1367 N1387   2.031   .     S
Cu1367 O1404   1.974   .     S
Cu1367 O1397   1.947   .     S
Cu1368 N1389   2.031   .     S
Cu1368 O1402   1.969   .     S
Cu1368 O1403   1.974   .     S
Cu1368 O1399   1.950   .     S
Cu1368 O1398   1.947   .     S
H1369  N1390   1.045   .     S
H1370  N1394   1.045   .     S
H1371  N1395   1.045   .     S
H1372  N1395   1.045   .     S
H1373  N1396   1.045   .     S
H1374  N1396   1.045   .     S
H1375  N1388   1.045   .     S
H1376  N1388   1.045   .     S
H1378  N1391   1.045   .     S
H1379  N1445   1.045   .     S
H1380  N1392   1.045   .     S
H1381  N1392   1.045   .     S
H1382  N1393   1.045   .     S
H1383  N1393   1.045   .     S
H1384  N1394   1.045   .     S
N1390  C1416   1.439   .     S
N1390  H1431   1.045   .     S
C1405  C1408   1.439   .     S
C1405  O1451   1.294   .     A
C1405  O1453   1.295   .     A
C1406  C1408   1.403   .     A
C1406  N1449   1.436   .     S
C1407  C1413   1.439   .     S
C1407  C1419   1.403   .     A
C1407  C1420   1.403   .     A
C1408  C1418   1.403   .     A
C1409  I1439   2.136   .     S
C1409  N1443   1.386   .     A
C1410  N1441   1.386   .     A
C1410  I1440   2.136   .     S
C1410  C440    1.428   1_556 S
C1411  N1441   1.361   .     A
C1411  N1450   1.431   .     S
C1411  C437    1.428   1_556 S
C1412  N1443   1.361   .     A
C1412  N1442   1.431   .     S
C1413  O1454   1.295   .     A
C1413  O1452   1.294   .     A
C1414  C1416   1.445   .     S
C1414  O1455   1.288   .     A
C1414  O1457   1.303   .     A
C1415  C1417   1.445   .     S
C1415  O1458   1.303   .     A
C1415  O1456   1.288   .     A
C1417  C1308   1.359   1_655 S
C1417  N1337   1.439   1_655 S
C1418  N1446   1.436   .     S
C1419  N1447   1.436   .     S
C1419  C1082   1.402   1_565 S
C1420  N1448   1.436   .     S
C1420  C1094   1.402   1_565 S
Cu1421 O1454   1.950   .     S
Cu1421 O1455   1.969   .     S
Cu1421 Cu1422  2.702   .     S
Cu1421 N1441   2.031   .     S
Cu1421 O1458   1.974   .     S
Cu1421 O1451   1.947   .     S
Cu1422 N1443   2.031   .     S
Cu1422 O1456   1.969   .     S
Cu1422 O1457   1.974   .     S
Cu1422 O1453   1.950   .     S
Cu1422 O1452   1.947   .     S
H1423  N1444   1.045   .     S
H1424  N1448   1.045   .     S
H1425  N1449   1.045   .     S
H1426  N1449   1.045   .     S
H1427  N1450   1.045   .     S
H1428  N1450   1.045   .     S
H1429  N1442   1.045   .     S
H1430  N1442   1.045   .     S
H1432  N1445   1.045   .     S
H1433  N1337   1.045   1_655 S
H1434  N1446   1.045   .     S
H1435  N1446   1.045   .     S
H1436  N1447   1.045   .     S
H1437  N1447   1.045   .     S
H1438  N1448   1.045   .     S
N1444  C1308   1.439   1_655 S
N1444  H1323   1.045   1_655 S
