data_str_m2_o10_o16_pcu_sym.118
_audit_creation_date              2020-01-03
_audit_creation_method            'Materials Studio'
_symmetry_space_group_name_H-M    'P1'
_symmetry_Int_Tables_number       1
_symmetry_cell_setting            triclinic
loop_
_symmetry_equiv_pos_as_xyz
  x,y,z
_cell_length_a                    22.3104
_cell_length_b                    26.1265
_cell_length_c                    26.5866
_cell_angle_alpha                 93.9672
_cell_angle_beta                  77.3554
_cell_angle_gamma                 103.0195
loop_
_atom_site_label
_atom_site_type_symbol
_atom_site_fract_x
_atom_site_fract_y
_atom_site_fract_z
_atom_site_U_iso_or_equiv
_atom_site_adp_type
_atom_site_occupancy
C1     C     0.18100   0.26662   0.25286   0.00000  Uiso   1.00
C2     C     0.13628   0.17376   0.48996   0.00000  Uiso   1.00
C3     C     0.15236   0.18759   0.43728   0.00000  Uiso   1.00
C4     C     0.18450   0.18677   0.01906   0.00000  Uiso   1.00
C5     C     0.23881   0.22624   0.00108   0.00000  Uiso   1.00
C6     C     0.24887   0.24643   0.45204   0.00000  Uiso   1.00
C7     C     0.20743   0.22612   0.41987   0.00000  Uiso   1.00
C8     C     0.18226   0.16033   0.06429   0.00000  Uiso   1.00
C9     C     0.27140   0.22594   0.08207   0.00000  Uiso   1.00
C10    C     0.11174   0.16395   0.40398   0.00000  Uiso   1.00
C11    C     0.18857   0.32245   0.25275   0.00000  Uiso   1.00
C12    C     0.13301   0.16529   0.34743   0.00000  Uiso   1.00
C13    C     0.13891   0.01154   0.25920   0.00000  Uiso   1.00
C14    C     0.15068   0.06676   0.25089   0.00000  Uiso   1.00
C15    C     0.20062   0.17102   0.15286   0.00000  Uiso   1.00
C16    C     0.28215   0.24528   0.03264   0.00000  Uiso   1.00
C17    C     0.22125   0.18357   0.09817   0.00000  Uiso   1.00
C18    C     0.05164   0.13476   0.42496   0.00000  Uiso   1.00
C19    C     0.03145   0.12945   0.47796   0.00000  Uiso   1.00
C20    C     0.07232   0.14979   0.01121   0.00000  Uiso   1.00
Cu21   Cu    0.10710   0.16105   0.24436   0.00000  Uiso   1.00
Cu22   Cu    0.22623   0.17228   0.25565   0.00000  Uiso   1.00
H23    H     0.30121   0.24487   0.10811   0.00000  Uiso   1.00
H24    H     0.00291   0.20470   0.29086   0.00000  Uiso   1.00
H25    H     0.33008   0.12796   0.20967   0.00000  Uiso   1.00
H26    H     0.28990   0.27690   0.43790   0.00000  Uiso   1.00
H27    H     0.32256   0.27679   0.02002   0.00000  Uiso   1.00
H28    H     0.01955   0.11679   0.40032   0.00000  Uiso   1.00
H29    H     0.31631   0.11042   0.49313   0.00000  Uiso   1.00
H30    H     0.21764   0.24290   0.38209   0.00000  Uiso   1.00
H31    H     0.23652   0.01207   0.24270   0.00000  Uiso   1.00
N32    N     0.31574   0.18074   0.26416   0.00000  Uiso   1.00
N33    N     0.01759   0.15259   0.23584   0.00000  Uiso   1.00
O34    O     0.12797   0.23807   0.24633   0.00000  Uiso   1.00
O35    O     0.22858   0.24755   0.25587   0.00000  Uiso   1.00
O36    O     0.09181   0.15960   0.31840   0.00000  Uiso   1.00
O37    O     0.19242   0.16908   0.32793   0.00000  Uiso   1.00
O38    O     0.10476   0.08578   0.24414   0.00000  Uiso   1.00
O39    O     0.20536   0.09526   0.25367   0.00000  Uiso   1.00
O40    O     0.14092   0.16425   0.17207   0.00000  Uiso   1.00
O41    O     0.24152   0.17373   0.18161   0.00000  Uiso   1.00
C42    C     0.07265   0.31735   0.27996   0.00000  Uiso   1.00
O43    O     0.05884   0.29817   0.32266   0.00000  Uiso   1.00
O44    O     0.02576   0.31378   0.25179   0.00000  Uiso   1.00
H45    H     0.04275   0.32832   0.21588   0.00000  Uiso   1.00
O46    O     0.14143   0.11241   0.07659   0.00000  Uiso   1.00
C47    C     0.16990   0.07218   0.05069   0.00000  Uiso   1.00
H48    H     0.21444   0.07223   0.06319   0.00000  Uiso   1.00
H49    H     0.17992   0.07674   0.00810   0.00000  Uiso   1.00
C50    C     0.12539   0.01925   0.06368   0.00000  Uiso   1.00
H51    H     0.11516   0.01312   0.10591   0.00000  Uiso   1.00
H52    H     0.08061   0.01778   0.05126   0.00000  Uiso   1.00
H53    H     0.14726   0.32054   0.04349   0.00000  Uiso   1.00
C54    C     0.04384   0.15330   0.06699   0.00000  Uiso   1.00
O55    O     0.00016   0.11857   0.08696   0.00000  Uiso   1.00
O56    O     0.06613   0.19699   0.09648   0.00000  Uiso   1.00
H57    H     0.04292   0.19506   0.13383   0.00000  Uiso   1.00
C58    C     0.51433   0.26662   0.25286   0.00000  Uiso   1.00
C59    C     0.46962   0.17376   0.48996   0.00000  Uiso   1.00
C60    C     0.48569   0.18759   0.43728   0.00000  Uiso   1.00
C61    C     0.51783   0.18677   0.01906   0.00000  Uiso   1.00
C62    C     0.57215   0.22624   0.00108   0.00000  Uiso   1.00
C63    C     0.58220   0.24643   0.45204   0.00000  Uiso   1.00
C64    C     0.54076   0.22612   0.41987   0.00000  Uiso   1.00
C65    C     0.51559   0.16033   0.06429   0.00000  Uiso   1.00
C66    C     0.60473   0.22594   0.08207   0.00000  Uiso   1.00
C67    C     0.44508   0.16395   0.40398   0.00000  Uiso   1.00
C68    C     0.52191   0.32245   0.25275   0.00000  Uiso   1.00
C69    C     0.46634   0.16529   0.34743   0.00000  Uiso   1.00
C70    C     0.47225   0.01154   0.25920   0.00000  Uiso   1.00
C71    C     0.48401   0.06676   0.25089   0.00000  Uiso   1.00
C72    C     0.53395   0.17102   0.15286   0.00000  Uiso   1.00
C73    C     0.61548   0.24528   0.03264   0.00000  Uiso   1.00
C74    C     0.55458   0.18357   0.09817   0.00000  Uiso   1.00
C75    C     0.38498   0.13476   0.42496   0.00000  Uiso   1.00
C76    C     0.36478   0.12945   0.47796   0.00000  Uiso   1.00
C77    C     0.40565   0.14979   0.01121   0.00000  Uiso   1.00
Cu78   Cu    0.44043   0.16105   0.24436   0.00000  Uiso   1.00
Cu79   Cu    0.55957   0.17228   0.25565   0.00000  Uiso   1.00
H80    H     0.63454   0.24487   0.10811   0.00000  Uiso   1.00
H81    H     0.33624   0.20470   0.29086   0.00000  Uiso   1.00
H82    H     0.66342   0.12796   0.20967   0.00000  Uiso   1.00
H83    H     0.62323   0.27690   0.43790   0.00000  Uiso   1.00
H84    H     0.65589   0.27679   0.02002   0.00000  Uiso   1.00
H85    H     0.35288   0.11679   0.40032   0.00000  Uiso   1.00
H86    H     0.64964   0.11042   0.49313   0.00000  Uiso   1.00
H87    H     0.55097   0.24290   0.38209   0.00000  Uiso   1.00
H88    H     0.56986   0.01207   0.24270   0.00000  Uiso   1.00
N89    N     0.64908   0.18074   0.26416   0.00000  Uiso   1.00
N90    N     0.35092   0.15259   0.23584   0.00000  Uiso   1.00
O91    O     0.46131   0.23807   0.24633   0.00000  Uiso   1.00
O92    O     0.56191   0.24755   0.25587   0.00000  Uiso   1.00
O93    O     0.42515   0.15960   0.31840   0.00000  Uiso   1.00
O94    O     0.52575   0.16908   0.32793   0.00000  Uiso   1.00
O95    O     0.43809   0.08578   0.24414   0.00000  Uiso   1.00
O96    O     0.53869   0.09526   0.25367   0.00000  Uiso   1.00
O97    O     0.47425   0.16425   0.17207   0.00000  Uiso   1.00
O98    O     0.57485   0.17373   0.18161   0.00000  Uiso   1.00
C99    C     0.40599   0.31735   0.27996   0.00000  Uiso   1.00
O100   O     0.39218   0.29817   0.32266   0.00000  Uiso   1.00
O101   O     0.35909   0.31378   0.25179   0.00000  Uiso   1.00
H102   H     0.37609   0.32832   0.21588   0.00000  Uiso   1.00
O103   O     0.47476   0.11241   0.07659   0.00000  Uiso   1.00
C104   C     0.50324   0.07218   0.05069   0.00000  Uiso   1.00
H105   H     0.54777   0.07223   0.06319   0.00000  Uiso   1.00
H106   H     0.51326   0.07674   0.00810   0.00000  Uiso   1.00
C107   C     0.45872   0.01925   0.06368   0.00000  Uiso   1.00
H108   H     0.44849   0.01312   0.10591   0.00000  Uiso   1.00
H109   H     0.41394   0.01778   0.05126   0.00000  Uiso   1.00
H110   H     0.48060   0.32054   0.04349   0.00000  Uiso   1.00
C111   C     0.37717   0.15330   0.06699   0.00000  Uiso   1.00
O112   O     0.33349   0.11857   0.08696   0.00000  Uiso   1.00
O113   O     0.39946   0.19699   0.09648   0.00000  Uiso   1.00
H114   H     0.37625   0.19506   0.13383   0.00000  Uiso   1.00
C115   C     0.84767   0.26662   0.25286   0.00000  Uiso   1.00
C116   C     0.80295   0.17376   0.48996   0.00000  Uiso   1.00
C117   C     0.81902   0.18759   0.43728   0.00000  Uiso   1.00
C118   C     0.85116   0.18677   0.01906   0.00000  Uiso   1.00
C119   C     0.90548   0.22624   0.00108   0.00000  Uiso   1.00
C120   C     0.91554   0.24643   0.45204   0.00000  Uiso   1.00
C121   C     0.87410   0.22612   0.41987   0.00000  Uiso   1.00
C122   C     0.84893   0.16033   0.06429   0.00000  Uiso   1.00
C123   C     0.93807   0.22594   0.08207   0.00000  Uiso   1.00
C124   C     0.77841   0.16395   0.40398   0.00000  Uiso   1.00
C125   C     0.85524   0.32245   0.25275   0.00000  Uiso   1.00
C126   C     0.79967   0.16529   0.34743   0.00000  Uiso   1.00
C127   C     0.80558   0.01154   0.25920   0.00000  Uiso   1.00
C128   C     0.81735   0.06676   0.25089   0.00000  Uiso   1.00
C129   C     0.86729   0.17102   0.15286   0.00000  Uiso   1.00
C130   C     0.94881   0.24528   0.03264   0.00000  Uiso   1.00
C131   C     0.88791   0.18357   0.09817   0.00000  Uiso   1.00
C132   C     0.71831   0.13476   0.42496   0.00000  Uiso   1.00
C133   C     0.69812   0.12945   0.47796   0.00000  Uiso   1.00
C134   C     0.73898   0.14979   0.01121   0.00000  Uiso   1.00
Cu135  Cu    0.77377   0.16105   0.24436   0.00000  Uiso   1.00
Cu136  Cu    0.89290   0.17228   0.25565   0.00000  Uiso   1.00
H137   H     0.96788   0.24487   0.10811   0.00000  Uiso   1.00
H138   H     0.66958   0.20470   0.29086   0.00000  Uiso   1.00
H139   H     0.99675   0.12796   0.20967   0.00000  Uiso   1.00
H140   H     0.95656   0.27690   0.43790   0.00000  Uiso   1.00
H141   H     0.98922   0.27679   0.02002   0.00000  Uiso   1.00
H142   H     0.68621   0.11679   0.40032   0.00000  Uiso   1.00
H143   H     0.98298   0.11042   0.49313   0.00000  Uiso   1.00
H144   H     0.88430   0.24290   0.38209   0.00000  Uiso   1.00
H145   H     0.90319   0.01207   0.24270   0.00000  Uiso   1.00
N146   N     0.98241   0.18074   0.26416   0.00000  Uiso   1.00
N147   N     0.68426   0.15259   0.23584   0.00000  Uiso   1.00
O148   O     0.79464   0.23807   0.24633   0.00000  Uiso   1.00
O149   O     0.89524   0.24755   0.25587   0.00000  Uiso   1.00
O150   O     0.75848   0.15960   0.31840   0.00000  Uiso   1.00
O151   O     0.85908   0.16908   0.32793   0.00000  Uiso   1.00
O152   O     0.77142   0.08578   0.24414   0.00000  Uiso   1.00
O153   O     0.87203   0.09526   0.25367   0.00000  Uiso   1.00
O154   O     0.80758   0.16425   0.17207   0.00000  Uiso   1.00
O155   O     0.90819   0.17373   0.18161   0.00000  Uiso   1.00
C156   C     0.73932   0.31735   0.27996   0.00000  Uiso   1.00
O157   O     0.72551   0.29817   0.32266   0.00000  Uiso   1.00
O158   O     0.69242   0.31378   0.25179   0.00000  Uiso   1.00
H159   H     0.70942   0.32832   0.21588   0.00000  Uiso   1.00
O160   O     0.80810   0.11241   0.07659   0.00000  Uiso   1.00
C161   C     0.83657   0.07218   0.05069   0.00000  Uiso   1.00
H162   H     0.88110   0.07223   0.06319   0.00000  Uiso   1.00
H163   H     0.84659   0.07674   0.00810   0.00000  Uiso   1.00
C164   C     0.79205   0.01925   0.06368   0.00000  Uiso   1.00
H165   H     0.78183   0.01312   0.10591   0.00000  Uiso   1.00
H166   H     0.74728   0.01778   0.05126   0.00000  Uiso   1.00
H167   H     0.81393   0.32054   0.04349   0.00000  Uiso   1.00
C168   C     0.71051   0.15330   0.06699   0.00000  Uiso   1.00
O169   O     0.66682   0.11857   0.08696   0.00000  Uiso   1.00
O170   O     0.73280   0.19699   0.09648   0.00000  Uiso   1.00
H171   H     0.70958   0.19506   0.13383   0.00000  Uiso   1.00
C172   C     0.18100   0.59996   0.25286   0.00000  Uiso   1.00
C173   C     0.13628   0.50710   0.48996   0.00000  Uiso   1.00
C174   C     0.15236   0.52093   0.43728   0.00000  Uiso   1.00
C175   C     0.18450   0.52010   0.01906   0.00000  Uiso   1.00
C176   C     0.23881   0.55958   0.00108   0.00000  Uiso   1.00
C177   C     0.24887   0.57977   0.45204   0.00000  Uiso   1.00
C178   C     0.20743   0.55945   0.41987   0.00000  Uiso   1.00
C179   C     0.18226   0.49367   0.06429   0.00000  Uiso   1.00
C180   C     0.27140   0.55928   0.08207   0.00000  Uiso   1.00
C181   C     0.11174   0.49728   0.40398   0.00000  Uiso   1.00
C182   C     0.18857   0.65579   0.25275   0.00000  Uiso   1.00
C183   C     0.13301   0.49862   0.34743   0.00000  Uiso   1.00
C184   C     0.13891   0.34487   0.25920   0.00000  Uiso   1.00
C185   C     0.15068   0.40009   0.25089   0.00000  Uiso   1.00
C186   C     0.20062   0.50436   0.15286   0.00000  Uiso   1.00
C187   C     0.28215   0.57861   0.03264   0.00000  Uiso   1.00
C188   C     0.22125   0.51690   0.09817   0.00000  Uiso   1.00
C189   C     0.05164   0.46810   0.42496   0.00000  Uiso   1.00
C190   C     0.03145   0.46279   0.47796   0.00000  Uiso   1.00
C191   C     0.07232   0.48313   0.01121   0.00000  Uiso   1.00
Cu192  Cu    0.10710   0.49439   0.24436   0.00000  Uiso   1.00
Cu193  Cu    0.22623   0.50561   0.25565   0.00000  Uiso   1.00
H194   H     0.30121   0.57821   0.10811   0.00000  Uiso   1.00
H195   H     0.00291   0.53803   0.29086   0.00000  Uiso   1.00
H196   H     0.33008   0.46129   0.20967   0.00000  Uiso   1.00
H197   H     0.28990   0.61023   0.43790   0.00000  Uiso   1.00
H198   H     0.32256   0.61012   0.02002   0.00000  Uiso   1.00
H199   H     0.01955   0.45013   0.40032   0.00000  Uiso   1.00
H200   H     0.31631   0.44375   0.49313   0.00000  Uiso   1.00
H201   H     0.21764   0.57623   0.38209   0.00000  Uiso   1.00
H202   H     0.23652   0.34541   0.24270   0.00000  Uiso   1.00
N203   N     0.31574   0.51407   0.26416   0.00000  Uiso   1.00
N204   N     0.01759   0.48593   0.23584   0.00000  Uiso   1.00
O205   O     0.12797   0.57141   0.24633   0.00000  Uiso   1.00
O206   O     0.22858   0.58089   0.25587   0.00000  Uiso   1.00
O207   O     0.09181   0.49293   0.31840   0.00000  Uiso   1.00
O208   O     0.19242   0.50241   0.32793   0.00000  Uiso   1.00
O209   O     0.10476   0.41911   0.24414   0.00000  Uiso   1.00
O210   O     0.20536   0.42859   0.25367   0.00000  Uiso   1.00
O211   O     0.14092   0.49759   0.17207   0.00000  Uiso   1.00
O212   O     0.24152   0.50707   0.18161   0.00000  Uiso   1.00
C213   C     0.07265   0.65068   0.27996   0.00000  Uiso   1.00
O214   O     0.05884   0.63150   0.32266   0.00000  Uiso   1.00
O215   O     0.02576   0.64711   0.25179   0.00000  Uiso   1.00
H216   H     0.04275   0.66165   0.21588   0.00000  Uiso   1.00
O217   O     0.14143   0.44575   0.07659   0.00000  Uiso   1.00
C218   C     0.16990   0.40552   0.05069   0.00000  Uiso   1.00
H219   H     0.21444   0.40557   0.06319   0.00000  Uiso   1.00
H220   H     0.17992   0.41007   0.00810   0.00000  Uiso   1.00
C221   C     0.12539   0.35258   0.06368   0.00000  Uiso   1.00
H222   H     0.11516   0.34646   0.10591   0.00000  Uiso   1.00
H223   H     0.08061   0.35111   0.05126   0.00000  Uiso   1.00
H224   H     0.14726   0.65387   0.04349   0.00000  Uiso   1.00
C225   C     0.04384   0.48663   0.06699   0.00000  Uiso   1.00
O226   O     0.00016   0.45191   0.08696   0.00000  Uiso   1.00
O227   O     0.06613   0.53033   0.09648   0.00000  Uiso   1.00
H228   H     0.04292   0.52839   0.13383   0.00000  Uiso   1.00
C229   C     0.51433   0.59996   0.25286   0.00000  Uiso   1.00
C230   C     0.46962   0.50710   0.48996   0.00000  Uiso   1.00
C231   C     0.48569   0.52093   0.43728   0.00000  Uiso   1.00
C232   C     0.51783   0.52010   0.01906   0.00000  Uiso   1.00
C233   C     0.57215   0.55958   0.00108   0.00000  Uiso   1.00
C234   C     0.58220   0.57977   0.45204   0.00000  Uiso   1.00
C235   C     0.54076   0.55945   0.41987   0.00000  Uiso   1.00
C236   C     0.51559   0.49367   0.06429   0.00000  Uiso   1.00
C237   C     0.60473   0.55928   0.08207   0.00000  Uiso   1.00
C238   C     0.44508   0.49728   0.40398   0.00000  Uiso   1.00
C239   C     0.52191   0.65579   0.25275   0.00000  Uiso   1.00
C240   C     0.46634   0.49862   0.34743   0.00000  Uiso   1.00
C241   C     0.47225   0.34487   0.25920   0.00000  Uiso   1.00
C242   C     0.48401   0.40009   0.25089   0.00000  Uiso   1.00
C243   C     0.53395   0.50436   0.15286   0.00000  Uiso   1.00
C244   C     0.61548   0.57861   0.03264   0.00000  Uiso   1.00
C245   C     0.55458   0.51690   0.09817   0.00000  Uiso   1.00
C246   C     0.38498   0.46810   0.42496   0.00000  Uiso   1.00
C247   C     0.36478   0.46279   0.47796   0.00000  Uiso   1.00
C248   C     0.40565   0.48313   0.01121   0.00000  Uiso   1.00
Cu249  Cu    0.44043   0.49439   0.24436   0.00000  Uiso   1.00
Cu250  Cu    0.55957   0.50561   0.25565   0.00000  Uiso   1.00
H251   H     0.63454   0.57821   0.10811   0.00000  Uiso   1.00
H252   H     0.33624   0.53803   0.29086   0.00000  Uiso   1.00
H253   H     0.66342   0.46129   0.20967   0.00000  Uiso   1.00
H254   H     0.62323   0.61023   0.43790   0.00000  Uiso   1.00
H255   H     0.65589   0.61012   0.02002   0.00000  Uiso   1.00
H256   H     0.35288   0.45013   0.40032   0.00000  Uiso   1.00
H257   H     0.64964   0.44375   0.49313   0.00000  Uiso   1.00
H258   H     0.55097   0.57623   0.38209   0.00000  Uiso   1.00
H259   H     0.56986   0.34541   0.24270   0.00000  Uiso   1.00
N260   N     0.64908   0.51407   0.26416   0.00000  Uiso   1.00
N261   N     0.35092   0.48593   0.23584   0.00000  Uiso   1.00
O262   O     0.46131   0.57141   0.24633   0.00000  Uiso   1.00
O263   O     0.56191   0.58089   0.25587   0.00000  Uiso   1.00
O264   O     0.42515   0.49293   0.31840   0.00000  Uiso   1.00
O265   O     0.52575   0.50241   0.32793   0.00000  Uiso   1.00
O266   O     0.43809   0.41911   0.24414   0.00000  Uiso   1.00
O267   O     0.53869   0.42859   0.25367   0.00000  Uiso   1.00
O268   O     0.47425   0.49759   0.17207   0.00000  Uiso   1.00
O269   O     0.57485   0.50707   0.18161   0.00000  Uiso   1.00
C270   C     0.40599   0.65068   0.27996   0.00000  Uiso   1.00
O271   O     0.39218   0.63150   0.32266   0.00000  Uiso   1.00
O272   O     0.35909   0.64711   0.25179   0.00000  Uiso   1.00
H273   H     0.37609   0.66165   0.21588   0.00000  Uiso   1.00
O274   O     0.47476   0.44575   0.07659   0.00000  Uiso   1.00
C275   C     0.50324   0.40552   0.05069   0.00000  Uiso   1.00
H276   H     0.54777   0.40557   0.06319   0.00000  Uiso   1.00
H277   H     0.51326   0.41007   0.00810   0.00000  Uiso   1.00
C278   C     0.45872   0.35258   0.06368   0.00000  Uiso   1.00
H279   H     0.44849   0.34646   0.10591   0.00000  Uiso   1.00
H280   H     0.41394   0.35111   0.05126   0.00000  Uiso   1.00
H281   H     0.48060   0.65387   0.04349   0.00000  Uiso   1.00
C282   C     0.37717   0.48663   0.06699   0.00000  Uiso   1.00
O283   O     0.33349   0.45191   0.08696   0.00000  Uiso   1.00
O284   O     0.39946   0.53033   0.09648   0.00000  Uiso   1.00
H285   H     0.37625   0.52839   0.13383   0.00000  Uiso   1.00
C286   C     0.84767   0.59996   0.25286   0.00000  Uiso   1.00
C287   C     0.80295   0.50710   0.48996   0.00000  Uiso   1.00
C288   C     0.81902   0.52093   0.43728   0.00000  Uiso   1.00
C289   C     0.85116   0.52010   0.01906   0.00000  Uiso   1.00
C290   C     0.90548   0.55958   0.00108   0.00000  Uiso   1.00
C291   C     0.91554   0.57977   0.45204   0.00000  Uiso   1.00
C292   C     0.87410   0.55945   0.41987   0.00000  Uiso   1.00
C293   C     0.84893   0.49367   0.06429   0.00000  Uiso   1.00
C294   C     0.93807   0.55928   0.08207   0.00000  Uiso   1.00
C295   C     0.77841   0.49728   0.40398   0.00000  Uiso   1.00
C296   C     0.85524   0.65579   0.25275   0.00000  Uiso   1.00
C297   C     0.79967   0.49862   0.34743   0.00000  Uiso   1.00
C298   C     0.80558   0.34487   0.25920   0.00000  Uiso   1.00
C299   C     0.81735   0.40009   0.25089   0.00000  Uiso   1.00
C300   C     0.86729   0.50436   0.15286   0.00000  Uiso   1.00
C301   C     0.94881   0.57861   0.03264   0.00000  Uiso   1.00
C302   C     0.88791   0.51690   0.09817   0.00000  Uiso   1.00
C303   C     0.71831   0.46810   0.42496   0.00000  Uiso   1.00
C304   C     0.69812   0.46279   0.47796   0.00000  Uiso   1.00
C305   C     0.73898   0.48313   0.01121   0.00000  Uiso   1.00
Cu306  Cu    0.77377   0.49439   0.24436   0.00000  Uiso   1.00
Cu307  Cu    0.89290   0.50561   0.25565   0.00000  Uiso   1.00
H308   H     0.96788   0.57821   0.10811   0.00000  Uiso   1.00
H309   H     0.66958   0.53803   0.29086   0.00000  Uiso   1.00
H310   H     0.99675   0.46129   0.20967   0.00000  Uiso   1.00
H311   H     0.95656   0.61023   0.43790   0.00000  Uiso   1.00
H312   H     0.98922   0.61012   0.02002   0.00000  Uiso   1.00
H313   H     0.68621   0.45013   0.40032   0.00000  Uiso   1.00
H314   H     0.98298   0.44375   0.49313   0.00000  Uiso   1.00
H315   H     0.88430   0.57623   0.38209   0.00000  Uiso   1.00
H316   H     0.90319   0.34541   0.24270   0.00000  Uiso   1.00
N317   N     0.98241   0.51407   0.26416   0.00000  Uiso   1.00
N318   N     0.68426   0.48593   0.23584   0.00000  Uiso   1.00
O319   O     0.79464   0.57141   0.24633   0.00000  Uiso   1.00
O320   O     0.89524   0.58089   0.25587   0.00000  Uiso   1.00
O321   O     0.75848   0.49293   0.31840   0.00000  Uiso   1.00
O322   O     0.85908   0.50241   0.32793   0.00000  Uiso   1.00
O323   O     0.77142   0.41911   0.24414   0.00000  Uiso   1.00
O324   O     0.87203   0.42859   0.25367   0.00000  Uiso   1.00
O325   O     0.80758   0.49759   0.17207   0.00000  Uiso   1.00
O326   O     0.90819   0.50707   0.18161   0.00000  Uiso   1.00
C327   C     0.73932   0.65068   0.27996   0.00000  Uiso   1.00
O328   O     0.72551   0.63150   0.32266   0.00000  Uiso   1.00
O329   O     0.69242   0.64711   0.25179   0.00000  Uiso   1.00
H330   H     0.70942   0.66165   0.21588   0.00000  Uiso   1.00
O331   O     0.80810   0.44575   0.07659   0.00000  Uiso   1.00
C332   C     0.83657   0.40552   0.05069   0.00000  Uiso   1.00
H333   H     0.88110   0.40557   0.06319   0.00000  Uiso   1.00
H334   H     0.84659   0.41007   0.00810   0.00000  Uiso   1.00
C335   C     0.79205   0.35258   0.06368   0.00000  Uiso   1.00
H336   H     0.78183   0.34646   0.10591   0.00000  Uiso   1.00
H337   H     0.74728   0.35111   0.05126   0.00000  Uiso   1.00
H338   H     0.81393   0.65387   0.04349   0.00000  Uiso   1.00
C339   C     0.71051   0.48663   0.06699   0.00000  Uiso   1.00
O340   O     0.66682   0.45191   0.08696   0.00000  Uiso   1.00
O341   O     0.73280   0.53033   0.09648   0.00000  Uiso   1.00
H342   H     0.70958   0.52839   0.13383   0.00000  Uiso   1.00
C343   C     0.18100   0.93329   0.25286   0.00000  Uiso   1.00
C344   C     0.13628   0.84043   0.48996   0.00000  Uiso   1.00
C345   C     0.15236   0.85426   0.43728   0.00000  Uiso   1.00
C346   C     0.18450   0.85343   0.01906   0.00000  Uiso   1.00
C347   C     0.23881   0.89291   0.00108   0.00000  Uiso   1.00
C348   C     0.24887   0.91310   0.45204   0.00000  Uiso   1.00
C349   C     0.20743   0.89279   0.41987   0.00000  Uiso   1.00
C350   C     0.18226   0.82700   0.06429   0.00000  Uiso   1.00
C351   C     0.27140   0.89261   0.08207   0.00000  Uiso   1.00
C352   C     0.11174   0.83061   0.40398   0.00000  Uiso   1.00
C353   C     0.18857   0.98912   0.25275   0.00000  Uiso   1.00
C354   C     0.13301   0.83195   0.34743   0.00000  Uiso   1.00
C355   C     0.13891   0.67820   0.25920   0.00000  Uiso   1.00
C356   C     0.15068   0.73343   0.25089   0.00000  Uiso   1.00
C357   C     0.20062   0.83769   0.15286   0.00000  Uiso   1.00
C358   C     0.28215   0.91195   0.03264   0.00000  Uiso   1.00
C359   C     0.22125   0.85024   0.09817   0.00000  Uiso   1.00
C360   C     0.05164   0.80143   0.42496   0.00000  Uiso   1.00
C361   C     0.03145   0.79612   0.47796   0.00000  Uiso   1.00
C362   C     0.07232   0.81646   0.01121   0.00000  Uiso   1.00
Cu363  Cu    0.10710   0.82772   0.24436   0.00000  Uiso   1.00
Cu364  Cu    0.22623   0.83895   0.25565   0.00000  Uiso   1.00
H365   H     0.30121   0.91154   0.10811   0.00000  Uiso   1.00
H366   H     0.00291   0.87136   0.29086   0.00000  Uiso   1.00
H367   H     0.33008   0.79462   0.20967   0.00000  Uiso   1.00
H368   H     0.28990   0.94356   0.43790   0.00000  Uiso   1.00
H369   H     0.32256   0.94346   0.02002   0.00000  Uiso   1.00
H370   H     0.01955   0.78346   0.40032   0.00000  Uiso   1.00
H371   H     0.31631   0.77709   0.49313   0.00000  Uiso   1.00
H372   H     0.21764   0.90957   0.38209   0.00000  Uiso   1.00
H373   H     0.23652   0.67874   0.24270   0.00000  Uiso   1.00
N374   N     0.31574   0.84741   0.26416   0.00000  Uiso   1.00
N375   N     0.01759   0.81926   0.23584   0.00000  Uiso   1.00
O376   O     0.12797   0.90474   0.24633   0.00000  Uiso   1.00
O377   O     0.22858   0.91422   0.25587   0.00000  Uiso   1.00
O378   O     0.09181   0.82627   0.31840   0.00000  Uiso   1.00
O379   O     0.19242   0.83575   0.32793   0.00000  Uiso   1.00
O380   O     0.10476   0.75245   0.24414   0.00000  Uiso   1.00
O381   O     0.20536   0.76193   0.25367   0.00000  Uiso   1.00
O382   O     0.14092   0.83092   0.17207   0.00000  Uiso   1.00
O383   O     0.24152   0.84040   0.18161   0.00000  Uiso   1.00
C384   C     0.07265   0.98402   0.27996   0.00000  Uiso   1.00
O385   O     0.05884   0.96483   0.32266   0.00000  Uiso   1.00
O386   O     0.02576   0.98045   0.25179   0.00000  Uiso   1.00
H387   H     0.04275   0.99499   0.21588   0.00000  Uiso   1.00
O388   O     0.14143   0.77908   0.07659   0.00000  Uiso   1.00
C389   C     0.16990   0.73885   0.05069   0.00000  Uiso   1.00
H390   H     0.21444   0.73890   0.06319   0.00000  Uiso   1.00
H391   H     0.17992   0.74340   0.00810   0.00000  Uiso   1.00
C392   C     0.12539   0.68591   0.06368   0.00000  Uiso   1.00
H393   H     0.11516   0.67979   0.10591   0.00000  Uiso   1.00
H394   H     0.08061   0.68444   0.05126   0.00000  Uiso   1.00
H395   H     0.14726   0.98721   0.04349   0.00000  Uiso   1.00
C396   C     0.04384   0.81996   0.06699   0.00000  Uiso   1.00
O397   O     0.00016   0.78524   0.08696   0.00000  Uiso   1.00
O398   O     0.06613   0.86366   0.09648   0.00000  Uiso   1.00
H399   H     0.04292   0.86172   0.13383   0.00000  Uiso   1.00
C400   C     0.51433   0.93329   0.25286   0.00000  Uiso   1.00
C401   C     0.46962   0.84043   0.48996   0.00000  Uiso   1.00
C402   C     0.48569   0.85426   0.43728   0.00000  Uiso   1.00
C403   C     0.51783   0.85343   0.01906   0.00000  Uiso   1.00
C404   C     0.57215   0.89291   0.00108   0.00000  Uiso   1.00
C405   C     0.58220   0.91310   0.45204   0.00000  Uiso   1.00
C406   C     0.54076   0.89279   0.41987   0.00000  Uiso   1.00
C407   C     0.51559   0.82700   0.06429   0.00000  Uiso   1.00
C408   C     0.60473   0.89261   0.08207   0.00000  Uiso   1.00
C409   C     0.44508   0.83061   0.40398   0.00000  Uiso   1.00
C410   C     0.52191   0.98912   0.25275   0.00000  Uiso   1.00
C411   C     0.46634   0.83195   0.34743   0.00000  Uiso   1.00
C412   C     0.47225   0.67820   0.25920   0.00000  Uiso   1.00
C413   C     0.48401   0.73343   0.25089   0.00000  Uiso   1.00
C414   C     0.53395   0.83769   0.15286   0.00000  Uiso   1.00
C415   C     0.61548   0.91195   0.03264   0.00000  Uiso   1.00
C416   C     0.55458   0.85024   0.09817   0.00000  Uiso   1.00
C417   C     0.38498   0.80143   0.42496   0.00000  Uiso   1.00
C418   C     0.36478   0.79612   0.47796   0.00000  Uiso   1.00
C419   C     0.40565   0.81646   0.01121   0.00000  Uiso   1.00
Cu420  Cu    0.44043   0.82772   0.24436   0.00000  Uiso   1.00
Cu421  Cu    0.55957   0.83895   0.25565   0.00000  Uiso   1.00
H422   H     0.63454   0.91154   0.10811   0.00000  Uiso   1.00
H423   H     0.33624   0.87136   0.29086   0.00000  Uiso   1.00
H424   H     0.66342   0.79462   0.20967   0.00000  Uiso   1.00
H425   H     0.62323   0.94356   0.43790   0.00000  Uiso   1.00
H426   H     0.65589   0.94346   0.02002   0.00000  Uiso   1.00
H427   H     0.35288   0.78346   0.40032   0.00000  Uiso   1.00
H428   H     0.64964   0.77709   0.49313   0.00000  Uiso   1.00
H429   H     0.55097   0.90957   0.38209   0.00000  Uiso   1.00
H430   H     0.56986   0.67874   0.24270   0.00000  Uiso   1.00
N431   N     0.64908   0.84741   0.26416   0.00000  Uiso   1.00
N432   N     0.35092   0.81926   0.23584   0.00000  Uiso   1.00
O433   O     0.46131   0.90474   0.24633   0.00000  Uiso   1.00
O434   O     0.56191   0.91422   0.25587   0.00000  Uiso   1.00
O435   O     0.42515   0.82627   0.31840   0.00000  Uiso   1.00
O436   O     0.52575   0.83575   0.32793   0.00000  Uiso   1.00
O437   O     0.43809   0.75245   0.24414   0.00000  Uiso   1.00
O438   O     0.53869   0.76193   0.25367   0.00000  Uiso   1.00
O439   O     0.47425   0.83092   0.17207   0.00000  Uiso   1.00
O440   O     0.57485   0.84040   0.18161   0.00000  Uiso   1.00
C441   C     0.40599   0.98402   0.27996   0.00000  Uiso   1.00
O442   O     0.39218   0.96483   0.32266   0.00000  Uiso   1.00
O443   O     0.35909   0.98045   0.25179   0.00000  Uiso   1.00
H444   H     0.37609   0.99499   0.21588   0.00000  Uiso   1.00
O445   O     0.47476   0.77908   0.07659   0.00000  Uiso   1.00
C446   C     0.50324   0.73885   0.05069   0.00000  Uiso   1.00
H447   H     0.54777   0.73890   0.06319   0.00000  Uiso   1.00
H448   H     0.51326   0.74340   0.00810   0.00000  Uiso   1.00
C449   C     0.45872   0.68591   0.06368   0.00000  Uiso   1.00
H450   H     0.44849   0.67979   0.10591   0.00000  Uiso   1.00
H451   H     0.41394   0.68444   0.05126   0.00000  Uiso   1.00
H452   H     0.48060   0.98721   0.04349   0.00000  Uiso   1.00
C453   C     0.37717   0.81996   0.06699   0.00000  Uiso   1.00
O454   O     0.33349   0.78524   0.08696   0.00000  Uiso   1.00
O455   O     0.39946   0.86366   0.09648   0.00000  Uiso   1.00
H456   H     0.37625   0.86172   0.13383   0.00000  Uiso   1.00
C457   C     0.84767   0.93329   0.25286   0.00000  Uiso   1.00
C458   C     0.80295   0.84043   0.48996   0.00000  Uiso   1.00
C459   C     0.81902   0.85426   0.43728   0.00000  Uiso   1.00
C460   C     0.85116   0.85343   0.01906   0.00000  Uiso   1.00
C461   C     0.90548   0.89291   0.00108   0.00000  Uiso   1.00
C462   C     0.91554   0.91310   0.45204   0.00000  Uiso   1.00
C463   C     0.87410   0.89279   0.41987   0.00000  Uiso   1.00
C464   C     0.84893   0.82700   0.06429   0.00000  Uiso   1.00
C465   C     0.93807   0.89261   0.08207   0.00000  Uiso   1.00
C466   C     0.77841   0.83061   0.40398   0.00000  Uiso   1.00
C467   C     0.85524   0.98912   0.25275   0.00000  Uiso   1.00
C468   C     0.79967   0.83195   0.34743   0.00000  Uiso   1.00
C469   C     0.80558   0.67820   0.25920   0.00000  Uiso   1.00
C470   C     0.81735   0.73343   0.25089   0.00000  Uiso   1.00
C471   C     0.86729   0.83769   0.15286   0.00000  Uiso   1.00
C472   C     0.94881   0.91195   0.03264   0.00000  Uiso   1.00
C473   C     0.88791   0.85024   0.09817   0.00000  Uiso   1.00
C474   C     0.71831   0.80143   0.42496   0.00000  Uiso   1.00
C475   C     0.69812   0.79612   0.47796   0.00000  Uiso   1.00
C476   C     0.73898   0.81646   0.01121   0.00000  Uiso   1.00
Cu477  Cu    0.77377   0.82772   0.24436   0.00000  Uiso   1.00
Cu478  Cu    0.89290   0.83895   0.25565   0.00000  Uiso   1.00
H479   H     0.96788   0.91154   0.10811   0.00000  Uiso   1.00
H480   H     0.66958   0.87136   0.29086   0.00000  Uiso   1.00
H481   H     0.99675   0.79462   0.20967   0.00000  Uiso   1.00
H482   H     0.95656   0.94356   0.43790   0.00000  Uiso   1.00
H483   H     0.98922   0.94346   0.02002   0.00000  Uiso   1.00
H484   H     0.68621   0.78346   0.40032   0.00000  Uiso   1.00
H485   H     0.98298   0.77709   0.49313   0.00000  Uiso   1.00
H486   H     0.88430   0.90957   0.38209   0.00000  Uiso   1.00
H487   H     0.90319   0.67874   0.24270   0.00000  Uiso   1.00
N488   N     0.98241   0.84741   0.26416   0.00000  Uiso   1.00
N489   N     0.68426   0.81926   0.23584   0.00000  Uiso   1.00
O490   O     0.79464   0.90474   0.24633   0.00000  Uiso   1.00
O491   O     0.89524   0.91422   0.25587   0.00000  Uiso   1.00
O492   O     0.75848   0.82627   0.31840   0.00000  Uiso   1.00
O493   O     0.85908   0.83575   0.32793   0.00000  Uiso   1.00
O494   O     0.77142   0.75245   0.24414   0.00000  Uiso   1.00
O495   O     0.87203   0.76193   0.25367   0.00000  Uiso   1.00
O496   O     0.80758   0.83092   0.17207   0.00000  Uiso   1.00
O497   O     0.90819   0.84040   0.18161   0.00000  Uiso   1.00
C498   C     0.73932   0.98402   0.27996   0.00000  Uiso   1.00
O499   O     0.72551   0.96483   0.32266   0.00000  Uiso   1.00
O500   O     0.69242   0.98045   0.25179   0.00000  Uiso   1.00
H501   H     0.70942   0.99499   0.21588   0.00000  Uiso   1.00
O502   O     0.80810   0.77908   0.07659   0.00000  Uiso   1.00
C503   C     0.83657   0.73885   0.05069   0.00000  Uiso   1.00
H504   H     0.88110   0.73890   0.06319   0.00000  Uiso   1.00
H505   H     0.84659   0.74340   0.00810   0.00000  Uiso   1.00
C506   C     0.79205   0.68591   0.06368   0.00000  Uiso   1.00
H507   H     0.78183   0.67979   0.10591   0.00000  Uiso   1.00
H508   H     0.74728   0.68444   0.05126   0.00000  Uiso   1.00
H509   H     0.81393   0.98721   0.04349   0.00000  Uiso   1.00
C510   C     0.71051   0.81996   0.06699   0.00000  Uiso   1.00
O511   O     0.66682   0.78524   0.08696   0.00000  Uiso   1.00
O512   O     0.73280   0.86366   0.09648   0.00000  Uiso   1.00
H513   H     0.70958   0.86172   0.13383   0.00000  Uiso   1.00
C514   C     0.18100   0.26662   0.75286   0.00000  Uiso   1.00
C515   C     0.13628   0.17376   0.98996   0.00000  Uiso   1.00
C516   C     0.15236   0.18759   0.93728   0.00000  Uiso   1.00
C517   C     0.18450   0.18677   0.51906   0.00000  Uiso   1.00
C518   C     0.23881   0.22624   0.50108   0.00000  Uiso   1.00
C519   C     0.24887   0.24643   0.95204   0.00000  Uiso   1.00
C520   C     0.20743   0.22612   0.91987   0.00000  Uiso   1.00
C521   C     0.18226   0.16033   0.56429   0.00000  Uiso   1.00
C522   C     0.27140   0.22594   0.58207   0.00000  Uiso   1.00
C523   C     0.11174   0.16395   0.90398   0.00000  Uiso   1.00
C524   C     0.18857   0.32245   0.75275   0.00000  Uiso   1.00
C525   C     0.13301   0.16529   0.84743   0.00000  Uiso   1.00
C526   C     0.13891   0.01154   0.75920   0.00000  Uiso   1.00
C527   C     0.15068   0.06676   0.75089   0.00000  Uiso   1.00
C528   C     0.20062   0.17102   0.65286   0.00000  Uiso   1.00
C529   C     0.28215   0.24528   0.53264   0.00000  Uiso   1.00
C530   C     0.22125   0.18357   0.59817   0.00000  Uiso   1.00
C531   C     0.05164   0.13476   0.92496   0.00000  Uiso   1.00
C532   C     0.03145   0.12945   0.97796   0.00000  Uiso   1.00
C533   C     0.07232   0.14979   0.51121   0.00000  Uiso   1.00
Cu534  Cu    0.10710   0.16105   0.74436   0.00000  Uiso   1.00
Cu535  Cu    0.22623   0.17228   0.75565   0.00000  Uiso   1.00
H536   H     0.30121   0.24487   0.60811   0.00000  Uiso   1.00
H537   H     0.00291   0.20470   0.79086   0.00000  Uiso   1.00
H538   H     0.33008   0.12796   0.70967   0.00000  Uiso   1.00
H539   H     0.28990   0.27690   0.93790   0.00000  Uiso   1.00
H540   H     0.32256   0.27679   0.52002   0.00000  Uiso   1.00
H541   H     0.01955   0.11679   0.90032   0.00000  Uiso   1.00
H542   H     0.31631   0.11042   0.99313   0.00000  Uiso   1.00
H543   H     0.21764   0.24290   0.88209   0.00000  Uiso   1.00
H544   H     0.23652   0.01207   0.74270   0.00000  Uiso   1.00
N545   N     0.31574   0.18074   0.76416   0.00000  Uiso   1.00
N546   N     0.01759   0.15259   0.73584   0.00000  Uiso   1.00
O547   O     0.12797   0.23807   0.74633   0.00000  Uiso   1.00
O548   O     0.22858   0.24755   0.75587   0.00000  Uiso   1.00
O549   O     0.09181   0.15960   0.81840   0.00000  Uiso   1.00
O550   O     0.19242   0.16908   0.82793   0.00000  Uiso   1.00
O551   O     0.10476   0.08578   0.74414   0.00000  Uiso   1.00
O552   O     0.20536   0.09526   0.75367   0.00000  Uiso   1.00
O553   O     0.14092   0.16425   0.67207   0.00000  Uiso   1.00
O554   O     0.24152   0.17373   0.68161   0.00000  Uiso   1.00
C555   C     0.07265   0.31735   0.77996   0.00000  Uiso   1.00
O556   O     0.05884   0.29817   0.82266   0.00000  Uiso   1.00
O557   O     0.02576   0.31378   0.75179   0.00000  Uiso   1.00
H558   H     0.04275   0.32832   0.71588   0.00000  Uiso   1.00
O559   O     0.14143   0.11241   0.57659   0.00000  Uiso   1.00
C560   C     0.16990   0.07218   0.55069   0.00000  Uiso   1.00
H561   H     0.21444   0.07223   0.56319   0.00000  Uiso   1.00
H562   H     0.17992   0.07674   0.50810   0.00000  Uiso   1.00
C563   C     0.12539   0.01925   0.56368   0.00000  Uiso   1.00
H564   H     0.11516   0.01312   0.60591   0.00000  Uiso   1.00
H565   H     0.08061   0.01778   0.55126   0.00000  Uiso   1.00
H566   H     0.14726   0.32054   0.54349   0.00000  Uiso   1.00
C567   C     0.04384   0.15330   0.56699   0.00000  Uiso   1.00
O568   O     0.00016   0.11857   0.58696   0.00000  Uiso   1.00
O569   O     0.06613   0.19699   0.59648   0.00000  Uiso   1.00
H570   H     0.04292   0.19506   0.63383   0.00000  Uiso   1.00
C571   C     0.51433   0.26662   0.75286   0.00000  Uiso   1.00
C572   C     0.46962   0.17376   0.98996   0.00000  Uiso   1.00
C573   C     0.48569   0.18759   0.93728   0.00000  Uiso   1.00
C574   C     0.51783   0.18677   0.51906   0.00000  Uiso   1.00
C575   C     0.57215   0.22624   0.50108   0.00000  Uiso   1.00
C576   C     0.58220   0.24643   0.95204   0.00000  Uiso   1.00
C577   C     0.54076   0.22612   0.91987   0.00000  Uiso   1.00
C578   C     0.51559   0.16033   0.56429   0.00000  Uiso   1.00
C579   C     0.60473   0.22594   0.58207   0.00000  Uiso   1.00
C580   C     0.44508   0.16395   0.90398   0.00000  Uiso   1.00
C581   C     0.52191   0.32245   0.75275   0.00000  Uiso   1.00
C582   C     0.46634   0.16529   0.84743   0.00000  Uiso   1.00
C583   C     0.47225   0.01154   0.75920   0.00000  Uiso   1.00
C584   C     0.48401   0.06676   0.75089   0.00000  Uiso   1.00
C585   C     0.53395   0.17102   0.65286   0.00000  Uiso   1.00
C586   C     0.61548   0.24528   0.53264   0.00000  Uiso   1.00
C587   C     0.55458   0.18357   0.59817   0.00000  Uiso   1.00
C588   C     0.38498   0.13476   0.92496   0.00000  Uiso   1.00
C589   C     0.36478   0.12945   0.97796   0.00000  Uiso   1.00
C590   C     0.40565   0.14979   0.51121   0.00000  Uiso   1.00
Cu591  Cu    0.44043   0.16105   0.74436   0.00000  Uiso   1.00
Cu592  Cu    0.55957   0.17228   0.75565   0.00000  Uiso   1.00
H593   H     0.63454   0.24487   0.60811   0.00000  Uiso   1.00
H594   H     0.33624   0.20470   0.79086   0.00000  Uiso   1.00
H595   H     0.66342   0.12796   0.70967   0.00000  Uiso   1.00
H596   H     0.62323   0.27690   0.93790   0.00000  Uiso   1.00
H597   H     0.65589   0.27679   0.52002   0.00000  Uiso   1.00
H598   H     0.35288   0.11679   0.90032   0.00000  Uiso   1.00
H599   H     0.64964   0.11042   0.99313   0.00000  Uiso   1.00
H600   H     0.55097   0.24290   0.88209   0.00000  Uiso   1.00
H601   H     0.56986   0.01207   0.74270   0.00000  Uiso   1.00
N602   N     0.64908   0.18074   0.76416   0.00000  Uiso   1.00
N603   N     0.35092   0.15259   0.73584   0.00000  Uiso   1.00
O604   O     0.46131   0.23807   0.74633   0.00000  Uiso   1.00
O605   O     0.56191   0.24755   0.75587   0.00000  Uiso   1.00
O606   O     0.42515   0.15960   0.81840   0.00000  Uiso   1.00
O607   O     0.52575   0.16908   0.82793   0.00000  Uiso   1.00
O608   O     0.43809   0.08578   0.74414   0.00000  Uiso   1.00
O609   O     0.53869   0.09526   0.75367   0.00000  Uiso   1.00
O610   O     0.47425   0.16425   0.67207   0.00000  Uiso   1.00
O611   O     0.57485   0.17373   0.68161   0.00000  Uiso   1.00
C612   C     0.40599   0.31735   0.77996   0.00000  Uiso   1.00
O613   O     0.39218   0.29817   0.82266   0.00000  Uiso   1.00
O614   O     0.35909   0.31378   0.75179   0.00000  Uiso   1.00
H615   H     0.37609   0.32832   0.71588   0.00000  Uiso   1.00
O616   O     0.47476   0.11241   0.57659   0.00000  Uiso   1.00
C617   C     0.50324   0.07218   0.55069   0.00000  Uiso   1.00
H618   H     0.54777   0.07223   0.56319   0.00000  Uiso   1.00
H619   H     0.51326   0.07674   0.50810   0.00000  Uiso   1.00
C620   C     0.45872   0.01925   0.56368   0.00000  Uiso   1.00
H621   H     0.44849   0.01312   0.60591   0.00000  Uiso   1.00
H622   H     0.41394   0.01778   0.55126   0.00000  Uiso   1.00
H623   H     0.48060   0.32054   0.54349   0.00000  Uiso   1.00
C624   C     0.37717   0.15330   0.56699   0.00000  Uiso   1.00
O625   O     0.33349   0.11857   0.58696   0.00000  Uiso   1.00
O626   O     0.39946   0.19699   0.59648   0.00000  Uiso   1.00
H627   H     0.37625   0.19506   0.63383   0.00000  Uiso   1.00
C628   C     0.84767   0.26662   0.75286   0.00000  Uiso   1.00
C629   C     0.80295   0.17376   0.98996   0.00000  Uiso   1.00
C630   C     0.81902   0.18759   0.93728   0.00000  Uiso   1.00
C631   C     0.85116   0.18677   0.51906   0.00000  Uiso   1.00
C632   C     0.90548   0.22624   0.50108   0.00000  Uiso   1.00
C633   C     0.91554   0.24643   0.95204   0.00000  Uiso   1.00
C634   C     0.87410   0.22612   0.91987   0.00000  Uiso   1.00
C635   C     0.84893   0.16033   0.56429   0.00000  Uiso   1.00
C636   C     0.93807   0.22594   0.58207   0.00000  Uiso   1.00
C637   C     0.77841   0.16395   0.90398   0.00000  Uiso   1.00
C638   C     0.85524   0.32245   0.75275   0.00000  Uiso   1.00
C639   C     0.79967   0.16529   0.84743   0.00000  Uiso   1.00
C640   C     0.80558   0.01154   0.75920   0.00000  Uiso   1.00
C641   C     0.81735   0.06676   0.75089   0.00000  Uiso   1.00
C642   C     0.86729   0.17102   0.65286   0.00000  Uiso   1.00
C643   C     0.94881   0.24528   0.53264   0.00000  Uiso   1.00
C644   C     0.88791   0.18357   0.59817   0.00000  Uiso   1.00
C645   C     0.71831   0.13476   0.92496   0.00000  Uiso   1.00
C646   C     0.69812   0.12945   0.97796   0.00000  Uiso   1.00
C647   C     0.73898   0.14979   0.51121   0.00000  Uiso   1.00
Cu648  Cu    0.77377   0.16105   0.74436   0.00000  Uiso   1.00
Cu649  Cu    0.89290   0.17228   0.75565   0.00000  Uiso   1.00
H650   H     0.96788   0.24487   0.60811   0.00000  Uiso   1.00
H651   H     0.66958   0.20470   0.79086   0.00000  Uiso   1.00
H652   H     0.99675   0.12796   0.70967   0.00000  Uiso   1.00
H653   H     0.95656   0.27690   0.93790   0.00000  Uiso   1.00
H654   H     0.98922   0.27679   0.52002   0.00000  Uiso   1.00
H655   H     0.68621   0.11679   0.90032   0.00000  Uiso   1.00
H656   H     0.98298   0.11042   0.99313   0.00000  Uiso   1.00
H657   H     0.88430   0.24290   0.88209   0.00000  Uiso   1.00
H658   H     0.90319   0.01207   0.74270   0.00000  Uiso   1.00
N659   N     0.98241   0.18074   0.76416   0.00000  Uiso   1.00
N660   N     0.68426   0.15259   0.73584   0.00000  Uiso   1.00
O661   O     0.79464   0.23807   0.74633   0.00000  Uiso   1.00
O662   O     0.89524   0.24755   0.75587   0.00000  Uiso   1.00
O663   O     0.75848   0.15960   0.81840   0.00000  Uiso   1.00
O664   O     0.85908   0.16908   0.82793   0.00000  Uiso   1.00
O665   O     0.77142   0.08578   0.74414   0.00000  Uiso   1.00
O666   O     0.87203   0.09526   0.75367   0.00000  Uiso   1.00
O667   O     0.80758   0.16425   0.67207   0.00000  Uiso   1.00
O668   O     0.90819   0.17373   0.68161   0.00000  Uiso   1.00
C669   C     0.73932   0.31735   0.77996   0.00000  Uiso   1.00
O670   O     0.72551   0.29817   0.82266   0.00000  Uiso   1.00
O671   O     0.69242   0.31378   0.75179   0.00000  Uiso   1.00
H672   H     0.70942   0.32832   0.71588   0.00000  Uiso   1.00
O673   O     0.80810   0.11241   0.57659   0.00000  Uiso   1.00
C674   C     0.83657   0.07218   0.55069   0.00000  Uiso   1.00
H675   H     0.88110   0.07223   0.56319   0.00000  Uiso   1.00
H676   H     0.84659   0.07674   0.50810   0.00000  Uiso   1.00
C677   C     0.79205   0.01925   0.56368   0.00000  Uiso   1.00
H678   H     0.78183   0.01312   0.60591   0.00000  Uiso   1.00
H679   H     0.74728   0.01778   0.55126   0.00000  Uiso   1.00
H680   H     0.81393   0.32054   0.54349   0.00000  Uiso   1.00
C681   C     0.71051   0.15330   0.56699   0.00000  Uiso   1.00
O682   O     0.66682   0.11857   0.58696   0.00000  Uiso   1.00
O683   O     0.73280   0.19699   0.59648   0.00000  Uiso   1.00
H684   H     0.70958   0.19506   0.63383   0.00000  Uiso   1.00
C685   C     0.18100   0.59996   0.75286   0.00000  Uiso   1.00
C686   C     0.13628   0.50710   0.98996   0.00000  Uiso   1.00
C687   C     0.15236   0.52093   0.93728   0.00000  Uiso   1.00
C688   C     0.18450   0.52010   0.51906   0.00000  Uiso   1.00
C689   C     0.23881   0.55958   0.50108   0.00000  Uiso   1.00
C690   C     0.24887   0.57977   0.95204   0.00000  Uiso   1.00
C691   C     0.20743   0.55945   0.91987   0.00000  Uiso   1.00
C692   C     0.18226   0.49367   0.56429   0.00000  Uiso   1.00
C693   C     0.27140   0.55928   0.58207   0.00000  Uiso   1.00
C694   C     0.11174   0.49728   0.90398   0.00000  Uiso   1.00
C695   C     0.18857   0.65579   0.75275   0.00000  Uiso   1.00
C696   C     0.13301   0.49862   0.84743   0.00000  Uiso   1.00
C697   C     0.13891   0.34487   0.75920   0.00000  Uiso   1.00
C698   C     0.15068   0.40009   0.75089   0.00000  Uiso   1.00
C699   C     0.20062   0.50436   0.65286   0.00000  Uiso   1.00
C700   C     0.28215   0.57861   0.53264   0.00000  Uiso   1.00
C701   C     0.22125   0.51690   0.59817   0.00000  Uiso   1.00
C702   C     0.05164   0.46810   0.92496   0.00000  Uiso   1.00
C703   C     0.03145   0.46279   0.97796   0.00000  Uiso   1.00
C704   C     0.07232   0.48313   0.51121   0.00000  Uiso   1.00
Cu705  Cu    0.10710   0.49439   0.74436   0.00000  Uiso   1.00
Cu706  Cu    0.22623   0.50561   0.75565   0.00000  Uiso   1.00
H707   H     0.30121   0.57821   0.60811   0.00000  Uiso   1.00
H708   H     0.00291   0.53803   0.79086   0.00000  Uiso   1.00
H709   H     0.33008   0.46129   0.70967   0.00000  Uiso   1.00
H710   H     0.28990   0.61023   0.93790   0.00000  Uiso   1.00
H711   H     0.32256   0.61012   0.52002   0.00000  Uiso   1.00
H712   H     0.01955   0.45013   0.90032   0.00000  Uiso   1.00
H713   H     0.31631   0.44375   0.99313   0.00000  Uiso   1.00
H714   H     0.21764   0.57623   0.88209   0.00000  Uiso   1.00
H715   H     0.23652   0.34541   0.74270   0.00000  Uiso   1.00
N716   N     0.31574   0.51407   0.76416   0.00000  Uiso   1.00
N717   N     0.01759   0.48593   0.73584   0.00000  Uiso   1.00
O718   O     0.12797   0.57141   0.74633   0.00000  Uiso   1.00
O719   O     0.22858   0.58089   0.75587   0.00000  Uiso   1.00
O720   O     0.09181   0.49293   0.81840   0.00000  Uiso   1.00
O721   O     0.19242   0.50241   0.82793   0.00000  Uiso   1.00
O722   O     0.10476   0.41911   0.74414   0.00000  Uiso   1.00
O723   O     0.20536   0.42859   0.75367   0.00000  Uiso   1.00
O724   O     0.14092   0.49759   0.67207   0.00000  Uiso   1.00
O725   O     0.24152   0.50707   0.68161   0.00000  Uiso   1.00
C726   C     0.07265   0.65068   0.77996   0.00000  Uiso   1.00
O727   O     0.05884   0.63150   0.82266   0.00000  Uiso   1.00
O728   O     0.02576   0.64711   0.75179   0.00000  Uiso   1.00
H729   H     0.04275   0.66165   0.71588   0.00000  Uiso   1.00
O730   O     0.14143   0.44575   0.57659   0.00000  Uiso   1.00
C731   C     0.16990   0.40552   0.55069   0.00000  Uiso   1.00
H732   H     0.21444   0.40557   0.56319   0.00000  Uiso   1.00
H733   H     0.17992   0.41007   0.50810   0.00000  Uiso   1.00
C734   C     0.12539   0.35258   0.56368   0.00000  Uiso   1.00
H735   H     0.11516   0.34646   0.60591   0.00000  Uiso   1.00
H736   H     0.08061   0.35111   0.55126   0.00000  Uiso   1.00
H737   H     0.14726   0.65387   0.54349   0.00000  Uiso   1.00
C738   C     0.04384   0.48663   0.56699   0.00000  Uiso   1.00
O739   O     0.00016   0.45191   0.58696   0.00000  Uiso   1.00
O740   O     0.06613   0.53033   0.59648   0.00000  Uiso   1.00
H741   H     0.04292   0.52839   0.63383   0.00000  Uiso   1.00
C742   C     0.51433   0.59996   0.75286   0.00000  Uiso   1.00
C743   C     0.46962   0.50710   0.98996   0.00000  Uiso   1.00
C744   C     0.48569   0.52093   0.93728   0.00000  Uiso   1.00
C745   C     0.51783   0.52010   0.51906   0.00000  Uiso   1.00
C746   C     0.57215   0.55958   0.50108   0.00000  Uiso   1.00
C747   C     0.58220   0.57977   0.95204   0.00000  Uiso   1.00
C748   C     0.54076   0.55945   0.91987   0.00000  Uiso   1.00
C749   C     0.51559   0.49367   0.56429   0.00000  Uiso   1.00
C750   C     0.60473   0.55928   0.58207   0.00000  Uiso   1.00
C751   C     0.44508   0.49728   0.90398   0.00000  Uiso   1.00
C752   C     0.52191   0.65579   0.75275   0.00000  Uiso   1.00
C753   C     0.46634   0.49862   0.84743   0.00000  Uiso   1.00
C754   C     0.47225   0.34487   0.75920   0.00000  Uiso   1.00
C755   C     0.48401   0.40009   0.75089   0.00000  Uiso   1.00
C756   C     0.53395   0.50436   0.65286   0.00000  Uiso   1.00
C757   C     0.61548   0.57861   0.53264   0.00000  Uiso   1.00
C758   C     0.55458   0.51690   0.59817   0.00000  Uiso   1.00
C759   C     0.38498   0.46810   0.92496   0.00000  Uiso   1.00
C760   C     0.36478   0.46279   0.97796   0.00000  Uiso   1.00
C761   C     0.40565   0.48313   0.51121   0.00000  Uiso   1.00
Cu762  Cu    0.44043   0.49439   0.74436   0.00000  Uiso   1.00
Cu763  Cu    0.55957   0.50561   0.75565   0.00000  Uiso   1.00
H764   H     0.63454   0.57821   0.60811   0.00000  Uiso   1.00
H765   H     0.33624   0.53803   0.79086   0.00000  Uiso   1.00
H766   H     0.66342   0.46129   0.70967   0.00000  Uiso   1.00
H767   H     0.62323   0.61023   0.93790   0.00000  Uiso   1.00
H768   H     0.65589   0.61012   0.52002   0.00000  Uiso   1.00
H769   H     0.35288   0.45013   0.90032   0.00000  Uiso   1.00
H770   H     0.64964   0.44375   0.99313   0.00000  Uiso   1.00
H771   H     0.55097   0.57623   0.88209   0.00000  Uiso   1.00
H772   H     0.56986   0.34541   0.74270   0.00000  Uiso   1.00
N773   N     0.64908   0.51407   0.76416   0.00000  Uiso   1.00
N774   N     0.35092   0.48593   0.73584   0.00000  Uiso   1.00
O775   O     0.46131   0.57141   0.74633   0.00000  Uiso   1.00
O776   O     0.56191   0.58089   0.75587   0.00000  Uiso   1.00
O777   O     0.42515   0.49293   0.81840   0.00000  Uiso   1.00
O778   O     0.52575   0.50241   0.82793   0.00000  Uiso   1.00
O779   O     0.43809   0.41911   0.74414   0.00000  Uiso   1.00
O780   O     0.53869   0.42859   0.75367   0.00000  Uiso   1.00
O781   O     0.47425   0.49759   0.67207   0.00000  Uiso   1.00
O782   O     0.57485   0.50707   0.68161   0.00000  Uiso   1.00
C783   C     0.40599   0.65068   0.77996   0.00000  Uiso   1.00
O784   O     0.39218   0.63150   0.82266   0.00000  Uiso   1.00
O785   O     0.35909   0.64711   0.75179   0.00000  Uiso   1.00
H786   H     0.37609   0.66165   0.71588   0.00000  Uiso   1.00
O787   O     0.47476   0.44575   0.57659   0.00000  Uiso   1.00
C788   C     0.50324   0.40552   0.55069   0.00000  Uiso   1.00
H789   H     0.54777   0.40557   0.56319   0.00000  Uiso   1.00
H790   H     0.51326   0.41007   0.50810   0.00000  Uiso   1.00
C791   C     0.45872   0.35258   0.56368   0.00000  Uiso   1.00
H792   H     0.44849   0.34646   0.60591   0.00000  Uiso   1.00
H793   H     0.41394   0.35111   0.55126   0.00000  Uiso   1.00
H794   H     0.48060   0.65387   0.54349   0.00000  Uiso   1.00
C795   C     0.37717   0.48663   0.56699   0.00000  Uiso   1.00
O796   O     0.33349   0.45191   0.58696   0.00000  Uiso   1.00
O797   O     0.39946   0.53033   0.59648   0.00000  Uiso   1.00
H798   H     0.37625   0.52839   0.63383   0.00000  Uiso   1.00
C799   C     0.84767   0.59996   0.75286   0.00000  Uiso   1.00
C800   C     0.80295   0.50710   0.98996   0.00000  Uiso   1.00
C801   C     0.81902   0.52093   0.93728   0.00000  Uiso   1.00
C802   C     0.85116   0.52010   0.51906   0.00000  Uiso   1.00
C803   C     0.90548   0.55958   0.50108   0.00000  Uiso   1.00
C804   C     0.91554   0.57977   0.95204   0.00000  Uiso   1.00
C805   C     0.87410   0.55945   0.91987   0.00000  Uiso   1.00
C806   C     0.84893   0.49367   0.56429   0.00000  Uiso   1.00
C807   C     0.93807   0.55928   0.58207   0.00000  Uiso   1.00
C808   C     0.77841   0.49728   0.90398   0.00000  Uiso   1.00
C809   C     0.85524   0.65579   0.75275   0.00000  Uiso   1.00
C810   C     0.79967   0.49862   0.84743   0.00000  Uiso   1.00
C811   C     0.80558   0.34487   0.75920   0.00000  Uiso   1.00
C812   C     0.81735   0.40009   0.75089   0.00000  Uiso   1.00
C813   C     0.86729   0.50436   0.65286   0.00000  Uiso   1.00
C814   C     0.94881   0.57861   0.53264   0.00000  Uiso   1.00
C815   C     0.88791   0.51690   0.59817   0.00000  Uiso   1.00
C816   C     0.71831   0.46810   0.92496   0.00000  Uiso   1.00
C817   C     0.69812   0.46279   0.97796   0.00000  Uiso   1.00
C818   C     0.73898   0.48313   0.51121   0.00000  Uiso   1.00
Cu819  Cu    0.77377   0.49439   0.74436   0.00000  Uiso   1.00
Cu820  Cu    0.89290   0.50561   0.75565   0.00000  Uiso   1.00
H821   H     0.96788   0.57821   0.60811   0.00000  Uiso   1.00
H822   H     0.66958   0.53803   0.79086   0.00000  Uiso   1.00
H823   H     0.99675   0.46129   0.70967   0.00000  Uiso   1.00
H824   H     0.95656   0.61023   0.93790   0.00000  Uiso   1.00
H825   H     0.98922   0.61012   0.52002   0.00000  Uiso   1.00
H826   H     0.68621   0.45013   0.90032   0.00000  Uiso   1.00
H827   H     0.98298   0.44375   0.99313   0.00000  Uiso   1.00
H828   H     0.88430   0.57623   0.88209   0.00000  Uiso   1.00
H829   H     0.90319   0.34541   0.74270   0.00000  Uiso   1.00
N830   N     0.98241   0.51407   0.76416   0.00000  Uiso   1.00
N831   N     0.68426   0.48593   0.73584   0.00000  Uiso   1.00
O832   O     0.79464   0.57141   0.74633   0.00000  Uiso   1.00
O833   O     0.89524   0.58089   0.75587   0.00000  Uiso   1.00
O834   O     0.75848   0.49293   0.81840   0.00000  Uiso   1.00
O835   O     0.85908   0.50241   0.82793   0.00000  Uiso   1.00
O836   O     0.77142   0.41911   0.74414   0.00000  Uiso   1.00
O837   O     0.87203   0.42859   0.75367   0.00000  Uiso   1.00
O838   O     0.80758   0.49759   0.67207   0.00000  Uiso   1.00
O839   O     0.90819   0.50707   0.68161   0.00000  Uiso   1.00
C840   C     0.73932   0.65068   0.77996   0.00000  Uiso   1.00
O841   O     0.72551   0.63150   0.82266   0.00000  Uiso   1.00
O842   O     0.69242   0.64711   0.75179   0.00000  Uiso   1.00
H843   H     0.70942   0.66165   0.71588   0.00000  Uiso   1.00
O844   O     0.80810   0.44575   0.57659   0.00000  Uiso   1.00
C845   C     0.83657   0.40552   0.55069   0.00000  Uiso   1.00
H846   H     0.88110   0.40557   0.56319   0.00000  Uiso   1.00
H847   H     0.84659   0.41007   0.50810   0.00000  Uiso   1.00
C848   C     0.79205   0.35258   0.56368   0.00000  Uiso   1.00
H849   H     0.78183   0.34646   0.60591   0.00000  Uiso   1.00
H850   H     0.74728   0.35111   0.55126   0.00000  Uiso   1.00
H851   H     0.81393   0.65387   0.54349   0.00000  Uiso   1.00
C852   C     0.71051   0.48663   0.56699   0.00000  Uiso   1.00
O853   O     0.66682   0.45191   0.58696   0.00000  Uiso   1.00
O854   O     0.73280   0.53033   0.59648   0.00000  Uiso   1.00
H855   H     0.70958   0.52839   0.63383   0.00000  Uiso   1.00
C856   C     0.18100   0.93329   0.75286   0.00000  Uiso   1.00
C857   C     0.13628   0.84043   0.98996   0.00000  Uiso   1.00
C858   C     0.15236   0.85426   0.93728   0.00000  Uiso   1.00
C859   C     0.18450   0.85343   0.51906   0.00000  Uiso   1.00
C860   C     0.23881   0.89291   0.50108   0.00000  Uiso   1.00
C861   C     0.24887   0.91310   0.95204   0.00000  Uiso   1.00
C862   C     0.20743   0.89279   0.91987   0.00000  Uiso   1.00
C863   C     0.18226   0.82700   0.56429   0.00000  Uiso   1.00
C864   C     0.27140   0.89261   0.58207   0.00000  Uiso   1.00
C865   C     0.11174   0.83061   0.90398   0.00000  Uiso   1.00
C866   C     0.18857   0.98912   0.75275   0.00000  Uiso   1.00
C867   C     0.13301   0.83195   0.84743   0.00000  Uiso   1.00
C868   C     0.13891   0.67820   0.75920   0.00000  Uiso   1.00
C869   C     0.15068   0.73343   0.75089   0.00000  Uiso   1.00
C870   C     0.20062   0.83769   0.65286   0.00000  Uiso   1.00
C871   C     0.28215   0.91195   0.53264   0.00000  Uiso   1.00
C872   C     0.22125   0.85024   0.59817   0.00000  Uiso   1.00
C873   C     0.05164   0.80143   0.92496   0.00000  Uiso   1.00
C874   C     0.03145   0.79612   0.97796   0.00000  Uiso   1.00
C875   C     0.07232   0.81646   0.51121   0.00000  Uiso   1.00
Cu876  Cu    0.10710   0.82772   0.74436   0.00000  Uiso   1.00
Cu877  Cu    0.22623   0.83895   0.75565   0.00000  Uiso   1.00
H878   H     0.30121   0.91154   0.60811   0.00000  Uiso   1.00
H879   H     0.00291   0.87136   0.79086   0.00000  Uiso   1.00
H880   H     0.33008   0.79462   0.70967   0.00000  Uiso   1.00
H881   H     0.28990   0.94356   0.93790   0.00000  Uiso   1.00
H882   H     0.32256   0.94346   0.52002   0.00000  Uiso   1.00
H883   H     0.01955   0.78346   0.90032   0.00000  Uiso   1.00
H884   H     0.31631   0.77709   0.99313   0.00000  Uiso   1.00
H885   H     0.21764   0.90957   0.88209   0.00000  Uiso   1.00
H886   H     0.23652   0.67874   0.74270   0.00000  Uiso   1.00
N887   N     0.31574   0.84741   0.76416   0.00000  Uiso   1.00
N888   N     0.01759   0.81926   0.73584   0.00000  Uiso   1.00
O889   O     0.12797   0.90474   0.74633   0.00000  Uiso   1.00
O890   O     0.22858   0.91422   0.75587   0.00000  Uiso   1.00
O891   O     0.09181   0.82627   0.81840   0.00000  Uiso   1.00
O892   O     0.19242   0.83575   0.82793   0.00000  Uiso   1.00
O893   O     0.10476   0.75245   0.74414   0.00000  Uiso   1.00
O894   O     0.20536   0.76193   0.75367   0.00000  Uiso   1.00
O895   O     0.14092   0.83092   0.67207   0.00000  Uiso   1.00
O896   O     0.24152   0.84040   0.68161   0.00000  Uiso   1.00
C897   C     0.07265   0.98402   0.77996   0.00000  Uiso   1.00
O898   O     0.05884   0.96483   0.82266   0.00000  Uiso   1.00
O899   O     0.02576   0.98045   0.75179   0.00000  Uiso   1.00
H900   H     0.04275   0.99499   0.71588   0.00000  Uiso   1.00
O901   O     0.14143   0.77908   0.57659   0.00000  Uiso   1.00
C902   C     0.16990   0.73885   0.55069   0.00000  Uiso   1.00
H903   H     0.21444   0.73890   0.56319   0.00000  Uiso   1.00
H904   H     0.17992   0.74340   0.50810   0.00000  Uiso   1.00
C905   C     0.12539   0.68591   0.56368   0.00000  Uiso   1.00
H906   H     0.11516   0.67979   0.60591   0.00000  Uiso   1.00
H907   H     0.08061   0.68444   0.55126   0.00000  Uiso   1.00
H908   H     0.14726   0.98721   0.54349   0.00000  Uiso   1.00
C909   C     0.04384   0.81996   0.56699   0.00000  Uiso   1.00
O910   O     0.00016   0.78524   0.58696   0.00000  Uiso   1.00
O911   O     0.06613   0.86366   0.59648   0.00000  Uiso   1.00
H912   H     0.04292   0.86172   0.63383   0.00000  Uiso   1.00
C913   C     0.51433   0.93329   0.75286   0.00000  Uiso   1.00
C914   C     0.46962   0.84043   0.98996   0.00000  Uiso   1.00
C915   C     0.48569   0.85426   0.93728   0.00000  Uiso   1.00
C916   C     0.51783   0.85343   0.51906   0.00000  Uiso   1.00
C917   C     0.57215   0.89291   0.50108   0.00000  Uiso   1.00
C918   C     0.58220   0.91310   0.95204   0.00000  Uiso   1.00
C919   C     0.54076   0.89279   0.91987   0.00000  Uiso   1.00
C920   C     0.51559   0.82700   0.56429   0.00000  Uiso   1.00
C921   C     0.60473   0.89261   0.58207   0.00000  Uiso   1.00
C922   C     0.44508   0.83061   0.90398   0.00000  Uiso   1.00
C923   C     0.52191   0.98912   0.75275   0.00000  Uiso   1.00
C924   C     0.46634   0.83195   0.84743   0.00000  Uiso   1.00
C925   C     0.47225   0.67820   0.75920   0.00000  Uiso   1.00
C926   C     0.48401   0.73343   0.75089   0.00000  Uiso   1.00
C927   C     0.53395   0.83769   0.65286   0.00000  Uiso   1.00
C928   C     0.61548   0.91195   0.53264   0.00000  Uiso   1.00
C929   C     0.55458   0.85024   0.59817   0.00000  Uiso   1.00
C930   C     0.38498   0.80143   0.92496   0.00000  Uiso   1.00
C931   C     0.36478   0.79612   0.97796   0.00000  Uiso   1.00
C932   C     0.40565   0.81646   0.51121   0.00000  Uiso   1.00
Cu933  Cu    0.44043   0.82772   0.74436   0.00000  Uiso   1.00
Cu934  Cu    0.55957   0.83895   0.75565   0.00000  Uiso   1.00
H935   H     0.63454   0.91154   0.60811   0.00000  Uiso   1.00
H936   H     0.33624   0.87136   0.79086   0.00000  Uiso   1.00
H937   H     0.66342   0.79462   0.70967   0.00000  Uiso   1.00
H938   H     0.62323   0.94356   0.93790   0.00000  Uiso   1.00
H939   H     0.65589   0.94346   0.52002   0.00000  Uiso   1.00
H940   H     0.35288   0.78346   0.90032   0.00000  Uiso   1.00
H941   H     0.64964   0.77709   0.99313   0.00000  Uiso   1.00
H942   H     0.55097   0.90957   0.88209   0.00000  Uiso   1.00
H943   H     0.56986   0.67874   0.74270   0.00000  Uiso   1.00
N944   N     0.64908   0.84741   0.76416   0.00000  Uiso   1.00
N945   N     0.35092   0.81926   0.73584   0.00000  Uiso   1.00
O946   O     0.46131   0.90474   0.74633   0.00000  Uiso   1.00
O947   O     0.56191   0.91422   0.75587   0.00000  Uiso   1.00
O948   O     0.42515   0.82627   0.81840   0.00000  Uiso   1.00
O949   O     0.52575   0.83575   0.82793   0.00000  Uiso   1.00
O950   O     0.43809   0.75245   0.74414   0.00000  Uiso   1.00
O951   O     0.53869   0.76193   0.75367   0.00000  Uiso   1.00
O952   O     0.47425   0.83092   0.67207   0.00000  Uiso   1.00
O953   O     0.57485   0.84040   0.68161   0.00000  Uiso   1.00
C954   C     0.40599   0.98402   0.77996   0.00000  Uiso   1.00
O955   O     0.39218   0.96483   0.82266   0.00000  Uiso   1.00
O956   O     0.35909   0.98045   0.75179   0.00000  Uiso   1.00
H957   H     0.37609   0.99499   0.71588   0.00000  Uiso   1.00
O958   O     0.47476   0.77908   0.57659   0.00000  Uiso   1.00
C959   C     0.50324   0.73885   0.55069   0.00000  Uiso   1.00
H960   H     0.54777   0.73890   0.56319   0.00000  Uiso   1.00
H961   H     0.51326   0.74340   0.50810   0.00000  Uiso   1.00
C962   C     0.45872   0.68591   0.56368   0.00000  Uiso   1.00
H963   H     0.44849   0.67979   0.60591   0.00000  Uiso   1.00
H964   H     0.41394   0.68444   0.55126   0.00000  Uiso   1.00
H965   H     0.48060   0.98721   0.54349   0.00000  Uiso   1.00
C966   C     0.37717   0.81996   0.56699   0.00000  Uiso   1.00
O967   O     0.33349   0.78524   0.58696   0.00000  Uiso   1.00
O968   O     0.39946   0.86366   0.59648   0.00000  Uiso   1.00
H969   H     0.37625   0.86172   0.63383   0.00000  Uiso   1.00
C970   C     0.84767   0.93329   0.75286   0.00000  Uiso   1.00
C971   C     0.80295   0.84043   0.98996   0.00000  Uiso   1.00
C972   C     0.81902   0.85426   0.93728   0.00000  Uiso   1.00
C973   C     0.85116   0.85343   0.51906   0.00000  Uiso   1.00
C974   C     0.90548   0.89291   0.50108   0.00000  Uiso   1.00
C975   C     0.91554   0.91310   0.95204   0.00000  Uiso   1.00
C976   C     0.87410   0.89279   0.91987   0.00000  Uiso   1.00
C977   C     0.84893   0.82700   0.56429   0.00000  Uiso   1.00
C978   C     0.93807   0.89261   0.58207   0.00000  Uiso   1.00
C979   C     0.77841   0.83061   0.90398   0.00000  Uiso   1.00
C980   C     0.85524   0.98912   0.75275   0.00000  Uiso   1.00
C981   C     0.79967   0.83195   0.84743   0.00000  Uiso   1.00
C982   C     0.80558   0.67820   0.75920   0.00000  Uiso   1.00
C983   C     0.81735   0.73343   0.75089   0.00000  Uiso   1.00
C984   C     0.86729   0.83769   0.65286   0.00000  Uiso   1.00
C985   C     0.94881   0.91195   0.53264   0.00000  Uiso   1.00
C986   C     0.88791   0.85024   0.59817   0.00000  Uiso   1.00
C987   C     0.71831   0.80143   0.92496   0.00000  Uiso   1.00
C988   C     0.69812   0.79612   0.97796   0.00000  Uiso   1.00
C989   C     0.73898   0.81646   0.51121   0.00000  Uiso   1.00
Cu990  Cu    0.77377   0.82772   0.74436   0.00000  Uiso   1.00
Cu991  Cu    0.89290   0.83895   0.75565   0.00000  Uiso   1.00
H992   H     0.96788   0.91154   0.60811   0.00000  Uiso   1.00
H993   H     0.66958   0.87136   0.79086   0.00000  Uiso   1.00
H994   H     0.99675   0.79462   0.70967   0.00000  Uiso   1.00
H995   H     0.95656   0.94356   0.93790   0.00000  Uiso   1.00
H996   H     0.98922   0.94346   0.52002   0.00000  Uiso   1.00
H997   H     0.68621   0.78346   0.90032   0.00000  Uiso   1.00
H998   H     0.98298   0.77709   0.99313   0.00000  Uiso   1.00
H999   H     0.88430   0.90957   0.88209   0.00000  Uiso   1.00
H1000  H     0.90319   0.67874   0.74270   0.00000  Uiso   1.00
N1001  N     0.98241   0.84741   0.76416   0.00000  Uiso   1.00
N1002  N     0.68426   0.81926   0.73584   0.00000  Uiso   1.00
O1003  O     0.79464   0.90474   0.74633   0.00000  Uiso   1.00
O1004  O     0.89524   0.91422   0.75587   0.00000  Uiso   1.00
O1005  O     0.75848   0.82627   0.81840   0.00000  Uiso   1.00
O1006  O     0.85908   0.83575   0.82793   0.00000  Uiso   1.00
O1007  O     0.77142   0.75245   0.74414   0.00000  Uiso   1.00
O1008  O     0.87203   0.76193   0.75367   0.00000  Uiso   1.00
O1009  O     0.80758   0.83092   0.67207   0.00000  Uiso   1.00
O1010  O     0.90819   0.84040   0.68161   0.00000  Uiso   1.00
C1011  C     0.73932   0.98402   0.77996   0.00000  Uiso   1.00
O1012  O     0.72551   0.96483   0.82266   0.00000  Uiso   1.00
O1013  O     0.69242   0.98045   0.75179   0.00000  Uiso   1.00
H1014  H     0.70942   0.99499   0.71588   0.00000  Uiso   1.00
O1015  O     0.80810   0.77908   0.57659   0.00000  Uiso   1.00
C1016  C     0.83657   0.73885   0.55069   0.00000  Uiso   1.00
H1017  H     0.88110   0.73890   0.56319   0.00000  Uiso   1.00
H1018  H     0.84659   0.74340   0.50810   0.00000  Uiso   1.00
C1019  C     0.79205   0.68591   0.56368   0.00000  Uiso   1.00
H1020  H     0.78183   0.67979   0.60591   0.00000  Uiso   1.00
H1021  H     0.74728   0.68444   0.55126   0.00000  Uiso   1.00
H1022  H     0.81393   0.98721   0.54349   0.00000  Uiso   1.00
C1023  C     0.71051   0.81996   0.56699   0.00000  Uiso   1.00
O1024  O     0.66682   0.78524   0.58696   0.00000  Uiso   1.00
O1025  O     0.73280   0.86366   0.59648   0.00000  Uiso   1.00
H1026  H     0.70958   0.86172   0.63383   0.00000  Uiso   1.00
loop_
_geom_bond_atom_site_label_1
_geom_bond_atom_site_label_2
_geom_bond_distance
_geom_bond_site_symmetry_2
_ccdc_geom_bond_type
C1     C11     1.430   .     S
C1     O34     1.289   .     A
C1     O35     1.289   .     A
C2     C3      1.419   .     A
C2     C517    1.426   .     S
C2     C533    1.429   .     S
C3     C10     1.418   .     A
C3     C7      1.413   .     A
C4     C8      1.414   .     A
C4     C5      1.419   .     A
C4     C515    1.426   1_554 S
C5     C16     1.402   .     A
C5     C519    1.394   1_554 S
C6     C7      1.389   .     A
C6     H26     1.084   .     S
C6     C518    1.394   .     S
C7     H30     1.081   .     S
C8     C17     1.402   .     A
C8     O46     1.384   .     S
C9     C17     1.399   .     A
C9     C16     1.393   .     A
C9     H23     1.083   .     S
C10    C18     1.400   .     A
C10    C12     1.475   .     S
C11    C184    1.340   .     S
C11    H202    1.088   .     S
C12    O36     1.302   .     A
C12    O37     1.297   .     A
C13    C14     1.431   .     S
C13    C353    1.340   1_545 S
C13    C384    1.492   1_545 S
C14    O38     1.285   .     A
C14    O39     1.293   .     A
C15    O41     1.300   .     A
C15    O40     1.294   .     A
C15    C17     1.462   .     S
C16    H27     1.084   .     S
C18    H28     1.083   .     S
C18    C19     1.389   .     A
C19    C533    1.402   .     S
C19    H143    1.083   1_455 S
C20    C54     1.485   .     S
C20    C515    1.429   1_554 S
C20    C532    1.402   1_554 S
Cu21   O40     1.905   .     S
Cu21   Cu22    2.688   .     S
Cu21   N33     2.020   .     S
Cu21   O36     1.924   .     S
Cu21   O34     1.960   .     S
Cu21   O38     1.955   .     S
Cu22   N32     2.020   .     S
Cu22   O35     1.955   .     S
Cu22   O39     1.960   .     S
Cu22   O41     1.924   .     S
Cu22   O37     1.905   .     S
H24    N146    1.028   1_455 S
H25    N90     1.029   .     S
H29    C76     1.083   .     S
H31    C353    1.088   1_545 S
N32    H81     1.028   .     S
N32    N90     1.284   .     S
N33    N146    1.284   1_455 S
N33    H139    1.029   1_455 S
C42    O44     1.398   .     S
C42    O43     1.221   .     D
C42    C184    1.492   .     S
O44    H45     1.013   .     S
O46    C47     1.411   .     S
C47    H49     1.115   .     S
C47    C50     1.522   .     S
C47    H48     1.114   .     S
C50    H52     1.111   .     S
C50    H51     1.111   .     S
C50    H395    1.111   1_545 S
H53    C221    1.111   .     S
C54    O56     1.399   .     S
C54    O55     1.223   .     D
O56    H57     1.013   .     S
C58    C68     1.430   .     S
C58    O91     1.289   .     A
C58    O92     1.289   .     A
C59    C60     1.419   .     A
C59    C574    1.426   .     S
C59    C590    1.429   .     S
C60    C67     1.418   .     A
C60    C64     1.413   .     A
C61    C65     1.414   .     A
C61    C62     1.419   .     A
C61    C572    1.426   1_554 S
C62    C73     1.402   .     A
C62    C576    1.394   1_554 S
C63    C64     1.389   .     A
C63    H83     1.084   .     S
C63    C575    1.394   .     S
C64    H87     1.081   .     S
C65    C74     1.402   .     A
C65    O103    1.384   .     S
C66    C74     1.399   .     A
C66    C73     1.393   .     A
C66    H80     1.083   .     S
C67    C75     1.400   .     A
C67    C69     1.475   .     S
C68    C241    1.340   .     S
C68    H259    1.088   .     S
C69    O93     1.302   .     A
C69    O94     1.297   .     A
C70    C71     1.431   .     S
C70    C410    1.340   1_545 S
C70    C441    1.492   1_545 S
C71    O95     1.285   .     A
C71    O96     1.293   .     A
C72    O98     1.300   .     A
C72    O97     1.294   .     A
C72    C74     1.462   .     S
C73    H84     1.084   .     S
C75    H85     1.083   .     S
C75    C76     1.389   .     A
C76    C590    1.402   .     S
C77    C111    1.485   .     S
C77    C572    1.429   1_554 S
C77    C589    1.402   1_554 S
Cu78   O97     1.905   .     S
Cu78   Cu79    2.688   .     S
Cu78   N90     2.020   .     S
Cu78   O93     1.924   .     S
Cu78   O91     1.960   .     S
Cu78   O95     1.955   .     S
Cu79   N89     2.020   .     S
Cu79   O92     1.955   .     S
Cu79   O96     1.960   .     S
Cu79   O98     1.924   .     S
Cu79   O94     1.905   .     S
H82    N147    1.029   .     S
H86    C133    1.083   .     S
H88    C410    1.088   1_545 S
N89    H138    1.028   .     S
N89    N147    1.284   .     S
C99    O101    1.398   .     S
C99    O100    1.221   .     D
C99    C241    1.492   .     S
O101   H102    1.013   .     S
O103   C104    1.411   .     S
C104   H106    1.115   .     S
C104   C107    1.522   .     S
C104   H105    1.114   .     S
C107   H109    1.111   .     S
C107   H108    1.111   .     S
C107   H452    1.111   1_545 S
H110   C278    1.111   .     S
C111   O113    1.399   .     S
C111   O112    1.223   .     D
O113   H114    1.013   .     S
C115   C125    1.430   .     S
C115   O148    1.289   .     A
C115   O149    1.289   .     A
C116   C117    1.419   .     A
C116   C631    1.426   .     S
C116   C647    1.429   .     S
C117   C124    1.418   .     A
C117   C121    1.413   .     A
C118   C122    1.414   .     A
C118   C119    1.419   .     A
C118   C629    1.426   1_554 S
C119   C130    1.402   .     A
C119   C633    1.394   1_554 S
C120   C121    1.389   .     A
C120   H140    1.084   .     S
C120   C632    1.394   .     S
C121   H144    1.081   .     S
C122   C131    1.402   .     A
C122   O160    1.384   .     S
C123   C131    1.399   .     A
C123   C130    1.393   .     A
C123   H137    1.083   .     S
C124   C132    1.400   .     A
C124   C126    1.475   .     S
C125   C298    1.340   .     S
C125   H316    1.088   .     S
C126   O150    1.302   .     A
C126   O151    1.297   .     A
C127   C128    1.431   .     S
C127   C467    1.340   1_545 S
C127   C498    1.492   1_545 S
C128   O152    1.285   .     A
C128   O153    1.293   .     A
C129   O155    1.300   .     A
C129   O154    1.294   .     A
C129   C131    1.462   .     S
C130   H141    1.084   .     S
C132   H142    1.083   .     S
C132   C133    1.389   .     A
C133   C647    1.402   .     S
C134   C168    1.485   .     S
C134   C629    1.429   1_554 S
C134   C646    1.402   1_554 S
Cu135  O154    1.905   .     S
Cu135  Cu136   2.688   .     S
Cu135  N147    2.020   .     S
Cu135  O150    1.924   .     S
Cu135  O148    1.960   .     S
Cu135  O152    1.955   .     S
Cu136  N146    2.020   .     S
Cu136  O149    1.955   .     S
Cu136  O153    1.960   .     S
Cu136  O155    1.924   .     S
Cu136  O151    1.905   .     S
H139   N33     1.029   1_655 S
H143   C19     1.083   1_655 S
H145   C467    1.088   1_545 S
N146   H24     1.028   1_655 S
N146   N33     1.284   1_655 S
C156   O158    1.398   .     S
C156   O157    1.221   .     D
C156   C298    1.492   .     S
O158   H159    1.013   .     S
O160   C161    1.411   .     S
C161   H163    1.115   .     S
C161   C164    1.522   .     S
C161   H162    1.114   .     S
C164   H166    1.111   .     S
C164   H165    1.111   .     S
C164   H509    1.111   1_545 S
H167   C335    1.111   .     S
C168   O170    1.399   .     S
C168   O169    1.223   .     D
O170   H171    1.013   .     S
C172   C182    1.430   .     S
C172   O205    1.289   .     A
C172   O206    1.289   .     A
C173   C174    1.419   .     A
C173   C688    1.426   .     S
C173   C704    1.429   .     S
C174   C181    1.418   .     A
C174   C178    1.413   .     A
C175   C179    1.414   .     A
C175   C176    1.419   .     A
C175   C686    1.426   1_554 S
C176   C187    1.402   .     A
C176   C690    1.394   1_554 S
C177   C178    1.389   .     A
C177   H197    1.084   .     S
C177   C689    1.394   .     S
C178   H201    1.081   .     S
C179   C188    1.402   .     A
C179   O217    1.384   .     S
C180   C188    1.399   .     A
C180   C187    1.393   .     A
C180   H194    1.083   .     S
C181   C189    1.400   .     A
C181   C183    1.475   .     S
C182   C355    1.340   .     S
C182   H373    1.088   .     S
C183   O207    1.302   .     A
C183   O208    1.297   .     A
C184   C185    1.431   .     S
C185   O209    1.285   .     A
C185   O210    1.293   .     A
C186   O212    1.300   .     A
C186   O211    1.294   .     A
C186   C188    1.462   .     S
C187   H198    1.084   .     S
C189   H199    1.083   .     S
C189   C190    1.389   .     A
C190   C704    1.402   .     S
C190   H314    1.083   1_455 S
C191   C225    1.485   .     S
C191   C686    1.429   1_554 S
C191   C703    1.402   1_554 S
Cu192  O211    1.905   .     S
Cu192  Cu193   2.688   .     S
Cu192  N204    2.020   .     S
Cu192  O207    1.924   .     S
Cu192  O205    1.960   .     S
Cu192  O209    1.955   .     S
Cu193  N203    2.020   .     S
Cu193  O206    1.955   .     S
Cu193  O210    1.960   .     S
Cu193  O212    1.924   .     S
Cu193  O208    1.905   .     S
H195   N317    1.028   1_455 S
H196   N261    1.029   .     S
H200   C247    1.083   .     S
N203   H252    1.028   .     S
N203   N261    1.284   .     S
N204   N317    1.284   1_455 S
N204   H310    1.029   1_455 S
C213   O215    1.398   .     S
C213   O214    1.221   .     D
C213   C355    1.492   .     S
O215   H216    1.013   .     S
O217   C218    1.411   .     S
C218   H220    1.115   .     S
C218   C221    1.522   .     S
C218   H219    1.114   .     S
C221   H223    1.111   .     S
C221   H222    1.111   .     S
H224   C392    1.111   .     S
C225   O227    1.399   .     S
C225   O226    1.223   .     D
O227   H228    1.013   .     S
C229   C239    1.430   .     S
C229   O262    1.289   .     A
C229   O263    1.289   .     A
C230   C231    1.419   .     A
C230   C745    1.426   .     S
C230   C761    1.429   .     S
C231   C238    1.418   .     A
C231   C235    1.413   .     A
C232   C236    1.414   .     A
C232   C233    1.419   .     A
C232   C743    1.426   1_554 S
C233   C244    1.402   .     A
C233   C747    1.394   1_554 S
C234   C235    1.389   .     A
C234   H254    1.084   .     S
C234   C746    1.394   .     S
C235   H258    1.081   .     S
C236   C245    1.402   .     A
C236   O274    1.384   .     S
C237   C245    1.399   .     A
C237   C244    1.393   .     A
C237   H251    1.083   .     S
C238   C246    1.400   .     A
C238   C240    1.475   .     S
C239   C412    1.340   .     S
C239   H430    1.088   .     S
C240   O264    1.302   .     A
C240   O265    1.297   .     A
C241   C242    1.431   .     S
C242   O266    1.285   .     A
C242   O267    1.293   .     A
C243   O269    1.300   .     A
C243   O268    1.294   .     A
C243   C245    1.462   .     S
C244   H255    1.084   .     S
C246   H256    1.083   .     S
C246   C247    1.389   .     A
C247   C761    1.402   .     S
C248   C282    1.485   .     S
C248   C743    1.429   1_554 S
C248   C760    1.402   1_554 S
Cu249  O268    1.905   .     S
Cu249  Cu250   2.688   .     S
Cu249  N261    2.020   .     S
Cu249  O264    1.924   .     S
Cu249  O262    1.960   .     S
Cu249  O266    1.955   .     S
Cu250  N260    2.020   .     S
Cu250  O263    1.955   .     S
Cu250  O267    1.960   .     S
Cu250  O269    1.924   .     S
Cu250  O265    1.905   .     S
H253   N318    1.029   .     S
H257   C304    1.083   .     S
N260   H309    1.028   .     S
N260   N318    1.284   .     S
C270   O272    1.398   .     S
C270   O271    1.221   .     D
C270   C412    1.492   .     S
O272   H273    1.013   .     S
O274   C275    1.411   .     S
C275   H277    1.115   .     S
C275   C278    1.522   .     S
C275   H276    1.114   .     S
C278   H280    1.111   .     S
C278   H279    1.111   .     S
H281   C449    1.111   .     S
C282   O284    1.399   .     S
C282   O283    1.223   .     D
O284   H285    1.013   .     S
C286   C296    1.430   .     S
C286   O319    1.289   .     A
C286   O320    1.289   .     A
C287   C288    1.419   .     A
C287   C802    1.426   .     S
C287   C818    1.429   .     S
C288   C295    1.418   .     A
C288   C292    1.413   .     A
C289   C293    1.414   .     A
C289   C290    1.419   .     A
C289   C800    1.426   1_554 S
C290   C301    1.402   .     A
C290   C804    1.394   1_554 S
C291   C292    1.389   .     A
C291   H311    1.084   .     S
C291   C803    1.394   .     S
C292   H315    1.081   .     S
C293   C302    1.402   .     A
C293   O331    1.384   .     S
C294   C302    1.399   .     A
C294   C301    1.393   .     A
C294   H308    1.083   .     S
C295   C303    1.400   .     A
C295   C297    1.475   .     S
C296   C469    1.340   .     S
C296   H487    1.088   .     S
C297   O321    1.302   .     A
C297   O322    1.297   .     A
C298   C299    1.431   .     S
C299   O323    1.285   .     A
C299   O324    1.293   .     A
C300   O326    1.300   .     A
C300   O325    1.294   .     A
C300   C302    1.462   .     S
C301   H312    1.084   .     S
C303   H313    1.083   .     S
C303   C304    1.389   .     A
C304   C818    1.402   .     S
C305   C339    1.485   .     S
C305   C800    1.429   1_554 S
C305   C817    1.402   1_554 S
Cu306  O325    1.905   .     S
Cu306  Cu307   2.688   .     S
Cu306  N318    2.020   .     S
Cu306  O321    1.924   .     S
Cu306  O319    1.960   .     S
Cu306  O323    1.955   .     S
Cu307  N317    2.020   .     S
Cu307  O320    1.955   .     S
Cu307  O324    1.960   .     S
Cu307  O326    1.924   .     S
Cu307  O322    1.905   .     S
H310   N204    1.029   1_655 S
H314   C190    1.083   1_655 S
N317   H195    1.028   1_655 S
N317   N204    1.284   1_655 S
C327   O329    1.398   .     S
C327   O328    1.221   .     D
C327   C469    1.492   .     S
O329   H330    1.013   .     S
O331   C332    1.411   .     S
C332   H334    1.115   .     S
C332   C335    1.522   .     S
C332   H333    1.114   .     S
C335   H337    1.111   .     S
C335   H336    1.111   .     S
H338   C506    1.111   .     S
C339   O341    1.399   .     S
C339   O340    1.223   .     D
O341   H342    1.013   .     S
C343   C353    1.430   .     S
C343   O376    1.289   .     A
C343   O377    1.289   .     A
C344   C345    1.419   .     A
C344   C859    1.426   .     S
C344   C875    1.429   .     S
C345   C352    1.418   .     A
C345   C349    1.413   .     A
C346   C350    1.414   .     A
C346   C347    1.419   .     A
C346   C857    1.426   1_554 S
C347   C358    1.402   .     A
C347   C861    1.394   1_554 S
C348   C349    1.389   .     A
C348   H368    1.084   .     S
C348   C860    1.394   .     S
C349   H372    1.081   .     S
C350   C359    1.402   .     A
C350   O388    1.384   .     S
C351   C359    1.399   .     A
C351   C358    1.393   .     A
C351   H365    1.083   .     S
C352   C360    1.400   .     A
C352   C354    1.475   .     S
C353   C13     1.340   1_565 S
C353   H31     1.088   1_565 S
C354   O378    1.302   .     A
C354   O379    1.297   .     A
C355   C356    1.431   .     S
C356   O380    1.285   .     A
C356   O381    1.293   .     A
C357   O383    1.300   .     A
C357   O382    1.294   .     A
C357   C359    1.462   .     S
C358   H369    1.084   .     S
C360   H370    1.083   .     S
C360   C361    1.389   .     A
C361   C875    1.402   .     S
C361   H485    1.083   1_455 S
C362   C396    1.485   .     S
C362   C857    1.429   1_554 S
C362   C874    1.402   1_554 S
Cu363  O382    1.905   .     S
Cu363  Cu364   2.688   .     S
Cu363  N375    2.020   .     S
Cu363  O378    1.924   .     S
Cu363  O376    1.960   .     S
Cu363  O380    1.955   .     S
Cu364  N374    2.020   .     S
Cu364  O377    1.955   .     S
Cu364  O381    1.960   .     S
Cu364  O383    1.924   .     S
Cu364  O379    1.905   .     S
H366   N488    1.028   1_455 S
H367   N432    1.029   .     S
H371   C418    1.083   .     S
N374   H423    1.028   .     S
N374   N432    1.284   .     S
N375   N488    1.284   1_455 S
N375   H481    1.029   1_455 S
C384   O386    1.398   .     S
C384   O385    1.221   .     D
C384   C13     1.492   1_565 S
O386   H387    1.013   .     S
O388   C389    1.411   .     S
C389   H391    1.115   .     S
C389   C392    1.522   .     S
C389   H390    1.114   .     S
C392   H394    1.111   .     S
C392   H393    1.111   .     S
H395   C50     1.111   1_565 S
C396   O398    1.399   .     S
C396   O397    1.223   .     D
O398   H399    1.013   .     S
C400   C410    1.430   .     S
C400   O433    1.289   .     A
C400   O434    1.289   .     A
C401   C402    1.419   .     A
C401   C916    1.426   .     S
C401   C932    1.429   .     S
C402   C409    1.418   .     A
C402   C406    1.413   .     A
C403   C407    1.414   .     A
C403   C404    1.419   .     A
C403   C914    1.426   1_554 S
C404   C415    1.402   .     A
C404   C918    1.394   1_554 S
C405   C406    1.389   .     A
C405   H425    1.084   .     S
C405   C917    1.394   .     S
C406   H429    1.081   .     S
C407   C416    1.402   .     A
C407   O445    1.384   .     S
C408   C416    1.399   .     A
C408   C415    1.393   .     A
C408   H422    1.083   .     S
C409   C417    1.400   .     A
C409   C411    1.475   .     S
C410   C70     1.340   1_565 S
C410   H88     1.088   1_565 S
C411   O435    1.302   .     A
C411   O436    1.297   .     A
C412   C413    1.431   .     S
C413   O437    1.285   .     A
C413   O438    1.293   .     A
C414   O440    1.300   .     A
C414   O439    1.294   .     A
C414   C416    1.462   .     S
C415   H426    1.084   .     S
C417   H427    1.083   .     S
C417   C418    1.389   .     A
C418   C932    1.402   .     S
C419   C453    1.485   .     S
C419   C914    1.429   1_554 S
C419   C931    1.402   1_554 S
Cu420  O439    1.905   .     S
Cu420  Cu421   2.688   .     S
Cu420  N432    2.020   .     S
Cu420  O435    1.924   .     S
Cu420  O433    1.960   .     S
Cu420  O437    1.955   .     S
Cu421  N431    2.020   .     S
Cu421  O434    1.955   .     S
Cu421  O438    1.960   .     S
Cu421  O440    1.924   .     S
Cu421  O436    1.905   .     S
H424   N489    1.029   .     S
H428   C475    1.083   .     S
N431   H480    1.028   .     S
N431   N489    1.284   .     S
C441   O443    1.398   .     S
C441   O442    1.221   .     D
C441   C70     1.492   1_565 S
O443   H444    1.013   .     S
O445   C446    1.411   .     S
C446   H448    1.115   .     S
C446   C449    1.522   .     S
C446   H447    1.114   .     S
C449   H451    1.111   .     S
C449   H450    1.111   .     S
H452   C107    1.111   1_565 S
C453   O455    1.399   .     S
C453   O454    1.223   .     D
O455   H456    1.013   .     S
C457   C467    1.430   .     S
C457   O490    1.289   .     A
C457   O491    1.289   .     A
C458   C459    1.419   .     A
C458   C973    1.426   .     S
C458   C989    1.429   .     S
C459   C466    1.418   .     A
C459   C463    1.413   .     A
C460   C464    1.414   .     A
C460   C461    1.419   .     A
C460   C971    1.426   1_554 S
C461   C472    1.402   .     A
C461   C975    1.394   1_554 S
C462   C463    1.389   .     A
C462   H482    1.084   .     S
C462   C974    1.394   .     S
C463   H486    1.081   .     S
C464   C473    1.402   .     A
C464   O502    1.384   .     S
C465   C473    1.399   .     A
C465   C472    1.393   .     A
C465   H479    1.083   .     S
C466   C474    1.400   .     A
C466   C468    1.475   .     S
C467   C127    1.340   1_565 S
C467   H145    1.088   1_565 S
C468   O492    1.302   .     A
C468   O493    1.297   .     A
C469   C470    1.431   .     S
C470   O494    1.285   .     A
C470   O495    1.293   .     A
C471   O497    1.300   .     A
C471   O496    1.294   .     A
C471   C473    1.462   .     S
C472   H483    1.084   .     S
C474   H484    1.083   .     S
C474   C475    1.389   .     A
C475   C989    1.402   .     S
C476   C510    1.485   .     S
C476   C971    1.429   1_554 S
C476   C988    1.402   1_554 S
Cu477  O496    1.905   .     S
Cu477  Cu478   2.688   .     S
Cu477  N489    2.020   .     S
Cu477  O492    1.924   .     S
Cu477  O490    1.960   .     S
Cu477  O494    1.955   .     S
Cu478  N488    2.020   .     S
Cu478  O491    1.955   .     S
Cu478  O495    1.960   .     S
Cu478  O497    1.924   .     S
Cu478  O493    1.905   .     S
H481   N375    1.029   1_655 S
H485   C361    1.083   1_655 S
N488   H366    1.028   1_655 S
N488   N375    1.284   1_655 S
C498   O500    1.398   .     S
C498   O499    1.221   .     D
C498   C127    1.492   1_565 S
O500   H501    1.013   .     S
O502   C503    1.411   .     S
C503   H505    1.115   .     S
C503   C506    1.522   .     S
C503   H504    1.114   .     S
C506   H508    1.111   .     S
C506   H507    1.111   .     S
H509   C164    1.111   1_565 S
C510   O512    1.399   .     S
C510   O511    1.223   .     D
O512   H513    1.013   .     S
C514   C524    1.430   .     S
C514   O547    1.289   .     A
C514   O548    1.289   .     A
C515   C516    1.419   .     A
C515   C4      1.426   1_556 S
C515   C20     1.429   1_556 S
C516   C523    1.418   .     A
C516   C520    1.413   .     A
C517   C521    1.414   .     A
C517   C518    1.419   .     A
C518   C529    1.402   .     A
C519   C520    1.389   .     A
C519   H539    1.084   .     S
C519   C5      1.394   1_556 S
C520   H543    1.081   .     S
C521   C530    1.402   .     A
C521   O559    1.384   .     S
C522   C530    1.399   .     A
C522   C529    1.393   .     A
C522   H536    1.083   .     S
C523   C531    1.400   .     A
C523   C525    1.475   .     S
C524   C697    1.340   .     S
C524   H715    1.088   .     S
C525   O549    1.302   .     A
C525   O550    1.297   .     A
C526   C527    1.431   .     S
C526   C866    1.340   1_545 S
C526   C897    1.492   1_545 S
C527   O551    1.285   .     A
C527   O552    1.293   .     A
C528   O554    1.300   .     A
C528   O553    1.294   .     A
C528   C530    1.462   .     S
C529   H540    1.084   .     S
C531   H541    1.083   .     S
C531   C532    1.389   .     A
C532   C20     1.402   1_556 S
C532   H656    1.083   1_455 S
C533   C567    1.485   .     S
Cu534  O553    1.905   .     S
Cu534  Cu535   2.688   .     S
Cu534  N546    2.020   .     S
Cu534  O549    1.924   .     S
Cu534  O547    1.960   .     S
Cu534  O551    1.955   .     S
Cu535  N545    2.020   .     S
Cu535  O548    1.955   .     S
Cu535  O552    1.960   .     S
Cu535  O554    1.924   .     S
Cu535  O550    1.905   .     S
H537   N659    1.028   1_455 S
H538   N603    1.029   .     S
H542   C589    1.083   .     S
H544   C866    1.088   1_545 S
N545   H594    1.028   .     S
N545   N603    1.284   .     S
N546   N659    1.284   1_455 S
N546   H652    1.029   1_455 S
C555   O557    1.398   .     S
C555   O556    1.221   .     D
C555   C697    1.492   .     S
O557   H558    1.013   .     S
O559   C560    1.411   .     S
C560   H562    1.115   .     S
C560   C563    1.522   .     S
C560   H561    1.114   .     S
C563   H565    1.111   .     S
C563   H564    1.111   .     S
C563   H908    1.111   1_545 S
H566   C734    1.111   .     S
C567   O569    1.399   .     S
C567   O568    1.223   .     D
O569   H570    1.013   .     S
C571   C581    1.430   .     S
C571   O604    1.289   .     A
C571   O605    1.289   .     A
C572   C573    1.419   .     A
C572   C61     1.426   1_556 S
C572   C77     1.429   1_556 S
C573   C580    1.418   .     A
C573   C577    1.413   .     A
C574   C578    1.414   .     A
C574   C575    1.419   .     A
C575   C586    1.402   .     A
C576   C577    1.389   .     A
C576   H596    1.084   .     S
C576   C62     1.394   1_556 S
C577   H600    1.081   .     S
C578   C587    1.402   .     A
C578   O616    1.384   .     S
C579   C587    1.399   .     A
C579   C586    1.393   .     A
C579   H593    1.083   .     S
C580   C588    1.400   .     A
C580   C582    1.475   .     S
C581   C754    1.340   .     S
C581   H772    1.088   .     S
C582   O606    1.302   .     A
C582   O607    1.297   .     A
C583   C584    1.431   .     S
C583   C923    1.340   1_545 S
C583   C954    1.492   1_545 S
C584   O608    1.285   .     A
C584   O609    1.293   .     A
C585   O611    1.300   .     A
C585   O610    1.294   .     A
C585   C587    1.462   .     S
C586   H597    1.084   .     S
C588   H598    1.083   .     S
C588   C589    1.389   .     A
C589   C77     1.402   1_556 S
C590   C624    1.485   .     S
Cu591  O610    1.905   .     S
Cu591  Cu592   2.688   .     S
Cu591  N603    2.020   .     S
Cu591  O606    1.924   .     S
Cu591  O604    1.960   .     S
Cu591  O608    1.955   .     S
Cu592  N602    2.020   .     S
Cu592  O605    1.955   .     S
Cu592  O609    1.960   .     S
Cu592  O611    1.924   .     S
Cu592  O607    1.905   .     S
H595   N660    1.029   .     S
H599   C646    1.083   .     S
H601   C923    1.088   1_545 S
N602   H651    1.028   .     S
N602   N660    1.284   .     S
C612   O614    1.398   .     S
C612   O613    1.221   .     D
C612   C754    1.492   .     S
O614   H615    1.013   .     S
O616   C617    1.411   .     S
C617   H619    1.115   .     S
C617   C620    1.522   .     S
C617   H618    1.114   .     S
C620   H622    1.111   .     S
C620   H621    1.111   .     S
C620   H965    1.111   1_545 S
H623   C791    1.111   .     S
C624   O626    1.399   .     S
C624   O625    1.223   .     D
O626   H627    1.013   .     S
C628   C638    1.430   .     S
C628   O661    1.289   .     A
C628   O662    1.289   .     A
C629   C630    1.419   .     A
C629   C118    1.426   1_556 S
C629   C134    1.429   1_556 S
C630   C637    1.418   .     A
C630   C634    1.413   .     A
C631   C635    1.414   .     A
C631   C632    1.419   .     A
C632   C643    1.402   .     A
C633   C634    1.389   .     A
C633   H653    1.084   .     S
C633   C119    1.394   1_556 S
C634   H657    1.081   .     S
C635   C644    1.402   .     A
C635   O673    1.384   .     S
C636   C644    1.399   .     A
C636   C643    1.393   .     A
C636   H650    1.083   .     S
C637   C645    1.400   .     A
C637   C639    1.475   .     S
C638   C811    1.340   .     S
C638   H829    1.088   .     S
C639   O663    1.302   .     A
C639   O664    1.297   .     A
C640   C641    1.431   .     S
C640   C980    1.340   1_545 S
C640   C1011   1.492   1_545 S
C641   O665    1.285   .     A
C641   O666    1.293   .     A
C642   O668    1.300   .     A
C642   O667    1.294   .     A
C642   C644    1.462   .     S
C643   H654    1.084   .     S
C645   H655    1.083   .     S
C645   C646    1.389   .     A
C646   C134    1.402   1_556 S
C647   C681    1.485   .     S
Cu648  O667    1.905   .     S
Cu648  Cu649   2.688   .     S
Cu648  N660    2.020   .     S
Cu648  O663    1.924   .     S
Cu648  O661    1.960   .     S
Cu648  O665    1.955   .     S
Cu649  N659    2.020   .     S
Cu649  O662    1.955   .     S
Cu649  O666    1.960   .     S
Cu649  O668    1.924   .     S
Cu649  O664    1.905   .     S
H652   N546    1.029   1_655 S
H656   C532    1.083   1_655 S
H658   C980    1.088   1_545 S
N659   H537    1.028   1_655 S
N659   N546    1.284   1_655 S
C669   O671    1.398   .     S
C669   O670    1.221   .     D
C669   C811    1.492   .     S
O671   H672    1.013   .     S
O673   C674    1.411   .     S
C674   H676    1.115   .     S
C674   C677    1.522   .     S
C674   H675    1.114   .     S
C677   H679    1.111   .     S
C677   H678    1.111   .     S
C677   H1022   1.111   1_545 S
H680   C848    1.111   .     S
C681   O683    1.399   .     S
C681   O682    1.223   .     D
O683   H684    1.013   .     S
C685   C695    1.430   .     S
C685   O718    1.289   .     A
C685   O719    1.289   .     A
C686   C687    1.419   .     A
C686   C175    1.426   1_556 S
C686   C191    1.429   1_556 S
C687   C694    1.418   .     A
C687   C691    1.413   .     A
C688   C692    1.414   .     A
C688   C689    1.419   .     A
C689   C700    1.402   .     A
C690   C691    1.389   .     A
C690   H710    1.084   .     S
C690   C176    1.394   1_556 S
C691   H714    1.081   .     S
C692   C701    1.402   .     A
C692   O730    1.384   .     S
C693   C701    1.399   .     A
C693   C700    1.393   .     A
C693   H707    1.083   .     S
C694   C702    1.400   .     A
C694   C696    1.475   .     S
C695   C868    1.340   .     S
C695   H886    1.088   .     S
C696   O720    1.302   .     A
C696   O721    1.297   .     A
C697   C698    1.431   .     S
C698   O722    1.285   .     A
C698   O723    1.293   .     A
C699   O725    1.300   .     A
C699   O724    1.294   .     A
C699   C701    1.462   .     S
C700   H711    1.084   .     S
C702   H712    1.083   .     S
C702   C703    1.389   .     A
C703   C191    1.402   1_556 S
C703   H827    1.083   1_455 S
C704   C738    1.485   .     S
Cu705  O724    1.905   .     S
Cu705  Cu706   2.688   .     S
Cu705  N717    2.020   .     S
Cu705  O720    1.924   .     S
Cu705  O718    1.960   .     S
Cu705  O722    1.955   .     S
Cu706  N716    2.020   .     S
Cu706  O719    1.955   .     S
Cu706  O723    1.960   .     S
Cu706  O725    1.924   .     S
Cu706  O721    1.905   .     S
H708   N830    1.028   1_455 S
H709   N774    1.029   .     S
H713   C760    1.083   .     S
N716   H765    1.028   .     S
N716   N774    1.284   .     S
N717   N830    1.284   1_455 S
N717   H823    1.029   1_455 S
C726   O728    1.398   .     S
C726   O727    1.221   .     D
C726   C868    1.492   .     S
O728   H729    1.013   .     S
O730   C731    1.411   .     S
C731   H733    1.115   .     S
C731   C734    1.522   .     S
C731   H732    1.114   .     S
C734   H736    1.111   .     S
C734   H735    1.111   .     S
H737   C905    1.111   .     S
C738   O740    1.399   .     S
C738   O739    1.223   .     D
O740   H741    1.013   .     S
C742   C752    1.430   .     S
C742   O775    1.289   .     A
C742   O776    1.289   .     A
C743   C744    1.419   .     A
C743   C232    1.426   1_556 S
C743   C248    1.429   1_556 S
C744   C751    1.418   .     A
C744   C748    1.413   .     A
C745   C749    1.414   .     A
C745   C746    1.419   .     A
C746   C757    1.402   .     A
C747   C748    1.389   .     A
C747   H767    1.084   .     S
C747   C233    1.394   1_556 S
C748   H771    1.081   .     S
C749   C758    1.402   .     A
C749   O787    1.384   .     S
C750   C758    1.399   .     A
C750   C757    1.393   .     A
C750   H764    1.083   .     S
C751   C759    1.400   .     A
C751   C753    1.475   .     S
C752   C925    1.340   .     S
C752   H943    1.088   .     S
C753   O777    1.302   .     A
C753   O778    1.297   .     A
C754   C755    1.431   .     S
C755   O779    1.285   .     A
C755   O780    1.293   .     A
C756   O782    1.300   .     A
C756   O781    1.294   .     A
C756   C758    1.462   .     S
C757   H768    1.084   .     S
C759   H769    1.083   .     S
C759   C760    1.389   .     A
C760   C248    1.402   1_556 S
C761   C795    1.485   .     S
Cu762  O781    1.905   .     S
Cu762  Cu763   2.688   .     S
Cu762  N774    2.020   .     S
Cu762  O777    1.924   .     S
Cu762  O775    1.960   .     S
Cu762  O779    1.955   .     S
Cu763  N773    2.020   .     S
Cu763  O776    1.955   .     S
Cu763  O780    1.960   .     S
Cu763  O782    1.924   .     S
Cu763  O778    1.905   .     S
H766   N831    1.029   .     S
H770   C817    1.083   .     S
N773   H822    1.028   .     S
N773   N831    1.284   .     S
C783   O785    1.398   .     S
C783   O784    1.221   .     D
C783   C925    1.492   .     S
O785   H786    1.013   .     S
O787   C788    1.411   .     S
C788   H790    1.115   .     S
C788   C791    1.522   .     S
C788   H789    1.114   .     S
C791   H793    1.111   .     S
C791   H792    1.111   .     S
H794   C962    1.111   .     S
C795   O797    1.399   .     S
C795   O796    1.223   .     D
O797   H798    1.013   .     S
C799   C809    1.430   .     S
C799   O832    1.289   .     A
C799   O833    1.289   .     A
C800   C801    1.419   .     A
C800   C289    1.426   1_556 S
C800   C305    1.429   1_556 S
C801   C808    1.418   .     A
C801   C805    1.413   .     A
C802   C806    1.414   .     A
C802   C803    1.419   .     A
C803   C814    1.402   .     A
C804   C805    1.389   .     A
C804   H824    1.084   .     S
C804   C290    1.394   1_556 S
C805   H828    1.081   .     S
C806   C815    1.402   .     A
C806   O844    1.384   .     S
C807   C815    1.399   .     A
C807   C814    1.393   .     A
C807   H821    1.083   .     S
C808   C816    1.400   .     A
C808   C810    1.475   .     S
C809   C982    1.340   .     S
C809   H1000   1.088   .     S
C810   O834    1.302   .     A
C810   O835    1.297   .     A
C811   C812    1.431   .     S
C812   O836    1.285   .     A
C812   O837    1.293   .     A
C813   O839    1.300   .     A
C813   O838    1.294   .     A
C813   C815    1.462   .     S
C814   H825    1.084   .     S
C816   H826    1.083   .     S
C816   C817    1.389   .     A
C817   C305    1.402   1_556 S
C818   C852    1.485   .     S
Cu819  O838    1.905   .     S
Cu819  Cu820   2.688   .     S
Cu819  N831    2.020   .     S
Cu819  O834    1.924   .     S
Cu819  O832    1.960   .     S
Cu819  O836    1.955   .     S
Cu820  N830    2.020   .     S
Cu820  O833    1.955   .     S
Cu820  O837    1.960   .     S
Cu820  O839    1.924   .     S
Cu820  O835    1.905   .     S
H823   N717    1.029   1_655 S
H827   C703    1.083   1_655 S
N830   H708    1.028   1_655 S
N830   N717    1.284   1_655 S
C840   O842    1.398   .     S
C840   O841    1.221   .     D
C840   C982    1.492   .     S
O842   H843    1.013   .     S
O844   C845    1.411   .     S
C845   H847    1.115   .     S
C845   C848    1.522   .     S
C845   H846    1.114   .     S
C848   H850    1.111   .     S
C848   H849    1.111   .     S
H851   C1019   1.111   .     S
C852   O854    1.399   .     S
C852   O853    1.223   .     D
O854   H855    1.013   .     S
C856   C866    1.430   .     S
C856   O889    1.289   .     A
C856   O890    1.289   .     A
C857   C858    1.419   .     A
C857   C346    1.426   1_556 S
C857   C362    1.429   1_556 S
C858   C865    1.418   .     A
C858   C862    1.413   .     A
C859   C863    1.414   .     A
C859   C860    1.419   .     A
C860   C871    1.402   .     A
C861   C862    1.389   .     A
C861   H881    1.084   .     S
C861   C347    1.394   1_556 S
C862   H885    1.081   .     S
C863   C872    1.402   .     A
C863   O901    1.384   .     S
C864   C872    1.399   .     A
C864   C871    1.393   .     A
C864   H878    1.083   .     S
C865   C873    1.400   .     A
C865   C867    1.475   .     S
C866   C526    1.340   1_565 S
C866   H544    1.088   1_565 S
C867   O891    1.302   .     A
C867   O892    1.297   .     A
C868   C869    1.431   .     S
C869   O893    1.285   .     A
C869   O894    1.293   .     A
C870   O896    1.300   .     A
C870   O895    1.294   .     A
C870   C872    1.462   .     S
C871   H882    1.084   .     S
C873   H883    1.083   .     S
C873   C874    1.389   .     A
C874   C362    1.402   1_556 S
C874   H998    1.083   1_455 S
C875   C909    1.485   .     S
Cu876  O895    1.905   .     S
Cu876  Cu877   2.688   .     S
Cu876  N888    2.020   .     S
Cu876  O891    1.924   .     S
Cu876  O889    1.960   .     S
Cu876  O893    1.955   .     S
Cu877  N887    2.020   .     S
Cu877  O890    1.955   .     S
Cu877  O894    1.960   .     S
Cu877  O896    1.924   .     S
Cu877  O892    1.905   .     S
H879   N1001   1.028   1_455 S
H880   N945    1.029   .     S
H884   C931    1.083   .     S
N887   H936    1.028   .     S
N887   N945    1.284   .     S
N888   N1001   1.284   1_455 S
N888   H994    1.029   1_455 S
C897   O899    1.398   .     S
C897   O898    1.221   .     D
C897   C526    1.492   1_565 S
O899   H900    1.013   .     S
O901   C902    1.411   .     S
C902   H904    1.115   .     S
C902   C905    1.522   .     S
C902   H903    1.114   .     S
C905   H907    1.111   .     S
C905   H906    1.111   .     S
H908   C563    1.111   1_565 S
C909   O911    1.399   .     S
C909   O910    1.223   .     D
O911   H912    1.013   .     S
C913   C923    1.430   .     S
C913   O946    1.289   .     A
C913   O947    1.289   .     A
C914   C915    1.419   .     A
C914   C403    1.426   1_556 S
C914   C419    1.429   1_556 S
C915   C922    1.418   .     A
C915   C919    1.413   .     A
C916   C920    1.414   .     A
C916   C917    1.419   .     A
C917   C928    1.402   .     A
C918   C919    1.389   .     A
C918   H938    1.084   .     S
C918   C404    1.394   1_556 S
C919   H942    1.081   .     S
C920   C929    1.402   .     A
C920   O958    1.384   .     S
C921   C929    1.399   .     A
C921   C928    1.393   .     A
C921   H935    1.083   .     S
C922   C930    1.400   .     A
C922   C924    1.475   .     S
C923   C583    1.340   1_565 S
C923   H601    1.088   1_565 S
C924   O948    1.302   .     A
C924   O949    1.297   .     A
C925   C926    1.431   .     S
C926   O950    1.285   .     A
C926   O951    1.293   .     A
C927   O953    1.300   .     A
C927   O952    1.294   .     A
C927   C929    1.462   .     S
C928   H939    1.084   .     S
C930   H940    1.083   .     S
C930   C931    1.389   .     A
C931   C419    1.402   1_556 S
C932   C966    1.485   .     S
Cu933  O952    1.905   .     S
Cu933  Cu934   2.688   .     S
Cu933  N945    2.020   .     S
Cu933  O948    1.924   .     S
Cu933  O946    1.960   .     S
Cu933  O950    1.955   .     S
Cu934  N944    2.020   .     S
Cu934  O947    1.955   .     S
Cu934  O951    1.960   .     S
Cu934  O953    1.924   .     S
Cu934  O949    1.905   .     S
H937   N1002   1.029   .     S
H941   C988    1.083   .     S
N944   H993    1.028   .     S
N944   N1002   1.284   .     S
C954   O956    1.398   .     S
C954   O955    1.221   .     D
C954   C583    1.492   1_565 S
O956   H957    1.013   .     S
O958   C959    1.411   .     S
C959   H961    1.115   .     S
C959   C962    1.522   .     S
C959   H960    1.114   .     S
C962   H964    1.111   .     S
C962   H963    1.111   .     S
H965   C620    1.111   1_565 S
C966   O968    1.399   .     S
C966   O967    1.223   .     D
O968   H969    1.013   .     S
C970   C980    1.430   .     S
C970   O1003   1.289   .     A
C970   O1004   1.289   .     A
C971   C972    1.419   .     A
C971   C460    1.426   1_556 S
C971   C476    1.429   1_556 S
C972   C979    1.418   .     A
C972   C976    1.413   .     A
C973   C977    1.414   .     A
C973   C974    1.419   .     A
C974   C985    1.402   .     A
C975   C976    1.389   .     A
C975   H995    1.084   .     S
C975   C461    1.394   1_556 S
C976   H999    1.081   .     S
C977   C986    1.402   .     A
C977   O1015   1.384   .     S
C978   C986    1.399   .     A
C978   C985    1.393   .     A
C978   H992    1.083   .     S
C979   C987    1.400   .     A
C979   C981    1.475   .     S
C980   C640    1.340   1_565 S
C980   H658    1.088   1_565 S
C981   O1005   1.302   .     A
C981   O1006   1.297   .     A
C982   C983    1.431   .     S
C983   O1007   1.285   .     A
C983   O1008   1.293   .     A
C984   O1010   1.300   .     A
C984   O1009   1.294   .     A
C984   C986    1.462   .     S
C985   H996    1.084   .     S
C987   H997    1.083   .     S
C987   C988    1.389   .     A
C988   C476    1.402   1_556 S
C989   C1023   1.485   .     S
Cu990  O1009   1.905   .     S
Cu990  Cu991   2.688   .     S
Cu990  N1002   2.020   .     S
Cu990  O1005   1.924   .     S
Cu990  O1003   1.960   .     S
Cu990  O1007   1.955   .     S
Cu991  N1001   2.020   .     S
Cu991  O1004   1.955   .     S
Cu991  O1008   1.960   .     S
Cu991  O1010   1.924   .     S
Cu991  O1006   1.905   .     S
H994   N888    1.029   1_655 S
H998   C874    1.083   1_655 S
N1001  H879    1.028   1_655 S
N1001  N888    1.284   1_655 S
C1011  O1013   1.398   .     S
C1011  O1012   1.221   .     D
C1011  C640    1.492   1_565 S
O1013  H1014   1.013   .     S
O1015  C1016   1.411   .     S
C1016  H1018   1.115   .     S
C1016  C1019   1.522   .     S
C1016  H1017   1.114   .     S
C1019  H1021   1.111   .     S
C1019  H1020   1.111   .     S
H1022  C677    1.111   1_565 S
C1023  O1025   1.399   .     S
C1023  O1024   1.223   .     D
O1025  H1026   1.013   .     S
