data_str_m2_o1_o10_pcu_sym.91
_audit_creation_date              2020-01-03
_audit_creation_method            'Materials Studio'
_symmetry_space_group_name_H-M    'P1'
_symmetry_Int_Tables_number       1
_symmetry_cell_setting            triclinic
loop_
_symmetry_equiv_pos_as_xyz
  x,y,z
_cell_length_a                    26.4891
_cell_length_b                    32.6071
_cell_length_c                    28.5908
_cell_angle_alpha                 89.9955
_cell_angle_beta                  98.1496
_cell_angle_gamma                 89.8574
loop_
_atom_site_label
_atom_site_type_symbol
_atom_site_fract_x
_atom_site_fract_y
_atom_site_fract_z
_atom_site_U_iso_or_equiv
_atom_site_adp_type
_atom_site_occupancy
C1     C     0.16606   0.08743   0.16650   0.00000  Uiso   1.00
C2     C     0.17614   0.02188   0.20890   0.00000  Uiso   1.00
C3     C     0.16407   0.29076   0.16718   0.00000  Uiso   1.00
C4     C     0.16506   0.04290   0.16617   0.00000  Uiso   1.00
C5     C     0.13261   0.14338   0.02027   0.00000  Uiso   1.00
C6     C     0.20068   0.19003   0.31301   0.00000  Uiso   1.00
C7     C     0.13271   0.14330   0.30407   0.00000  Uiso   1.00
C8     C     0.20069   0.19000   0.02926   0.00000  Uiso   1.00
C9     C     0.32443   0.13857   0.10513   0.00000  Uiso   1.00
C10    C     0.00884   0.18777   0.23096   0.00000  Uiso   1.00
C11    C     0.07438   0.04634   0.08636   0.00000  Uiso   1.00
C12    C     0.16583   0.24601   0.16674   0.00000  Uiso   1.00
C13    C     0.04320   0.02590   0.04384   0.00000  Uiso   1.00
C14    C     0.31931   0.02723   0.04597   0.00000  Uiso   1.00
C15    C     0.11654   0.28623   0.25762   0.00000  Uiso   1.00
C16    C     0.08720   0.32439   0.27011   0.00000  Uiso   1.00
C17    C     0.03066   0.31477   0.26933   0.00000  Uiso   1.00
C18    C     0.06805   0.16624   0.15470   0.00000  Uiso   1.00
C19    C     0.26519   0.16579   0.17874   0.00000  Uiso   1.00
C20    C     0.01342   0.16042   0.14898   0.00000  Uiso   1.00
C21    C     0.31994   0.16903   0.18529   0.00000  Uiso   1.00
C22    C     0.14980   0.02106   0.12405   0.00000  Uiso   1.00
C23    C     0.17059   0.31303   0.21015   0.00000  Uiso   1.00
C24    C     0.15312   0.31187   0.12429   0.00000  Uiso   1.00
Cu25   Cu    0.16667   0.16667   0.21355   0.00000  Uiso   1.00
Cu26   Cu    0.16667   0.16666   0.11978   0.00000  Uiso   1.00
H27    H     0.14351   0.29546   0.09128   0.00000  Uiso   1.00
H28    H     0.06154   0.03425   0.11938   0.00000  Uiso   1.00
H29    H     0.05087   0.04214   0.01149   0.00000  Uiso   1.00
H30    H     0.05535   0.32668   0.04223   0.00000  Uiso   1.00
H31    H     0.31069   0.01581   0.08058   0.00000  Uiso   1.00
H32    H     0.29914   0.00749   0.01770   0.00000  Uiso   1.00
H33    H     0.30476   0.05895   0.03995   0.00000  Uiso   1.00
H34    H     0.11604   0.26315   0.28616   0.00000  Uiso   1.00
H35    H     0.09604   0.27228   0.22484   0.00000  Uiso   1.00
H36    H     0.10422   0.00215   0.30551   0.00000  Uiso   1.00
H37    H     0.08985   0.01595   0.24415   0.00000  Uiso   1.00
H38    H     0.18460   0.03831   0.24203   0.00000  Uiso   1.00
H39    H     0.01391   0.30331   0.23396   0.00000  Uiso   1.00
H40    H     0.00963   0.00973   0.27631   0.00000  Uiso   1.00
H41    H     0.02550   0.29139   0.29650   0.00000  Uiso   1.00
H42    H     0.10524   0.12479   0.03522   0.00000  Uiso   1.00
H43    H     0.22787   0.20882   0.29793   0.00000  Uiso   1.00
H44    H     0.10556   0.12446   0.28186   0.00000  Uiso   1.00
H45    H     0.22792   0.20874   0.05148   0.00000  Uiso   1.00
H46    H     0.31619   0.13560   0.03399   0.00000  Uiso   1.00
H47    H     0.02150   0.18326   0.30195   0.00000  Uiso   1.00
H48    H     0.06607   0.07969   0.08530   0.00000  Uiso   1.00
N49    N     0.16668   0.16668   0.28403   0.00000  Uiso   1.00
N50    N     0.16665   0.16666   0.04931   0.00000  Uiso   1.00
O51    O     0.16666   0.10655   0.20625   0.00000  Uiso   1.00
O52    O     0.33328   0.15305   0.06099   0.00000  Uiso   1.00
O53    O     0.02810   0.22171   0.23145   0.00000  Uiso   1.00
O54    O     0.00565   0.16715   0.27328   0.00000  Uiso   1.00
O55    O     0.12711   0.04063   0.08358   0.00000  Uiso   1.00
O56    O     0.16830   0.29491   0.25360   0.00000  Uiso   1.00
O57    O     0.16667   0.22678   0.12709   0.00000  Uiso   1.00
O58    O     0.16666   0.10654   0.12706   0.00000  Uiso   1.00
O59    O     0.16667   0.22679   0.20628   0.00000  Uiso   1.00
O60    O     0.09161   0.16667   0.19712   0.00000  Uiso   1.00
O61    O     0.24172   0.16666   0.13621   0.00000  Uiso   1.00
O62    O     0.09161   0.16666   0.11793   0.00000  Uiso   1.00
O63    O     0.24172   0.16667   0.21540   0.00000  Uiso   1.00
O64    O     0.29929   0.10749   0.10794   0.00000  Uiso   1.00
C65    C     0.49940   0.08743   0.16650   0.00000  Uiso   1.00
C66    C     0.50947   0.02188   0.20890   0.00000  Uiso   1.00
C67    C     0.49740   0.29076   0.16718   0.00000  Uiso   1.00
C68    C     0.49839   0.04290   0.16617   0.00000  Uiso   1.00
C69    C     0.46594   0.14338   0.02027   0.00000  Uiso   1.00
C70    C     0.53401   0.19003   0.31301   0.00000  Uiso   1.00
C71    C     0.46604   0.14330   0.30407   0.00000  Uiso   1.00
C72    C     0.53402   0.19000   0.02926   0.00000  Uiso   1.00
C73    C     0.65776   0.13857   0.10513   0.00000  Uiso   1.00
C74    C     0.34217   0.18777   0.23096   0.00000  Uiso   1.00
C75    C     0.40772   0.04634   0.08636   0.00000  Uiso   1.00
C76    C     0.49916   0.24601   0.16674   0.00000  Uiso   1.00
C77    C     0.37653   0.02590   0.04384   0.00000  Uiso   1.00
C78    C     0.65264   0.02723   0.04597   0.00000  Uiso   1.00
C79    C     0.44987   0.28623   0.25762   0.00000  Uiso   1.00
C80    C     0.42054   0.32439   0.27011   0.00000  Uiso   1.00
C81    C     0.36399   0.31477   0.26933   0.00000  Uiso   1.00
C82    C     0.40138   0.16624   0.15470   0.00000  Uiso   1.00
C83    C     0.59852   0.16579   0.17874   0.00000  Uiso   1.00
C84    C     0.34676   0.16042   0.14898   0.00000  Uiso   1.00
C85    C     0.65328   0.16903   0.18529   0.00000  Uiso   1.00
C86    C     0.48313   0.02106   0.12405   0.00000  Uiso   1.00
C87    C     0.50392   0.31303   0.21015   0.00000  Uiso   1.00
C88    C     0.48645   0.31187   0.12429   0.00000  Uiso   1.00
Cu89   Cu    0.50000   0.16667   0.21355   0.00000  Uiso   1.00
Cu90   Cu    0.50000   0.16666   0.11978   0.00000  Uiso   1.00
H91    H     0.47684   0.29546   0.09128   0.00000  Uiso   1.00
H92    H     0.39487   0.03425   0.11938   0.00000  Uiso   1.00
H93    H     0.38421   0.04214   0.01149   0.00000  Uiso   1.00
H94    H     0.38868   0.32668   0.04223   0.00000  Uiso   1.00
H95    H     0.64403   0.01581   0.08058   0.00000  Uiso   1.00
H96    H     0.63247   0.00749   0.01770   0.00000  Uiso   1.00
H97    H     0.63809   0.05895   0.03995   0.00000  Uiso   1.00
H98    H     0.44938   0.26315   0.28616   0.00000  Uiso   1.00
H99    H     0.42937   0.27228   0.22484   0.00000  Uiso   1.00
H100   H     0.43755   0.00215   0.30551   0.00000  Uiso   1.00
H101   H     0.42319   0.01595   0.24415   0.00000  Uiso   1.00
H102   H     0.51794   0.03831   0.24203   0.00000  Uiso   1.00
H103   H     0.34725   0.30331   0.23396   0.00000  Uiso   1.00
H104   H     0.34297   0.00973   0.27631   0.00000  Uiso   1.00
H105   H     0.35883   0.29139   0.29650   0.00000  Uiso   1.00
H106   H     0.43857   0.12479   0.03522   0.00000  Uiso   1.00
H107   H     0.56121   0.20882   0.29793   0.00000  Uiso   1.00
H108   H     0.43889   0.12446   0.28186   0.00000  Uiso   1.00
H109   H     0.56126   0.20874   0.05148   0.00000  Uiso   1.00
H110   H     0.64952   0.13560   0.03399   0.00000  Uiso   1.00
H111   H     0.35484   0.18326   0.30195   0.00000  Uiso   1.00
H112   H     0.39941   0.07969   0.08530   0.00000  Uiso   1.00
N113   N     0.50001   0.16668   0.28403   0.00000  Uiso   1.00
N114   N     0.49999   0.16666   0.04931   0.00000  Uiso   1.00
O115   O     0.50000   0.10655   0.20625   0.00000  Uiso   1.00
O116   O     0.66661   0.15305   0.06099   0.00000  Uiso   1.00
O117   O     0.36143   0.22171   0.23145   0.00000  Uiso   1.00
O118   O     0.33898   0.16715   0.27328   0.00000  Uiso   1.00
O119   O     0.46044   0.04063   0.08358   0.00000  Uiso   1.00
O120   O     0.50164   0.29491   0.25360   0.00000  Uiso   1.00
O121   O     0.50000   0.22678   0.12709   0.00000  Uiso   1.00
O122   O     0.50000   0.10654   0.12706   0.00000  Uiso   1.00
O123   O     0.50000   0.22679   0.20628   0.00000  Uiso   1.00
O124   O     0.42495   0.16667   0.19712   0.00000  Uiso   1.00
O125   O     0.57505   0.16666   0.13621   0.00000  Uiso   1.00
O126   O     0.42494   0.16666   0.11793   0.00000  Uiso   1.00
O127   O     0.57506   0.16667   0.21540   0.00000  Uiso   1.00
O128   O     0.63263   0.10749   0.10794   0.00000  Uiso   1.00
C129   C     0.83273   0.08743   0.16650   0.00000  Uiso   1.00
C130   C     0.84280   0.02188   0.20890   0.00000  Uiso   1.00
C131   C     0.83073   0.29076   0.16718   0.00000  Uiso   1.00
C132   C     0.83172   0.04290   0.16617   0.00000  Uiso   1.00
C133   C     0.79927   0.14338   0.02027   0.00000  Uiso   1.00
C134   C     0.86735   0.19003   0.31301   0.00000  Uiso   1.00
C135   C     0.79938   0.14330   0.30407   0.00000  Uiso   1.00
C136   C     0.86736   0.19000   0.02926   0.00000  Uiso   1.00
C137   C     0.99110   0.13857   0.10513   0.00000  Uiso   1.00
C138   C     0.67550   0.18777   0.23096   0.00000  Uiso   1.00
C139   C     0.74105   0.04634   0.08636   0.00000  Uiso   1.00
C140   C     0.83249   0.24601   0.16674   0.00000  Uiso   1.00
C141   C     0.70987   0.02590   0.04384   0.00000  Uiso   1.00
C142   C     0.98598   0.02723   0.04597   0.00000  Uiso   1.00
C143   C     0.78320   0.28623   0.25762   0.00000  Uiso   1.00
C144   C     0.75387   0.32439   0.27011   0.00000  Uiso   1.00
C145   C     0.69732   0.31477   0.26933   0.00000  Uiso   1.00
C146   C     0.73471   0.16624   0.15470   0.00000  Uiso   1.00
C147   C     0.93185   0.16579   0.17874   0.00000  Uiso   1.00
C148   C     0.68009   0.16042   0.14898   0.00000  Uiso   1.00
C149   C     0.98661   0.16903   0.18529   0.00000  Uiso   1.00
C150   C     0.81647   0.02106   0.12405   0.00000  Uiso   1.00
C151   C     0.83725   0.31303   0.21015   0.00000  Uiso   1.00
C152   C     0.81978   0.31187   0.12429   0.00000  Uiso   1.00
Cu153  Cu    0.83333   0.16667   0.21355   0.00000  Uiso   1.00
Cu154  Cu    0.83333   0.16666   0.11978   0.00000  Uiso   1.00
H155   H     0.81018   0.29546   0.09128   0.00000  Uiso   1.00
H156   H     0.72820   0.03425   0.11938   0.00000  Uiso   1.00
H157   H     0.71754   0.04214   0.01149   0.00000  Uiso   1.00
H158   H     0.72202   0.32668   0.04223   0.00000  Uiso   1.00
H159   H     0.97736   0.01581   0.08058   0.00000  Uiso   1.00
H160   H     0.96581   0.00749   0.01770   0.00000  Uiso   1.00
H161   H     0.97143   0.05895   0.03995   0.00000  Uiso   1.00
H162   H     0.78271   0.26315   0.28616   0.00000  Uiso   1.00
H163   H     0.76271   0.27228   0.22484   0.00000  Uiso   1.00
H164   H     0.77088   0.00215   0.30551   0.00000  Uiso   1.00
H165   H     0.75652   0.01595   0.24415   0.00000  Uiso   1.00
H166   H     0.85127   0.03831   0.24203   0.00000  Uiso   1.00
H167   H     0.68058   0.30331   0.23396   0.00000  Uiso   1.00
H168   H     0.67630   0.00973   0.27631   0.00000  Uiso   1.00
H169   H     0.69216   0.29139   0.29650   0.00000  Uiso   1.00
H170   H     0.77191   0.12479   0.03522   0.00000  Uiso   1.00
H171   H     0.89454   0.20882   0.29793   0.00000  Uiso   1.00
H172   H     0.77223   0.12446   0.28186   0.00000  Uiso   1.00
H173   H     0.89459   0.20874   0.05148   0.00000  Uiso   1.00
H174   H     0.98285   0.13560   0.03399   0.00000  Uiso   1.00
H175   H     0.68817   0.18326   0.30195   0.00000  Uiso   1.00
H176   H     0.73274   0.07969   0.08530   0.00000  Uiso   1.00
N177   N     0.83335   0.16668   0.28403   0.00000  Uiso   1.00
N178   N     0.83332   0.16666   0.04931   0.00000  Uiso   1.00
O179   O     0.83333   0.10655   0.20625   0.00000  Uiso   1.00
O180   O     0.99994   0.15305   0.06099   0.00000  Uiso   1.00
O181   O     0.69476   0.22171   0.23145   0.00000  Uiso   1.00
O182   O     0.67231   0.16715   0.27328   0.00000  Uiso   1.00
O183   O     0.79377   0.04063   0.08358   0.00000  Uiso   1.00
O184   O     0.83497   0.29491   0.25360   0.00000  Uiso   1.00
O185   O     0.83334   0.22678   0.12709   0.00000  Uiso   1.00
O186   O     0.83333   0.10654   0.12706   0.00000  Uiso   1.00
O187   O     0.83334   0.22679   0.20628   0.00000  Uiso   1.00
O188   O     0.75828   0.16667   0.19712   0.00000  Uiso   1.00
O189   O     0.90839   0.16666   0.13621   0.00000  Uiso   1.00
O190   O     0.75828   0.16666   0.11793   0.00000  Uiso   1.00
O191   O     0.90839   0.16667   0.21540   0.00000  Uiso   1.00
O192   O     0.96596   0.10749   0.10794   0.00000  Uiso   1.00
C193   C     0.16606   0.42077   0.16650   0.00000  Uiso   1.00
C194   C     0.17614   0.35522   0.20890   0.00000  Uiso   1.00
C195   C     0.16407   0.62409   0.16718   0.00000  Uiso   1.00
C196   C     0.16506   0.37624   0.16617   0.00000  Uiso   1.00
C197   C     0.13261   0.47672   0.02027   0.00000  Uiso   1.00
C198   C     0.20068   0.52336   0.31301   0.00000  Uiso   1.00
C199   C     0.13271   0.47663   0.30407   0.00000  Uiso   1.00
C200   C     0.20069   0.52333   0.02926   0.00000  Uiso   1.00
C201   C     0.32443   0.47191   0.10513   0.00000  Uiso   1.00
C202   C     0.00884   0.52110   0.23096   0.00000  Uiso   1.00
C203   C     0.07438   0.37967   0.08636   0.00000  Uiso   1.00
C204   C     0.16583   0.57934   0.16674   0.00000  Uiso   1.00
C205   C     0.04320   0.35923   0.04384   0.00000  Uiso   1.00
C206   C     0.31931   0.36056   0.04597   0.00000  Uiso   1.00
C207   C     0.11654   0.61956   0.25762   0.00000  Uiso   1.00
C208   C     0.08720   0.65773   0.27011   0.00000  Uiso   1.00
C209   C     0.03066   0.64811   0.26933   0.00000  Uiso   1.00
C210   C     0.06805   0.49958   0.15470   0.00000  Uiso   1.00
C211   C     0.26519   0.49912   0.17874   0.00000  Uiso   1.00
C212   C     0.01342   0.49375   0.14898   0.00000  Uiso   1.00
C213   C     0.31994   0.50236   0.18529   0.00000  Uiso   1.00
C214   C     0.14980   0.35439   0.12405   0.00000  Uiso   1.00
C215   C     0.17059   0.64637   0.21015   0.00000  Uiso   1.00
C216   C     0.15312   0.64520   0.12429   0.00000  Uiso   1.00
Cu217  Cu    0.16667   0.50001   0.21355   0.00000  Uiso   1.00
Cu218  Cu    0.16667   0.49999   0.11978   0.00000  Uiso   1.00
H219   H     0.14351   0.62879   0.09128   0.00000  Uiso   1.00
H220   H     0.06154   0.36759   0.11938   0.00000  Uiso   1.00
H221   H     0.05087   0.37548   0.01149   0.00000  Uiso   1.00
H222   H     0.05535   0.66001   0.04223   0.00000  Uiso   1.00
H223   H     0.31069   0.34914   0.08058   0.00000  Uiso   1.00
H224   H     0.29914   0.34083   0.01770   0.00000  Uiso   1.00
H225   H     0.30476   0.39228   0.03995   0.00000  Uiso   1.00
H226   H     0.11604   0.59648   0.28616   0.00000  Uiso   1.00
H227   H     0.09604   0.60561   0.22484   0.00000  Uiso   1.00
H228   H     0.10422   0.33548   0.30551   0.00000  Uiso   1.00
H229   H     0.08985   0.34928   0.24415   0.00000  Uiso   1.00
H230   H     0.18460   0.37164   0.24203   0.00000  Uiso   1.00
H231   H     0.01391   0.63664   0.23396   0.00000  Uiso   1.00
H232   H     0.00963   0.34306   0.27631   0.00000  Uiso   1.00
H233   H     0.02550   0.62472   0.29650   0.00000  Uiso   1.00
H234   H     0.10524   0.45812   0.03522   0.00000  Uiso   1.00
H235   H     0.22787   0.54215   0.29793   0.00000  Uiso   1.00
H236   H     0.10556   0.45780   0.28186   0.00000  Uiso   1.00
H237   H     0.22792   0.54208   0.05148   0.00000  Uiso   1.00
H238   H     0.31619   0.46894   0.03399   0.00000  Uiso   1.00
H239   H     0.02150   0.51659   0.30195   0.00000  Uiso   1.00
H240   H     0.06607   0.41303   0.08530   0.00000  Uiso   1.00
N241   N     0.16668   0.50001   0.28403   0.00000  Uiso   1.00
N242   N     0.16665   0.49999   0.04931   0.00000  Uiso   1.00
O243   O     0.16666   0.43989   0.20625   0.00000  Uiso   1.00
O244   O     0.33328   0.48638   0.06099   0.00000  Uiso   1.00
O245   O     0.02810   0.55505   0.23145   0.00000  Uiso   1.00
O246   O     0.00565   0.50048   0.27328   0.00000  Uiso   1.00
O247   O     0.12711   0.37397   0.08358   0.00000  Uiso   1.00
O248   O     0.16830   0.62824   0.25360   0.00000  Uiso   1.00
O249   O     0.16667   0.56011   0.12709   0.00000  Uiso   1.00
O250   O     0.16666   0.43988   0.12706   0.00000  Uiso   1.00
O251   O     0.16667   0.56012   0.20628   0.00000  Uiso   1.00
O252   O     0.09161   0.50000   0.19712   0.00000  Uiso   1.00
O253   O     0.24172   0.50000   0.13621   0.00000  Uiso   1.00
O254   O     0.09161   0.49999   0.11793   0.00000  Uiso   1.00
O255   O     0.24172   0.50001   0.21540   0.00000  Uiso   1.00
O256   O     0.29929   0.44082   0.10794   0.00000  Uiso   1.00
C257   C     0.49940   0.42077   0.16650   0.00000  Uiso   1.00
C258   C     0.50947   0.35522   0.20890   0.00000  Uiso   1.00
C259   C     0.49740   0.62409   0.16718   0.00000  Uiso   1.00
C260   C     0.49839   0.37624   0.16617   0.00000  Uiso   1.00
C261   C     0.46594   0.47672   0.02027   0.00000  Uiso   1.00
C262   C     0.53401   0.52336   0.31301   0.00000  Uiso   1.00
C263   C     0.46604   0.47663   0.30407   0.00000  Uiso   1.00
C264   C     0.53402   0.52333   0.02926   0.00000  Uiso   1.00
C265   C     0.65776   0.47191   0.10513   0.00000  Uiso   1.00
C266   C     0.34217   0.52110   0.23096   0.00000  Uiso   1.00
C267   C     0.40772   0.37967   0.08636   0.00000  Uiso   1.00
C268   C     0.49916   0.57934   0.16674   0.00000  Uiso   1.00
C269   C     0.37653   0.35923   0.04384   0.00000  Uiso   1.00
C270   C     0.65264   0.36056   0.04597   0.00000  Uiso   1.00
C271   C     0.44987   0.61956   0.25762   0.00000  Uiso   1.00
C272   C     0.42054   0.65773   0.27011   0.00000  Uiso   1.00
C273   C     0.36399   0.64811   0.26933   0.00000  Uiso   1.00
C274   C     0.40138   0.49958   0.15470   0.00000  Uiso   1.00
C275   C     0.59852   0.49912   0.17874   0.00000  Uiso   1.00
C276   C     0.34676   0.49375   0.14898   0.00000  Uiso   1.00
C277   C     0.65328   0.50236   0.18529   0.00000  Uiso   1.00
C278   C     0.48313   0.35439   0.12405   0.00000  Uiso   1.00
C279   C     0.50392   0.64637   0.21015   0.00000  Uiso   1.00
C280   C     0.48645   0.64520   0.12429   0.00000  Uiso   1.00
Cu281  Cu    0.50000   0.50001   0.21355   0.00000  Uiso   1.00
Cu282  Cu    0.50000   0.49999   0.11978   0.00000  Uiso   1.00
H283   H     0.47684   0.62879   0.09128   0.00000  Uiso   1.00
H284   H     0.39487   0.36759   0.11938   0.00000  Uiso   1.00
H285   H     0.38421   0.37548   0.01149   0.00000  Uiso   1.00
H286   H     0.38868   0.66001   0.04223   0.00000  Uiso   1.00
H287   H     0.64403   0.34914   0.08058   0.00000  Uiso   1.00
H288   H     0.63247   0.34083   0.01770   0.00000  Uiso   1.00
H289   H     0.63809   0.39228   0.03995   0.00000  Uiso   1.00
H290   H     0.44938   0.59648   0.28616   0.00000  Uiso   1.00
H291   H     0.42937   0.60561   0.22484   0.00000  Uiso   1.00
H292   H     0.43755   0.33548   0.30551   0.00000  Uiso   1.00
H293   H     0.42319   0.34928   0.24415   0.00000  Uiso   1.00
H294   H     0.51794   0.37164   0.24203   0.00000  Uiso   1.00
H295   H     0.34725   0.63664   0.23396   0.00000  Uiso   1.00
H296   H     0.34297   0.34306   0.27631   0.00000  Uiso   1.00
H297   H     0.35883   0.62472   0.29650   0.00000  Uiso   1.00
H298   H     0.43857   0.45812   0.03522   0.00000  Uiso   1.00
H299   H     0.56121   0.54215   0.29793   0.00000  Uiso   1.00
H300   H     0.43889   0.45780   0.28186   0.00000  Uiso   1.00
H301   H     0.56126   0.54208   0.05148   0.00000  Uiso   1.00
H302   H     0.64952   0.46894   0.03399   0.00000  Uiso   1.00
H303   H     0.35484   0.51659   0.30195   0.00000  Uiso   1.00
H304   H     0.39941   0.41303   0.08530   0.00000  Uiso   1.00
N305   N     0.50001   0.50001   0.28403   0.00000  Uiso   1.00
N306   N     0.49999   0.49999   0.04931   0.00000  Uiso   1.00
O307   O     0.50000   0.43989   0.20625   0.00000  Uiso   1.00
O308   O     0.66661   0.48638   0.06099   0.00000  Uiso   1.00
O309   O     0.36143   0.55505   0.23145   0.00000  Uiso   1.00
O310   O     0.33898   0.50048   0.27328   0.00000  Uiso   1.00
O311   O     0.46044   0.37397   0.08358   0.00000  Uiso   1.00
O312   O     0.50164   0.62824   0.25360   0.00000  Uiso   1.00
O313   O     0.50000   0.56011   0.12709   0.00000  Uiso   1.00
O314   O     0.50000   0.43988   0.12706   0.00000  Uiso   1.00
O315   O     0.50000   0.56012   0.20628   0.00000  Uiso   1.00
O316   O     0.42495   0.50000   0.19712   0.00000  Uiso   1.00
O317   O     0.57505   0.50000   0.13621   0.00000  Uiso   1.00
O318   O     0.42494   0.49999   0.11793   0.00000  Uiso   1.00
O319   O     0.57506   0.50001   0.21540   0.00000  Uiso   1.00
O320   O     0.63263   0.44082   0.10794   0.00000  Uiso   1.00
C321   C     0.83273   0.42077   0.16650   0.00000  Uiso   1.00
C322   C     0.84280   0.35522   0.20890   0.00000  Uiso   1.00
C323   C     0.83073   0.62409   0.16718   0.00000  Uiso   1.00
C324   C     0.83172   0.37624   0.16617   0.00000  Uiso   1.00
C325   C     0.79927   0.47672   0.02027   0.00000  Uiso   1.00
C326   C     0.86735   0.52336   0.31301   0.00000  Uiso   1.00
C327   C     0.79938   0.47663   0.30407   0.00000  Uiso   1.00
C328   C     0.86736   0.52333   0.02926   0.00000  Uiso   1.00
C329   C     0.99110   0.47191   0.10513   0.00000  Uiso   1.00
C330   C     0.67550   0.52110   0.23096   0.00000  Uiso   1.00
C331   C     0.74105   0.37967   0.08636   0.00000  Uiso   1.00
C332   C     0.83249   0.57934   0.16674   0.00000  Uiso   1.00
C333   C     0.70987   0.35923   0.04384   0.00000  Uiso   1.00
C334   C     0.98598   0.36056   0.04597   0.00000  Uiso   1.00
C335   C     0.78320   0.61956   0.25762   0.00000  Uiso   1.00
C336   C     0.75387   0.65773   0.27011   0.00000  Uiso   1.00
C337   C     0.69732   0.64811   0.26933   0.00000  Uiso   1.00
C338   C     0.73471   0.49958   0.15470   0.00000  Uiso   1.00
C339   C     0.93185   0.49912   0.17874   0.00000  Uiso   1.00
C340   C     0.68009   0.49375   0.14898   0.00000  Uiso   1.00
C341   C     0.98661   0.50236   0.18529   0.00000  Uiso   1.00
C342   C     0.81647   0.35439   0.12405   0.00000  Uiso   1.00
C343   C     0.83725   0.64637   0.21015   0.00000  Uiso   1.00
C344   C     0.81978   0.64520   0.12429   0.00000  Uiso   1.00
Cu345  Cu    0.83333   0.50001   0.21355   0.00000  Uiso   1.00
Cu346  Cu    0.83333   0.49999   0.11978   0.00000  Uiso   1.00
H347   H     0.81018   0.62879   0.09128   0.00000  Uiso   1.00
H348   H     0.72820   0.36759   0.11938   0.00000  Uiso   1.00
H349   H     0.71754   0.37548   0.01149   0.00000  Uiso   1.00
H350   H     0.72202   0.66001   0.04223   0.00000  Uiso   1.00
H351   H     0.97736   0.34914   0.08058   0.00000  Uiso   1.00
H352   H     0.96581   0.34083   0.01770   0.00000  Uiso   1.00
H353   H     0.97143   0.39228   0.03995   0.00000  Uiso   1.00
H354   H     0.78271   0.59648   0.28616   0.00000  Uiso   1.00
H355   H     0.76271   0.60561   0.22484   0.00000  Uiso   1.00
H356   H     0.77088   0.33548   0.30551   0.00000  Uiso   1.00
H357   H     0.75652   0.34928   0.24415   0.00000  Uiso   1.00
H358   H     0.85127   0.37164   0.24203   0.00000  Uiso   1.00
H359   H     0.68058   0.63664   0.23396   0.00000  Uiso   1.00
H360   H     0.67630   0.34306   0.27631   0.00000  Uiso   1.00
H361   H     0.69216   0.62472   0.29650   0.00000  Uiso   1.00
H362   H     0.77191   0.45812   0.03522   0.00000  Uiso   1.00
H363   H     0.89454   0.54215   0.29793   0.00000  Uiso   1.00
H364   H     0.77223   0.45780   0.28186   0.00000  Uiso   1.00
H365   H     0.89459   0.54208   0.05148   0.00000  Uiso   1.00
H366   H     0.98285   0.46894   0.03399   0.00000  Uiso   1.00
H367   H     0.68817   0.51659   0.30195   0.00000  Uiso   1.00
H368   H     0.73274   0.41303   0.08530   0.00000  Uiso   1.00
N369   N     0.83335   0.50001   0.28403   0.00000  Uiso   1.00
N370   N     0.83332   0.49999   0.04931   0.00000  Uiso   1.00
O371   O     0.83333   0.43989   0.20625   0.00000  Uiso   1.00
O372   O     0.99994   0.48638   0.06099   0.00000  Uiso   1.00
O373   O     0.69476   0.55505   0.23145   0.00000  Uiso   1.00
O374   O     0.67231   0.50048   0.27328   0.00000  Uiso   1.00
O375   O     0.79377   0.37397   0.08358   0.00000  Uiso   1.00
O376   O     0.83497   0.62824   0.25360   0.00000  Uiso   1.00
O377   O     0.83334   0.56011   0.12709   0.00000  Uiso   1.00
O378   O     0.83333   0.43988   0.12706   0.00000  Uiso   1.00
O379   O     0.83334   0.56012   0.20628   0.00000  Uiso   1.00
O380   O     0.75828   0.50000   0.19712   0.00000  Uiso   1.00
O381   O     0.90839   0.50000   0.13621   0.00000  Uiso   1.00
O382   O     0.75828   0.49999   0.11793   0.00000  Uiso   1.00
O383   O     0.90839   0.50001   0.21540   0.00000  Uiso   1.00
O384   O     0.96596   0.44082   0.10794   0.00000  Uiso   1.00
C385   C     0.16606   0.75410   0.16650   0.00000  Uiso   1.00
C386   C     0.17614   0.68855   0.20890   0.00000  Uiso   1.00
C387   C     0.16407   0.95742   0.16718   0.00000  Uiso   1.00
C388   C     0.16506   0.70957   0.16617   0.00000  Uiso   1.00
C389   C     0.13261   0.81005   0.02027   0.00000  Uiso   1.00
C390   C     0.20068   0.85670   0.31301   0.00000  Uiso   1.00
C391   C     0.13271   0.80996   0.30407   0.00000  Uiso   1.00
C392   C     0.20069   0.85666   0.02926   0.00000  Uiso   1.00
C393   C     0.32443   0.80524   0.10513   0.00000  Uiso   1.00
C394   C     0.00884   0.85443   0.23096   0.00000  Uiso   1.00
C395   C     0.07438   0.71300   0.08636   0.00000  Uiso   1.00
C396   C     0.16583   0.91267   0.16674   0.00000  Uiso   1.00
C397   C     0.04320   0.69257   0.04384   0.00000  Uiso   1.00
C398   C     0.31931   0.69390   0.04597   0.00000  Uiso   1.00
C399   C     0.11654   0.95290   0.25762   0.00000  Uiso   1.00
C400   C     0.08720   0.99106   0.27011   0.00000  Uiso   1.00
C401   C     0.03066   0.98144   0.26933   0.00000  Uiso   1.00
C402   C     0.06805   0.83291   0.15470   0.00000  Uiso   1.00
C403   C     0.26519   0.83245   0.17874   0.00000  Uiso   1.00
C404   C     0.01342   0.82708   0.14898   0.00000  Uiso   1.00
C405   C     0.31994   0.83570   0.18529   0.00000  Uiso   1.00
C406   C     0.14980   0.68773   0.12405   0.00000  Uiso   1.00
C407   C     0.17059   0.97970   0.21015   0.00000  Uiso   1.00
C408   C     0.15312   0.97853   0.12429   0.00000  Uiso   1.00
Cu409  Cu    0.16667   0.83334   0.21355   0.00000  Uiso   1.00
Cu410  Cu    0.16667   0.83333   0.11978   0.00000  Uiso   1.00
H411   H     0.14351   0.96213   0.09128   0.00000  Uiso   1.00
H412   H     0.06154   0.70092   0.11938   0.00000  Uiso   1.00
H413   H     0.05087   0.70881   0.01149   0.00000  Uiso   1.00
H414   H     0.05535   0.99334   0.04223   0.00000  Uiso   1.00
H415   H     0.31069   0.68247   0.08058   0.00000  Uiso   1.00
H416   H     0.29914   0.67416   0.01770   0.00000  Uiso   1.00
H417   H     0.30476   0.72562   0.03995   0.00000  Uiso   1.00
H418   H     0.11604   0.92982   0.28616   0.00000  Uiso   1.00
H419   H     0.09604   0.93895   0.22484   0.00000  Uiso   1.00
H420   H     0.10422   0.66881   0.30551   0.00000  Uiso   1.00
H421   H     0.08985   0.68261   0.24415   0.00000  Uiso   1.00
H422   H     0.18460   0.70498   0.24203   0.00000  Uiso   1.00
H423   H     0.01391   0.96997   0.23396   0.00000  Uiso   1.00
H424   H     0.00963   0.67639   0.27631   0.00000  Uiso   1.00
H425   H     0.02550   0.95806   0.29650   0.00000  Uiso   1.00
H426   H     0.10524   0.79145   0.03522   0.00000  Uiso   1.00
H427   H     0.22787   0.87549   0.29793   0.00000  Uiso   1.00
H428   H     0.10556   0.79113   0.28186   0.00000  Uiso   1.00
H429   H     0.22792   0.87541   0.05148   0.00000  Uiso   1.00
H430   H     0.31619   0.80227   0.03399   0.00000  Uiso   1.00
H431   H     0.02150   0.84993   0.30195   0.00000  Uiso   1.00
H432   H     0.06607   0.74636   0.08530   0.00000  Uiso   1.00
N433   N     0.16668   0.83334   0.28403   0.00000  Uiso   1.00
N434   N     0.16665   0.83332   0.04931   0.00000  Uiso   1.00
O435   O     0.16666   0.77322   0.20625   0.00000  Uiso   1.00
O436   O     0.33328   0.81972   0.06099   0.00000  Uiso   1.00
O437   O     0.02810   0.88838   0.23145   0.00000  Uiso   1.00
O438   O     0.00565   0.83381   0.27328   0.00000  Uiso   1.00
O439   O     0.12711   0.70730   0.08358   0.00000  Uiso   1.00
O440   O     0.16830   0.96157   0.25360   0.00000  Uiso   1.00
O441   O     0.16667   0.89345   0.12709   0.00000  Uiso   1.00
O442   O     0.16666   0.77321   0.12706   0.00000  Uiso   1.00
O443   O     0.16667   0.89346   0.20628   0.00000  Uiso   1.00
O444   O     0.09161   0.83334   0.19712   0.00000  Uiso   1.00
O445   O     0.24172   0.83333   0.13621   0.00000  Uiso   1.00
O446   O     0.09161   0.83333   0.11793   0.00000  Uiso   1.00
O447   O     0.24172   0.83334   0.21540   0.00000  Uiso   1.00
O448   O     0.29929   0.77415   0.10794   0.00000  Uiso   1.00
C449   C     0.49940   0.75410   0.16650   0.00000  Uiso   1.00
C450   C     0.50947   0.68855   0.20890   0.00000  Uiso   1.00
C451   C     0.49740   0.95742   0.16718   0.00000  Uiso   1.00
C452   C     0.49839   0.70957   0.16617   0.00000  Uiso   1.00
C453   C     0.46594   0.81005   0.02027   0.00000  Uiso   1.00
C454   C     0.53401   0.85670   0.31301   0.00000  Uiso   1.00
C455   C     0.46604   0.80996   0.30407   0.00000  Uiso   1.00
C456   C     0.53402   0.85666   0.02926   0.00000  Uiso   1.00
C457   C     0.65776   0.80524   0.10513   0.00000  Uiso   1.00
C458   C     0.34217   0.85443   0.23096   0.00000  Uiso   1.00
C459   C     0.40772   0.71300   0.08636   0.00000  Uiso   1.00
C460   C     0.49916   0.91267   0.16674   0.00000  Uiso   1.00
C461   C     0.37653   0.69257   0.04384   0.00000  Uiso   1.00
C462   C     0.65264   0.69390   0.04597   0.00000  Uiso   1.00
C463   C     0.44987   0.95290   0.25762   0.00000  Uiso   1.00
C464   C     0.42054   0.99106   0.27011   0.00000  Uiso   1.00
C465   C     0.36399   0.98144   0.26933   0.00000  Uiso   1.00
C466   C     0.40138   0.83291   0.15470   0.00000  Uiso   1.00
C467   C     0.59852   0.83245   0.17874   0.00000  Uiso   1.00
C468   C     0.34676   0.82708   0.14898   0.00000  Uiso   1.00
C469   C     0.65328   0.83570   0.18529   0.00000  Uiso   1.00
C470   C     0.48313   0.68773   0.12405   0.00000  Uiso   1.00
C471   C     0.50392   0.97970   0.21015   0.00000  Uiso   1.00
C472   C     0.48645   0.97853   0.12429   0.00000  Uiso   1.00
Cu473  Cu    0.50000   0.83334   0.21355   0.00000  Uiso   1.00
Cu474  Cu    0.50000   0.83333   0.11978   0.00000  Uiso   1.00
H475   H     0.47684   0.96213   0.09128   0.00000  Uiso   1.00
H476   H     0.39487   0.70092   0.11938   0.00000  Uiso   1.00
H477   H     0.38421   0.70881   0.01149   0.00000  Uiso   1.00
H478   H     0.38868   0.99334   0.04223   0.00000  Uiso   1.00
H479   H     0.64403   0.68247   0.08058   0.00000  Uiso   1.00
H480   H     0.63247   0.67416   0.01770   0.00000  Uiso   1.00
H481   H     0.63809   0.72562   0.03995   0.00000  Uiso   1.00
H482   H     0.44938   0.92982   0.28616   0.00000  Uiso   1.00
H483   H     0.42937   0.93895   0.22484   0.00000  Uiso   1.00
H484   H     0.43755   0.66881   0.30551   0.00000  Uiso   1.00
H485   H     0.42319   0.68261   0.24415   0.00000  Uiso   1.00
H486   H     0.51794   0.70498   0.24203   0.00000  Uiso   1.00
H487   H     0.34725   0.96997   0.23396   0.00000  Uiso   1.00
H488   H     0.34297   0.67639   0.27631   0.00000  Uiso   1.00
H489   H     0.35883   0.95806   0.29650   0.00000  Uiso   1.00
H490   H     0.43857   0.79145   0.03522   0.00000  Uiso   1.00
H491   H     0.56121   0.87549   0.29793   0.00000  Uiso   1.00
H492   H     0.43889   0.79113   0.28186   0.00000  Uiso   1.00
H493   H     0.56126   0.87541   0.05148   0.00000  Uiso   1.00
H494   H     0.64952   0.80227   0.03399   0.00000  Uiso   1.00
H495   H     0.35484   0.84993   0.30195   0.00000  Uiso   1.00
H496   H     0.39941   0.74636   0.08530   0.00000  Uiso   1.00
N497   N     0.50001   0.83334   0.28403   0.00000  Uiso   1.00
N498   N     0.49999   0.83332   0.04931   0.00000  Uiso   1.00
O499   O     0.50000   0.77322   0.20625   0.00000  Uiso   1.00
O500   O     0.66661   0.81972   0.06099   0.00000  Uiso   1.00
O501   O     0.36143   0.88838   0.23145   0.00000  Uiso   1.00
O502   O     0.33898   0.83381   0.27328   0.00000  Uiso   1.00
O503   O     0.46044   0.70730   0.08358   0.00000  Uiso   1.00
O504   O     0.50164   0.96157   0.25360   0.00000  Uiso   1.00
O505   O     0.50000   0.89345   0.12709   0.00000  Uiso   1.00
O506   O     0.50000   0.77321   0.12706   0.00000  Uiso   1.00
O507   O     0.50000   0.89346   0.20628   0.00000  Uiso   1.00
O508   O     0.42495   0.83334   0.19712   0.00000  Uiso   1.00
O509   O     0.57505   0.83333   0.13621   0.00000  Uiso   1.00
O510   O     0.42494   0.83333   0.11793   0.00000  Uiso   1.00
O511   O     0.57506   0.83334   0.21540   0.00000  Uiso   1.00
O512   O     0.63263   0.77415   0.10794   0.00000  Uiso   1.00
C513   C     0.83273   0.75410   0.16650   0.00000  Uiso   1.00
C514   C     0.84280   0.68855   0.20890   0.00000  Uiso   1.00
C515   C     0.83073   0.95742   0.16718   0.00000  Uiso   1.00
C516   C     0.83172   0.70957   0.16617   0.00000  Uiso   1.00
C517   C     0.79927   0.81005   0.02027   0.00000  Uiso   1.00
C518   C     0.86735   0.85670   0.31301   0.00000  Uiso   1.00
C519   C     0.79938   0.80996   0.30407   0.00000  Uiso   1.00
C520   C     0.86736   0.85666   0.02926   0.00000  Uiso   1.00
C521   C     0.99110   0.80524   0.10513   0.00000  Uiso   1.00
C522   C     0.67550   0.85443   0.23096   0.00000  Uiso   1.00
C523   C     0.74105   0.71300   0.08636   0.00000  Uiso   1.00
C524   C     0.83249   0.91267   0.16674   0.00000  Uiso   1.00
C525   C     0.70987   0.69257   0.04384   0.00000  Uiso   1.00
C526   C     0.98598   0.69390   0.04597   0.00000  Uiso   1.00
C527   C     0.78320   0.95290   0.25762   0.00000  Uiso   1.00
C528   C     0.75387   0.99106   0.27011   0.00000  Uiso   1.00
C529   C     0.69732   0.98144   0.26933   0.00000  Uiso   1.00
C530   C     0.73471   0.83291   0.15470   0.00000  Uiso   1.00
C531   C     0.93185   0.83245   0.17874   0.00000  Uiso   1.00
C532   C     0.68009   0.82708   0.14898   0.00000  Uiso   1.00
C533   C     0.98661   0.83570   0.18529   0.00000  Uiso   1.00
C534   C     0.81647   0.68773   0.12405   0.00000  Uiso   1.00
C535   C     0.83725   0.97970   0.21015   0.00000  Uiso   1.00
C536   C     0.81978   0.97853   0.12429   0.00000  Uiso   1.00
Cu537  Cu    0.83333   0.83334   0.21355   0.00000  Uiso   1.00
Cu538  Cu    0.83333   0.83333   0.11978   0.00000  Uiso   1.00
H539   H     0.81018   0.96213   0.09128   0.00000  Uiso   1.00
H540   H     0.72820   0.70092   0.11938   0.00000  Uiso   1.00
H541   H     0.71754   0.70881   0.01149   0.00000  Uiso   1.00
H542   H     0.72202   0.99334   0.04223   0.00000  Uiso   1.00
H543   H     0.97736   0.68247   0.08058   0.00000  Uiso   1.00
H544   H     0.96581   0.67416   0.01770   0.00000  Uiso   1.00
H545   H     0.97143   0.72562   0.03995   0.00000  Uiso   1.00
H546   H     0.78271   0.92982   0.28616   0.00000  Uiso   1.00
H547   H     0.76271   0.93895   0.22484   0.00000  Uiso   1.00
H548   H     0.77088   0.66881   0.30551   0.00000  Uiso   1.00
H549   H     0.75652   0.68261   0.24415   0.00000  Uiso   1.00
H550   H     0.85127   0.70498   0.24203   0.00000  Uiso   1.00
H551   H     0.68058   0.96997   0.23396   0.00000  Uiso   1.00
H552   H     0.67630   0.67639   0.27631   0.00000  Uiso   1.00
H553   H     0.69216   0.95806   0.29650   0.00000  Uiso   1.00
H554   H     0.77191   0.79145   0.03522   0.00000  Uiso   1.00
H555   H     0.89454   0.87549   0.29793   0.00000  Uiso   1.00
H556   H     0.77223   0.79113   0.28186   0.00000  Uiso   1.00
H557   H     0.89459   0.87541   0.05148   0.00000  Uiso   1.00
H558   H     0.98285   0.80227   0.03399   0.00000  Uiso   1.00
H559   H     0.68817   0.84993   0.30195   0.00000  Uiso   1.00
H560   H     0.73274   0.74636   0.08530   0.00000  Uiso   1.00
N561   N     0.83335   0.83334   0.28403   0.00000  Uiso   1.00
N562   N     0.83332   0.83332   0.04931   0.00000  Uiso   1.00
O563   O     0.83333   0.77322   0.20625   0.00000  Uiso   1.00
O564   O     0.99994   0.81972   0.06099   0.00000  Uiso   1.00
O565   O     0.69476   0.88838   0.23145   0.00000  Uiso   1.00
O566   O     0.67231   0.83381   0.27328   0.00000  Uiso   1.00
O567   O     0.79377   0.70730   0.08358   0.00000  Uiso   1.00
O568   O     0.83497   0.96157   0.25360   0.00000  Uiso   1.00
O569   O     0.83334   0.89345   0.12709   0.00000  Uiso   1.00
O570   O     0.83333   0.77321   0.12706   0.00000  Uiso   1.00
O571   O     0.83334   0.89346   0.20628   0.00000  Uiso   1.00
O572   O     0.75828   0.83334   0.19712   0.00000  Uiso   1.00
O573   O     0.90839   0.83333   0.13621   0.00000  Uiso   1.00
O574   O     0.75828   0.83333   0.11793   0.00000  Uiso   1.00
O575   O     0.90839   0.83334   0.21540   0.00000  Uiso   1.00
O576   O     0.96596   0.77415   0.10794   0.00000  Uiso   1.00
C577   C     0.16606   0.08743   0.49983   0.00000  Uiso   1.00
C578   C     0.17614   0.02188   0.54223   0.00000  Uiso   1.00
C579   C     0.16407   0.29076   0.50052   0.00000  Uiso   1.00
C580   C     0.16506   0.04290   0.49950   0.00000  Uiso   1.00
C581   C     0.13261   0.14338   0.35361   0.00000  Uiso   1.00
C582   C     0.20068   0.19003   0.64634   0.00000  Uiso   1.00
C583   C     0.13271   0.14330   0.63740   0.00000  Uiso   1.00
C584   C     0.20069   0.19000   0.36259   0.00000  Uiso   1.00
C585   C     0.32443   0.13857   0.43847   0.00000  Uiso   1.00
C586   C     0.00884   0.18777   0.56429   0.00000  Uiso   1.00
C587   C     0.07438   0.04634   0.41969   0.00000  Uiso   1.00
C588   C     0.16583   0.24601   0.50007   0.00000  Uiso   1.00
C589   C     0.04320   0.02590   0.37717   0.00000  Uiso   1.00
C590   C     0.31931   0.02723   0.37931   0.00000  Uiso   1.00
C591   C     0.11654   0.28623   0.59095   0.00000  Uiso   1.00
C592   C     0.08720   0.32439   0.60344   0.00000  Uiso   1.00
C593   C     0.03066   0.31477   0.60267   0.00000  Uiso   1.00
C594   C     0.06805   0.16624   0.48804   0.00000  Uiso   1.00
C595   C     0.26519   0.16579   0.51207   0.00000  Uiso   1.00
C596   C     0.01342   0.16042   0.48231   0.00000  Uiso   1.00
C597   C     0.31994   0.16903   0.51862   0.00000  Uiso   1.00
C598   C     0.14980   0.02106   0.45739   0.00000  Uiso   1.00
C599   C     0.17059   0.31303   0.54349   0.00000  Uiso   1.00
C600   C     0.15312   0.31187   0.45763   0.00000  Uiso   1.00
Cu601  Cu    0.16667   0.16667   0.54689   0.00000  Uiso   1.00
Cu602  Cu    0.16667   0.16666   0.45311   0.00000  Uiso   1.00
H603   H     0.14351   0.29546   0.42462   0.00000  Uiso   1.00
H604   H     0.06154   0.03425   0.45271   0.00000  Uiso   1.00
H605   H     0.05087   0.04214   0.34483   0.00000  Uiso   1.00
H606   H     0.05535   0.32668   0.37557   0.00000  Uiso   1.00
H607   H     0.31069   0.01581   0.41391   0.00000  Uiso   1.00
H608   H     0.29914   0.00749   0.35103   0.00000  Uiso   1.00
H609   H     0.30476   0.05895   0.37328   0.00000  Uiso   1.00
H610   H     0.11604   0.26315   0.61949   0.00000  Uiso   1.00
H611   H     0.09604   0.27228   0.55817   0.00000  Uiso   1.00
H612   H     0.10422   0.00215   0.63884   0.00000  Uiso   1.00
H613   H     0.08985   0.01595   0.57749   0.00000  Uiso   1.00
H614   H     0.18460   0.03831   0.57536   0.00000  Uiso   1.00
H615   H     0.01391   0.30331   0.56729   0.00000  Uiso   1.00
H616   H     0.00963   0.00973   0.60964   0.00000  Uiso   1.00
H617   H     0.02550   0.29139   0.62983   0.00000  Uiso   1.00
H618   H     0.10524   0.12479   0.36856   0.00000  Uiso   1.00
H619   H     0.22787   0.20882   0.63126   0.00000  Uiso   1.00
H620   H     0.10556   0.12446   0.61519   0.00000  Uiso   1.00
H621   H     0.22792   0.20874   0.38481   0.00000  Uiso   1.00
H622   H     0.31619   0.13560   0.36732   0.00000  Uiso   1.00
H623   H     0.02150   0.18326   0.63528   0.00000  Uiso   1.00
H624   H     0.06607   0.07969   0.41864   0.00000  Uiso   1.00
N625   N     0.16668   0.16668   0.61736   0.00000  Uiso   1.00
N626   N     0.16665   0.16666   0.38264   0.00000  Uiso   1.00
O627   O     0.16666   0.10655   0.53958   0.00000  Uiso   1.00
O628   O     0.33328   0.15305   0.39433   0.00000  Uiso   1.00
O629   O     0.02810   0.22171   0.56478   0.00000  Uiso   1.00
O630   O     0.00565   0.16715   0.60661   0.00000  Uiso   1.00
O631   O     0.12711   0.04063   0.41691   0.00000  Uiso   1.00
O632   O     0.16830   0.29491   0.58694   0.00000  Uiso   1.00
O633   O     0.16667   0.22678   0.46042   0.00000  Uiso   1.00
O634   O     0.16666   0.10654   0.46039   0.00000  Uiso   1.00
O635   O     0.16667   0.22679   0.53961   0.00000  Uiso   1.00
O636   O     0.09161   0.16667   0.53046   0.00000  Uiso   1.00
O637   O     0.24172   0.16666   0.46954   0.00000  Uiso   1.00
O638   O     0.09161   0.16666   0.45127   0.00000  Uiso   1.00
O639   O     0.24172   0.16667   0.54873   0.00000  Uiso   1.00
O640   O     0.29929   0.10749   0.44128   0.00000  Uiso   1.00
C641   C     0.49940   0.08743   0.49983   0.00000  Uiso   1.00
C642   C     0.50947   0.02188   0.54223   0.00000  Uiso   1.00
C643   C     0.49740   0.29076   0.50052   0.00000  Uiso   1.00
C644   C     0.49839   0.04290   0.49950   0.00000  Uiso   1.00
C645   C     0.46594   0.14338   0.35361   0.00000  Uiso   1.00
C646   C     0.53401   0.19003   0.64634   0.00000  Uiso   1.00
C647   C     0.46604   0.14330   0.63740   0.00000  Uiso   1.00
C648   C     0.53402   0.19000   0.36259   0.00000  Uiso   1.00
C649   C     0.65776   0.13857   0.43847   0.00000  Uiso   1.00
C650   C     0.34217   0.18777   0.56429   0.00000  Uiso   1.00
C651   C     0.40772   0.04634   0.41969   0.00000  Uiso   1.00
C652   C     0.49916   0.24601   0.50007   0.00000  Uiso   1.00
C653   C     0.37653   0.02590   0.37717   0.00000  Uiso   1.00
C654   C     0.65264   0.02723   0.37931   0.00000  Uiso   1.00
C655   C     0.44987   0.28623   0.59095   0.00000  Uiso   1.00
C656   C     0.42054   0.32439   0.60344   0.00000  Uiso   1.00
C657   C     0.36399   0.31477   0.60267   0.00000  Uiso   1.00
C658   C     0.40138   0.16624   0.48804   0.00000  Uiso   1.00
C659   C     0.59852   0.16579   0.51207   0.00000  Uiso   1.00
C660   C     0.34676   0.16042   0.48231   0.00000  Uiso   1.00
C661   C     0.65328   0.16903   0.51862   0.00000  Uiso   1.00
C662   C     0.48313   0.02106   0.45739   0.00000  Uiso   1.00
C663   C     0.50392   0.31303   0.54349   0.00000  Uiso   1.00
C664   C     0.48645   0.31187   0.45763   0.00000  Uiso   1.00
Cu665  Cu    0.50000   0.16667   0.54689   0.00000  Uiso   1.00
Cu666  Cu    0.50000   0.16666   0.45311   0.00000  Uiso   1.00
H667   H     0.47684   0.29546   0.42462   0.00000  Uiso   1.00
H668   H     0.39487   0.03425   0.45271   0.00000  Uiso   1.00
H669   H     0.38421   0.04214   0.34483   0.00000  Uiso   1.00
H670   H     0.38868   0.32668   0.37557   0.00000  Uiso   1.00
H671   H     0.64403   0.01581   0.41391   0.00000  Uiso   1.00
H672   H     0.63247   0.00749   0.35103   0.00000  Uiso   1.00
H673   H     0.63809   0.05895   0.37328   0.00000  Uiso   1.00
H674   H     0.44938   0.26315   0.61949   0.00000  Uiso   1.00
H675   H     0.42937   0.27228   0.55817   0.00000  Uiso   1.00
H676   H     0.43755   0.00215   0.63884   0.00000  Uiso   1.00
H677   H     0.42319   0.01595   0.57749   0.00000  Uiso   1.00
H678   H     0.51794   0.03831   0.57536   0.00000  Uiso   1.00
H679   H     0.34725   0.30331   0.56729   0.00000  Uiso   1.00
H680   H     0.34297   0.00973   0.60964   0.00000  Uiso   1.00
H681   H     0.35883   0.29139   0.62983   0.00000  Uiso   1.00
H682   H     0.43857   0.12479   0.36856   0.00000  Uiso   1.00
H683   H     0.56121   0.20882   0.63126   0.00000  Uiso   1.00
H684   H     0.43889   0.12446   0.61519   0.00000  Uiso   1.00
H685   H     0.56126   0.20874   0.38481   0.00000  Uiso   1.00
H686   H     0.64952   0.13560   0.36732   0.00000  Uiso   1.00
H687   H     0.35484   0.18326   0.63528   0.00000  Uiso   1.00
H688   H     0.39941   0.07969   0.41864   0.00000  Uiso   1.00
N689   N     0.50001   0.16668   0.61736   0.00000  Uiso   1.00
N690   N     0.49999   0.16666   0.38264   0.00000  Uiso   1.00
O691   O     0.50000   0.10655   0.53958   0.00000  Uiso   1.00
O692   O     0.66661   0.15305   0.39433   0.00000  Uiso   1.00
O693   O     0.36143   0.22171   0.56478   0.00000  Uiso   1.00
O694   O     0.33898   0.16715   0.60661   0.00000  Uiso   1.00
O695   O     0.46044   0.04063   0.41691   0.00000  Uiso   1.00
O696   O     0.50164   0.29491   0.58694   0.00000  Uiso   1.00
O697   O     0.50000   0.22678   0.46042   0.00000  Uiso   1.00
O698   O     0.50000   0.10654   0.46039   0.00000  Uiso   1.00
O699   O     0.50000   0.22679   0.53961   0.00000  Uiso   1.00
O700   O     0.42495   0.16667   0.53046   0.00000  Uiso   1.00
O701   O     0.57505   0.16666   0.46954   0.00000  Uiso   1.00
O702   O     0.42494   0.16666   0.45127   0.00000  Uiso   1.00
O703   O     0.57506   0.16667   0.54873   0.00000  Uiso   1.00
O704   O     0.63263   0.10749   0.44128   0.00000  Uiso   1.00
C705   C     0.83273   0.08743   0.49983   0.00000  Uiso   1.00
C706   C     0.84280   0.02188   0.54223   0.00000  Uiso   1.00
C707   C     0.83073   0.29076   0.50052   0.00000  Uiso   1.00
C708   C     0.83172   0.04290   0.49950   0.00000  Uiso   1.00
C709   C     0.79927   0.14338   0.35361   0.00000  Uiso   1.00
C710   C     0.86735   0.19003   0.64634   0.00000  Uiso   1.00
C711   C     0.79938   0.14330   0.63740   0.00000  Uiso   1.00
C712   C     0.86736   0.19000   0.36259   0.00000  Uiso   1.00
C713   C     0.99110   0.13857   0.43847   0.00000  Uiso   1.00
C714   C     0.67550   0.18777   0.56429   0.00000  Uiso   1.00
C715   C     0.74105   0.04634   0.41969   0.00000  Uiso   1.00
C716   C     0.83249   0.24601   0.50007   0.00000  Uiso   1.00
C717   C     0.70987   0.02590   0.37717   0.00000  Uiso   1.00
C718   C     0.98598   0.02723   0.37931   0.00000  Uiso   1.00
C719   C     0.78320   0.28623   0.59095   0.00000  Uiso   1.00
C720   C     0.75387   0.32439   0.60344   0.00000  Uiso   1.00
C721   C     0.69732   0.31477   0.60267   0.00000  Uiso   1.00
C722   C     0.73471   0.16624   0.48804   0.00000  Uiso   1.00
C723   C     0.93185   0.16579   0.51207   0.00000  Uiso   1.00
C724   C     0.68009   0.16042   0.48231   0.00000  Uiso   1.00
C725   C     0.98661   0.16903   0.51862   0.00000  Uiso   1.00
C726   C     0.81647   0.02106   0.45739   0.00000  Uiso   1.00
C727   C     0.83725   0.31303   0.54349   0.00000  Uiso   1.00
C728   C     0.81978   0.31187   0.45763   0.00000  Uiso   1.00
Cu729  Cu    0.83333   0.16667   0.54689   0.00000  Uiso   1.00
Cu730  Cu    0.83333   0.16666   0.45311   0.00000  Uiso   1.00
H731   H     0.81018   0.29546   0.42462   0.00000  Uiso   1.00
H732   H     0.72820   0.03425   0.45271   0.00000  Uiso   1.00
H733   H     0.71754   0.04214   0.34483   0.00000  Uiso   1.00
H734   H     0.72202   0.32668   0.37557   0.00000  Uiso   1.00
H735   H     0.97736   0.01581   0.41391   0.00000  Uiso   1.00
H736   H     0.96581   0.00749   0.35103   0.00000  Uiso   1.00
H737   H     0.97143   0.05895   0.37328   0.00000  Uiso   1.00
H738   H     0.78271   0.26315   0.61949   0.00000  Uiso   1.00
H739   H     0.76271   0.27228   0.55817   0.00000  Uiso   1.00
H740   H     0.77088   0.00215   0.63884   0.00000  Uiso   1.00
H741   H     0.75652   0.01595   0.57749   0.00000  Uiso   1.00
H742   H     0.85127   0.03831   0.57536   0.00000  Uiso   1.00
H743   H     0.68058   0.30331   0.56729   0.00000  Uiso   1.00
H744   H     0.67630   0.00973   0.60964   0.00000  Uiso   1.00
H745   H     0.69216   0.29139   0.62983   0.00000  Uiso   1.00
H746   H     0.77191   0.12479   0.36856   0.00000  Uiso   1.00
H747   H     0.89454   0.20882   0.63126   0.00000  Uiso   1.00
H748   H     0.77223   0.12446   0.61519   0.00000  Uiso   1.00
H749   H     0.89459   0.20874   0.38481   0.00000  Uiso   1.00
H750   H     0.98285   0.13560   0.36732   0.00000  Uiso   1.00
H751   H     0.68817   0.18326   0.63528   0.00000  Uiso   1.00
H752   H     0.73274   0.07969   0.41864   0.00000  Uiso   1.00
N753   N     0.83335   0.16668   0.61736   0.00000  Uiso   1.00
N754   N     0.83332   0.16666   0.38264   0.00000  Uiso   1.00
O755   O     0.83333   0.10655   0.53958   0.00000  Uiso   1.00
O756   O     0.99994   0.15305   0.39433   0.00000  Uiso   1.00
O757   O     0.69476   0.22171   0.56478   0.00000  Uiso   1.00
O758   O     0.67231   0.16715   0.60661   0.00000  Uiso   1.00
O759   O     0.79377   0.04063   0.41691   0.00000  Uiso   1.00
O760   O     0.83497   0.29491   0.58694   0.00000  Uiso   1.00
O761   O     0.83334   0.22678   0.46042   0.00000  Uiso   1.00
O762   O     0.83333   0.10654   0.46039   0.00000  Uiso   1.00
O763   O     0.83334   0.22679   0.53961   0.00000  Uiso   1.00
O764   O     0.75828   0.16667   0.53046   0.00000  Uiso   1.00
O765   O     0.90839   0.16666   0.46954   0.00000  Uiso   1.00
O766   O     0.75828   0.16666   0.45127   0.00000  Uiso   1.00
O767   O     0.90839   0.16667   0.54873   0.00000  Uiso   1.00
O768   O     0.96596   0.10749   0.44128   0.00000  Uiso   1.00
C769   C     0.16606   0.42077   0.49983   0.00000  Uiso   1.00
C770   C     0.17614   0.35522   0.54223   0.00000  Uiso   1.00
C771   C     0.16407   0.62409   0.50052   0.00000  Uiso   1.00
C772   C     0.16506   0.37624   0.49950   0.00000  Uiso   1.00
C773   C     0.13261   0.47672   0.35361   0.00000  Uiso   1.00
C774   C     0.20068   0.52336   0.64634   0.00000  Uiso   1.00
C775   C     0.13271   0.47663   0.63740   0.00000  Uiso   1.00
C776   C     0.20069   0.52333   0.36259   0.00000  Uiso   1.00
C777   C     0.32443   0.47191   0.43847   0.00000  Uiso   1.00
C778   C     0.00884   0.52110   0.56429   0.00000  Uiso   1.00
C779   C     0.07438   0.37967   0.41969   0.00000  Uiso   1.00
C780   C     0.16583   0.57934   0.50007   0.00000  Uiso   1.00
C781   C     0.04320   0.35923   0.37717   0.00000  Uiso   1.00
C782   C     0.31931   0.36056   0.37931   0.00000  Uiso   1.00
C783   C     0.11654   0.61956   0.59095   0.00000  Uiso   1.00
C784   C     0.08720   0.65773   0.60344   0.00000  Uiso   1.00
C785   C     0.03066   0.64811   0.60267   0.00000  Uiso   1.00
C786   C     0.06805   0.49958   0.48804   0.00000  Uiso   1.00
C787   C     0.26519   0.49912   0.51207   0.00000  Uiso   1.00
C788   C     0.01342   0.49375   0.48231   0.00000  Uiso   1.00
C789   C     0.31994   0.50236   0.51862   0.00000  Uiso   1.00
C790   C     0.14980   0.35439   0.45739   0.00000  Uiso   1.00
C791   C     0.17059   0.64637   0.54349   0.00000  Uiso   1.00
C792   C     0.15312   0.64520   0.45763   0.00000  Uiso   1.00
Cu793  Cu    0.16667   0.50001   0.54689   0.00000  Uiso   1.00
Cu794  Cu    0.16667   0.49999   0.45311   0.00000  Uiso   1.00
H795   H     0.14351   0.62879   0.42462   0.00000  Uiso   1.00
H796   H     0.06154   0.36759   0.45271   0.00000  Uiso   1.00
H797   H     0.05087   0.37548   0.34483   0.00000  Uiso   1.00
H798   H     0.05535   0.66001   0.37557   0.00000  Uiso   1.00
H799   H     0.31069   0.34914   0.41391   0.00000  Uiso   1.00
H800   H     0.29914   0.34083   0.35103   0.00000  Uiso   1.00
H801   H     0.30476   0.39228   0.37328   0.00000  Uiso   1.00
H802   H     0.11604   0.59648   0.61949   0.00000  Uiso   1.00
H803   H     0.09604   0.60561   0.55817   0.00000  Uiso   1.00
H804   H     0.10422   0.33548   0.63884   0.00000  Uiso   1.00
H805   H     0.08985   0.34928   0.57749   0.00000  Uiso   1.00
H806   H     0.18460   0.37164   0.57536   0.00000  Uiso   1.00
H807   H     0.01391   0.63664   0.56729   0.00000  Uiso   1.00
H808   H     0.00963   0.34306   0.60964   0.00000  Uiso   1.00
H809   H     0.02550   0.62472   0.62983   0.00000  Uiso   1.00
H810   H     0.10524   0.45812   0.36856   0.00000  Uiso   1.00
H811   H     0.22787   0.54215   0.63126   0.00000  Uiso   1.00
H812   H     0.10556   0.45780   0.61519   0.00000  Uiso   1.00
H813   H     0.22792   0.54208   0.38481   0.00000  Uiso   1.00
H814   H     0.31619   0.46894   0.36732   0.00000  Uiso   1.00
H815   H     0.02150   0.51659   0.63528   0.00000  Uiso   1.00
H816   H     0.06607   0.41303   0.41864   0.00000  Uiso   1.00
N817   N     0.16668   0.50001   0.61736   0.00000  Uiso   1.00
N818   N     0.16665   0.49999   0.38264   0.00000  Uiso   1.00
O819   O     0.16666   0.43989   0.53958   0.00000  Uiso   1.00
O820   O     0.33328   0.48638   0.39433   0.00000  Uiso   1.00
O821   O     0.02810   0.55505   0.56478   0.00000  Uiso   1.00
O822   O     0.00565   0.50048   0.60661   0.00000  Uiso   1.00
O823   O     0.12711   0.37397   0.41691   0.00000  Uiso   1.00
O824   O     0.16830   0.62824   0.58694   0.00000  Uiso   1.00
O825   O     0.16667   0.56011   0.46042   0.00000  Uiso   1.00
O826   O     0.16666   0.43988   0.46039   0.00000  Uiso   1.00
O827   O     0.16667   0.56012   0.53961   0.00000  Uiso   1.00
O828   O     0.09161   0.50000   0.53046   0.00000  Uiso   1.00
O829   O     0.24172   0.50000   0.46954   0.00000  Uiso   1.00
O830   O     0.09161   0.49999   0.45127   0.00000  Uiso   1.00
O831   O     0.24172   0.50001   0.54873   0.00000  Uiso   1.00
O832   O     0.29929   0.44082   0.44128   0.00000  Uiso   1.00
C833   C     0.49940   0.42077   0.49983   0.00000  Uiso   1.00
C834   C     0.50947   0.35522   0.54223   0.00000  Uiso   1.00
C835   C     0.49740   0.62409   0.50052   0.00000  Uiso   1.00
C836   C     0.49839   0.37624   0.49950   0.00000  Uiso   1.00
C837   C     0.46594   0.47672   0.35361   0.00000  Uiso   1.00
C838   C     0.53401   0.52336   0.64634   0.00000  Uiso   1.00
C839   C     0.46604   0.47663   0.63740   0.00000  Uiso   1.00
C840   C     0.53402   0.52333   0.36259   0.00000  Uiso   1.00
C841   C     0.65776   0.47191   0.43847   0.00000  Uiso   1.00
C842   C     0.34217   0.52110   0.56429   0.00000  Uiso   1.00
C843   C     0.40772   0.37967   0.41969   0.00000  Uiso   1.00
C844   C     0.49916   0.57934   0.50007   0.00000  Uiso   1.00
C845   C     0.37653   0.35923   0.37717   0.00000  Uiso   1.00
C846   C     0.65264   0.36056   0.37931   0.00000  Uiso   1.00
C847   C     0.44987   0.61956   0.59095   0.00000  Uiso   1.00
C848   C     0.42054   0.65773   0.60344   0.00000  Uiso   1.00
C849   C     0.36399   0.64811   0.60267   0.00000  Uiso   1.00
C850   C     0.40138   0.49958   0.48804   0.00000  Uiso   1.00
C851   C     0.59852   0.49912   0.51207   0.00000  Uiso   1.00
C852   C     0.34676   0.49375   0.48231   0.00000  Uiso   1.00
C853   C     0.65328   0.50236   0.51862   0.00000  Uiso   1.00
C854   C     0.48313   0.35439   0.45739   0.00000  Uiso   1.00
C855   C     0.50392   0.64637   0.54349   0.00000  Uiso   1.00
C856   C     0.48645   0.64520   0.45763   0.00000  Uiso   1.00
Cu857  Cu    0.50000   0.50001   0.54689   0.00000  Uiso   1.00
Cu858  Cu    0.50000   0.49999   0.45311   0.00000  Uiso   1.00
H859   H     0.47684   0.62879   0.42462   0.00000  Uiso   1.00
H860   H     0.39487   0.36759   0.45271   0.00000  Uiso   1.00
H861   H     0.38421   0.37548   0.34483   0.00000  Uiso   1.00
H862   H     0.38868   0.66001   0.37557   0.00000  Uiso   1.00
H863   H     0.64403   0.34914   0.41391   0.00000  Uiso   1.00
H864   H     0.63247   0.34083   0.35103   0.00000  Uiso   1.00
H865   H     0.63809   0.39228   0.37328   0.00000  Uiso   1.00
H866   H     0.44938   0.59648   0.61949   0.00000  Uiso   1.00
H867   H     0.42937   0.60561   0.55817   0.00000  Uiso   1.00
H868   H     0.43755   0.33548   0.63884   0.00000  Uiso   1.00
H869   H     0.42319   0.34928   0.57749   0.00000  Uiso   1.00
H870   H     0.51794   0.37164   0.57536   0.00000  Uiso   1.00
H871   H     0.34725   0.63664   0.56729   0.00000  Uiso   1.00
H872   H     0.34297   0.34306   0.60964   0.00000  Uiso   1.00
H873   H     0.35883   0.62472   0.62983   0.00000  Uiso   1.00
H874   H     0.43857   0.45812   0.36856   0.00000  Uiso   1.00
H875   H     0.56121   0.54215   0.63126   0.00000  Uiso   1.00
H876   H     0.43889   0.45780   0.61519   0.00000  Uiso   1.00
H877   H     0.56126   0.54208   0.38481   0.00000  Uiso   1.00
H878   H     0.64952   0.46894   0.36732   0.00000  Uiso   1.00
H879   H     0.35484   0.51659   0.63528   0.00000  Uiso   1.00
H880   H     0.39941   0.41303   0.41864   0.00000  Uiso   1.00
N881   N     0.50001   0.50001   0.61736   0.00000  Uiso   1.00
N882   N     0.49999   0.49999   0.38264   0.00000  Uiso   1.00
O883   O     0.50000   0.43989   0.53958   0.00000  Uiso   1.00
O884   O     0.66661   0.48638   0.39433   0.00000  Uiso   1.00
O885   O     0.36143   0.55505   0.56478   0.00000  Uiso   1.00
O886   O     0.33898   0.50048   0.60661   0.00000  Uiso   1.00
O887   O     0.46044   0.37397   0.41691   0.00000  Uiso   1.00
O888   O     0.50164   0.62824   0.58694   0.00000  Uiso   1.00
O889   O     0.50000   0.56011   0.46042   0.00000  Uiso   1.00
O890   O     0.50000   0.43988   0.46039   0.00000  Uiso   1.00
O891   O     0.50000   0.56012   0.53961   0.00000  Uiso   1.00
O892   O     0.42495   0.50000   0.53046   0.00000  Uiso   1.00
O893   O     0.57505   0.50000   0.46954   0.00000  Uiso   1.00
O894   O     0.42494   0.49999   0.45127   0.00000  Uiso   1.00
O895   O     0.57506   0.50001   0.54873   0.00000  Uiso   1.00
O896   O     0.63263   0.44082   0.44128   0.00000  Uiso   1.00
C897   C     0.83273   0.42077   0.49983   0.00000  Uiso   1.00
C898   C     0.84280   0.35522   0.54223   0.00000  Uiso   1.00
C899   C     0.83073   0.62409   0.50052   0.00000  Uiso   1.00
C900   C     0.83172   0.37624   0.49950   0.00000  Uiso   1.00
C901   C     0.79927   0.47672   0.35361   0.00000  Uiso   1.00
C902   C     0.86735   0.52336   0.64634   0.00000  Uiso   1.00
C903   C     0.79938   0.47663   0.63740   0.00000  Uiso   1.00
C904   C     0.86736   0.52333   0.36259   0.00000  Uiso   1.00
C905   C     0.99110   0.47191   0.43847   0.00000  Uiso   1.00
C906   C     0.67550   0.52110   0.56429   0.00000  Uiso   1.00
C907   C     0.74105   0.37967   0.41969   0.00000  Uiso   1.00
C908   C     0.83249   0.57934   0.50007   0.00000  Uiso   1.00
C909   C     0.70987   0.35923   0.37717   0.00000  Uiso   1.00
C910   C     0.98598   0.36056   0.37931   0.00000  Uiso   1.00
C911   C     0.78320   0.61956   0.59095   0.00000  Uiso   1.00
C912   C     0.75387   0.65773   0.60344   0.00000  Uiso   1.00
C913   C     0.69732   0.64811   0.60267   0.00000  Uiso   1.00
C914   C     0.73471   0.49958   0.48804   0.00000  Uiso   1.00
C915   C     0.93185   0.49912   0.51207   0.00000  Uiso   1.00
C916   C     0.68009   0.49375   0.48231   0.00000  Uiso   1.00
C917   C     0.98661   0.50236   0.51862   0.00000  Uiso   1.00
C918   C     0.81647   0.35439   0.45739   0.00000  Uiso   1.00
C919   C     0.83725   0.64637   0.54349   0.00000  Uiso   1.00
C920   C     0.81978   0.64520   0.45763   0.00000  Uiso   1.00
Cu921  Cu    0.83333   0.50001   0.54689   0.00000  Uiso   1.00
Cu922  Cu    0.83333   0.49999   0.45311   0.00000  Uiso   1.00
H923   H     0.81018   0.62879   0.42462   0.00000  Uiso   1.00
H924   H     0.72820   0.36759   0.45271   0.00000  Uiso   1.00
H925   H     0.71754   0.37548   0.34483   0.00000  Uiso   1.00
H926   H     0.72202   0.66001   0.37557   0.00000  Uiso   1.00
H927   H     0.97736   0.34914   0.41391   0.00000  Uiso   1.00
H928   H     0.96581   0.34083   0.35103   0.00000  Uiso   1.00
H929   H     0.97143   0.39228   0.37328   0.00000  Uiso   1.00
H930   H     0.78271   0.59648   0.61949   0.00000  Uiso   1.00
H931   H     0.76271   0.60561   0.55817   0.00000  Uiso   1.00
H932   H     0.77088   0.33548   0.63884   0.00000  Uiso   1.00
H933   H     0.75652   0.34928   0.57749   0.00000  Uiso   1.00
H934   H     0.85127   0.37164   0.57536   0.00000  Uiso   1.00
H935   H     0.68058   0.63664   0.56729   0.00000  Uiso   1.00
H936   H     0.67630   0.34306   0.60964   0.00000  Uiso   1.00
H937   H     0.69216   0.62472   0.62983   0.00000  Uiso   1.00
H938   H     0.77191   0.45812   0.36856   0.00000  Uiso   1.00
H939   H     0.89454   0.54215   0.63126   0.00000  Uiso   1.00
H940   H     0.77223   0.45780   0.61519   0.00000  Uiso   1.00
H941   H     0.89459   0.54208   0.38481   0.00000  Uiso   1.00
H942   H     0.98285   0.46894   0.36732   0.00000  Uiso   1.00
H943   H     0.68817   0.51659   0.63528   0.00000  Uiso   1.00
H944   H     0.73274   0.41303   0.41864   0.00000  Uiso   1.00
N945   N     0.83335   0.50001   0.61736   0.00000  Uiso   1.00
N946   N     0.83332   0.49999   0.38264   0.00000  Uiso   1.00
O947   O     0.83333   0.43989   0.53958   0.00000  Uiso   1.00
O948   O     0.99994   0.48638   0.39433   0.00000  Uiso   1.00
O949   O     0.69476   0.55505   0.56478   0.00000  Uiso   1.00
O950   O     0.67231   0.50048   0.60661   0.00000  Uiso   1.00
O951   O     0.79377   0.37397   0.41691   0.00000  Uiso   1.00
O952   O     0.83497   0.62824   0.58694   0.00000  Uiso   1.00
O953   O     0.83334   0.56011   0.46042   0.00000  Uiso   1.00
O954   O     0.83333   0.43988   0.46039   0.00000  Uiso   1.00
O955   O     0.83334   0.56012   0.53961   0.00000  Uiso   1.00
O956   O     0.75828   0.50000   0.53046   0.00000  Uiso   1.00
O957   O     0.90839   0.50000   0.46954   0.00000  Uiso   1.00
O958   O     0.75828   0.49999   0.45127   0.00000  Uiso   1.00
O959   O     0.90839   0.50001   0.54873   0.00000  Uiso   1.00
O960   O     0.96596   0.44082   0.44128   0.00000  Uiso   1.00
C961   C     0.16606   0.75410   0.49983   0.00000  Uiso   1.00
C962   C     0.17614   0.68855   0.54223   0.00000  Uiso   1.00
C963   C     0.16407   0.95742   0.50052   0.00000  Uiso   1.00
C964   C     0.16506   0.70957   0.49950   0.00000  Uiso   1.00
C965   C     0.13261   0.81005   0.35361   0.00000  Uiso   1.00
C966   C     0.20068   0.85670   0.64634   0.00000  Uiso   1.00
C967   C     0.13271   0.80996   0.63740   0.00000  Uiso   1.00
C968   C     0.20069   0.85666   0.36259   0.00000  Uiso   1.00
C969   C     0.32443   0.80524   0.43847   0.00000  Uiso   1.00
C970   C     0.00884   0.85443   0.56429   0.00000  Uiso   1.00
C971   C     0.07438   0.71300   0.41969   0.00000  Uiso   1.00
C972   C     0.16583   0.91267   0.50007   0.00000  Uiso   1.00
C973   C     0.04320   0.69257   0.37717   0.00000  Uiso   1.00
C974   C     0.31931   0.69390   0.37931   0.00000  Uiso   1.00
C975   C     0.11654   0.95290   0.59095   0.00000  Uiso   1.00
C976   C     0.08720   0.99106   0.60344   0.00000  Uiso   1.00
C977   C     0.03066   0.98144   0.60267   0.00000  Uiso   1.00
C978   C     0.06805   0.83291   0.48804   0.00000  Uiso   1.00
C979   C     0.26519   0.83245   0.51207   0.00000  Uiso   1.00
C980   C     0.01342   0.82708   0.48231   0.00000  Uiso   1.00
C981   C     0.31994   0.83570   0.51862   0.00000  Uiso   1.00
C982   C     0.14980   0.68773   0.45739   0.00000  Uiso   1.00
C983   C     0.17059   0.97970   0.54349   0.00000  Uiso   1.00
C984   C     0.15312   0.97853   0.45763   0.00000  Uiso   1.00
Cu985  Cu    0.16667   0.83334   0.54689   0.00000  Uiso   1.00
Cu986  Cu    0.16667   0.83333   0.45311   0.00000  Uiso   1.00
H987   H     0.14351   0.96213   0.42462   0.00000  Uiso   1.00
H988   H     0.06154   0.70092   0.45271   0.00000  Uiso   1.00
H989   H     0.05087   0.70881   0.34483   0.00000  Uiso   1.00
H990   H     0.05535   0.99334   0.37557   0.00000  Uiso   1.00
H991   H     0.31069   0.68247   0.41391   0.00000  Uiso   1.00
H992   H     0.29914   0.67416   0.35103   0.00000  Uiso   1.00
H993   H     0.30476   0.72562   0.37328   0.00000  Uiso   1.00
H994   H     0.11604   0.92982   0.61949   0.00000  Uiso   1.00
H995   H     0.09604   0.93895   0.55817   0.00000  Uiso   1.00
H996   H     0.10422   0.66881   0.63884   0.00000  Uiso   1.00
H997   H     0.08985   0.68261   0.57749   0.00000  Uiso   1.00
H998   H     0.18460   0.70498   0.57536   0.00000  Uiso   1.00
H999   H     0.01391   0.96997   0.56729   0.00000  Uiso   1.00
H1000  H     0.00963   0.67639   0.60964   0.00000  Uiso   1.00
H1001  H     0.02550   0.95806   0.62983   0.00000  Uiso   1.00
H1002  H     0.10524   0.79145   0.36856   0.00000  Uiso   1.00
H1003  H     0.22787   0.87549   0.63126   0.00000  Uiso   1.00
H1004  H     0.10556   0.79113   0.61519   0.00000  Uiso   1.00
H1005  H     0.22792   0.87541   0.38481   0.00000  Uiso   1.00
H1006  H     0.31619   0.80227   0.36732   0.00000  Uiso   1.00
H1007  H     0.02150   0.84993   0.63528   0.00000  Uiso   1.00
H1008  H     0.06607   0.74636   0.41864   0.00000  Uiso   1.00
N1009  N     0.16668   0.83334   0.61736   0.00000  Uiso   1.00
N1010  N     0.16665   0.83332   0.38264   0.00000  Uiso   1.00
O1011  O     0.16666   0.77322   0.53958   0.00000  Uiso   1.00
O1012  O     0.33328   0.81972   0.39433   0.00000  Uiso   1.00
O1013  O     0.02810   0.88838   0.56478   0.00000  Uiso   1.00
O1014  O     0.00565   0.83381   0.60661   0.00000  Uiso   1.00
O1015  O     0.12711   0.70730   0.41691   0.00000  Uiso   1.00
O1016  O     0.16830   0.96157   0.58694   0.00000  Uiso   1.00
O1017  O     0.16667   0.89345   0.46042   0.00000  Uiso   1.00
O1018  O     0.16666   0.77321   0.46039   0.00000  Uiso   1.00
O1019  O     0.16667   0.89346   0.53961   0.00000  Uiso   1.00
O1020  O     0.09161   0.83334   0.53046   0.00000  Uiso   1.00
O1021  O     0.24172   0.83333   0.46954   0.00000  Uiso   1.00
O1022  O     0.09161   0.83333   0.45127   0.00000  Uiso   1.00
O1023  O     0.24172   0.83334   0.54873   0.00000  Uiso   1.00
O1024  O     0.29929   0.77415   0.44128   0.00000  Uiso   1.00
C1025  C     0.49940   0.75410   0.49983   0.00000  Uiso   1.00
C1026  C     0.50947   0.68855   0.54223   0.00000  Uiso   1.00
C1027  C     0.49740   0.95742   0.50052   0.00000  Uiso   1.00
C1028  C     0.49839   0.70957   0.49950   0.00000  Uiso   1.00
C1029  C     0.46594   0.81005   0.35361   0.00000  Uiso   1.00
C1030  C     0.53401   0.85670   0.64634   0.00000  Uiso   1.00
C1031  C     0.46604   0.80996   0.63740   0.00000  Uiso   1.00
C1032  C     0.53402   0.85666   0.36259   0.00000  Uiso   1.00
C1033  C     0.65776   0.80524   0.43847   0.00000  Uiso   1.00
C1034  C     0.34217   0.85443   0.56429   0.00000  Uiso   1.00
C1035  C     0.40772   0.71300   0.41969   0.00000  Uiso   1.00
C1036  C     0.49916   0.91267   0.50007   0.00000  Uiso   1.00
C1037  C     0.37653   0.69257   0.37717   0.00000  Uiso   1.00
C1038  C     0.65264   0.69390   0.37931   0.00000  Uiso   1.00
C1039  C     0.44987   0.95290   0.59095   0.00000  Uiso   1.00
C1040  C     0.42054   0.99106   0.60344   0.00000  Uiso   1.00
C1041  C     0.36399   0.98144   0.60267   0.00000  Uiso   1.00
C1042  C     0.40138   0.83291   0.48804   0.00000  Uiso   1.00
C1043  C     0.59852   0.83245   0.51207   0.00000  Uiso   1.00
C1044  C     0.34676   0.82708   0.48231   0.00000  Uiso   1.00
C1045  C     0.65328   0.83570   0.51862   0.00000  Uiso   1.00
C1046  C     0.48313   0.68773   0.45739   0.00000  Uiso   1.00
C1047  C     0.50392   0.97970   0.54349   0.00000  Uiso   1.00
C1048  C     0.48645   0.97853   0.45763   0.00000  Uiso   1.00
Cu1049 Cu    0.50000   0.83334   0.54689   0.00000  Uiso   1.00
Cu1050 Cu    0.50000   0.83333   0.45311   0.00000  Uiso   1.00
H1051  H     0.47684   0.96213   0.42462   0.00000  Uiso   1.00
H1052  H     0.39487   0.70092   0.45271   0.00000  Uiso   1.00
H1053  H     0.38421   0.70881   0.34483   0.00000  Uiso   1.00
H1054  H     0.38868   0.99334   0.37557   0.00000  Uiso   1.00
H1055  H     0.64403   0.68247   0.41391   0.00000  Uiso   1.00
H1056  H     0.63247   0.67416   0.35103   0.00000  Uiso   1.00
H1057  H     0.63809   0.72562   0.37328   0.00000  Uiso   1.00
H1058  H     0.44938   0.92982   0.61949   0.00000  Uiso   1.00
H1059  H     0.42937   0.93895   0.55817   0.00000  Uiso   1.00
H1060  H     0.43755   0.66881   0.63884   0.00000  Uiso   1.00
H1061  H     0.42319   0.68261   0.57749   0.00000  Uiso   1.00
H1062  H     0.51794   0.70498   0.57536   0.00000  Uiso   1.00
H1063  H     0.34725   0.96997   0.56729   0.00000  Uiso   1.00
H1064  H     0.34297   0.67639   0.60964   0.00000  Uiso   1.00
H1065  H     0.35883   0.95806   0.62983   0.00000  Uiso   1.00
H1066  H     0.43857   0.79145   0.36856   0.00000  Uiso   1.00
H1067  H     0.56121   0.87549   0.63126   0.00000  Uiso   1.00
H1068  H     0.43889   0.79113   0.61519   0.00000  Uiso   1.00
H1069  H     0.56126   0.87541   0.38481   0.00000  Uiso   1.00
H1070  H     0.64952   0.80227   0.36732   0.00000  Uiso   1.00
H1071  H     0.35484   0.84993   0.63528   0.00000  Uiso   1.00
H1072  H     0.39941   0.74636   0.41864   0.00000  Uiso   1.00
N1073  N     0.50001   0.83334   0.61736   0.00000  Uiso   1.00
N1074  N     0.49999   0.83332   0.38264   0.00000  Uiso   1.00
O1075  O     0.50000   0.77322   0.53958   0.00000  Uiso   1.00
O1076  O     0.66661   0.81972   0.39433   0.00000  Uiso   1.00
O1077  O     0.36143   0.88838   0.56478   0.00000  Uiso   1.00
O1078  O     0.33898   0.83381   0.60661   0.00000  Uiso   1.00
O1079  O     0.46044   0.70730   0.41691   0.00000  Uiso   1.00
O1080  O     0.50164   0.96157   0.58694   0.00000  Uiso   1.00
O1081  O     0.50000   0.89345   0.46042   0.00000  Uiso   1.00
O1082  O     0.50000   0.77321   0.46039   0.00000  Uiso   1.00
O1083  O     0.50000   0.89346   0.53961   0.00000  Uiso   1.00
O1084  O     0.42495   0.83334   0.53046   0.00000  Uiso   1.00
O1085  O     0.57505   0.83333   0.46954   0.00000  Uiso   1.00
O1086  O     0.42494   0.83333   0.45127   0.00000  Uiso   1.00
O1087  O     0.57506   0.83334   0.54873   0.00000  Uiso   1.00
O1088  O     0.63263   0.77415   0.44128   0.00000  Uiso   1.00
C1089  C     0.83273   0.75410   0.49983   0.00000  Uiso   1.00
C1090  C     0.84280   0.68855   0.54223   0.00000  Uiso   1.00
C1091  C     0.83073   0.95742   0.50052   0.00000  Uiso   1.00
C1092  C     0.83172   0.70957   0.49950   0.00000  Uiso   1.00
C1093  C     0.79927   0.81005   0.35361   0.00000  Uiso   1.00
C1094  C     0.86735   0.85670   0.64634   0.00000  Uiso   1.00
C1095  C     0.79938   0.80996   0.63740   0.00000  Uiso   1.00
C1096  C     0.86736   0.85666   0.36259   0.00000  Uiso   1.00
C1097  C     0.99110   0.80524   0.43847   0.00000  Uiso   1.00
C1098  C     0.67550   0.85443   0.56429   0.00000  Uiso   1.00
C1099  C     0.74105   0.71300   0.41969   0.00000  Uiso   1.00
C1100  C     0.83249   0.91267   0.50007   0.00000  Uiso   1.00
C1101  C     0.70987   0.69257   0.37717   0.00000  Uiso   1.00
C1102  C     0.98598   0.69390   0.37931   0.00000  Uiso   1.00
C1103  C     0.78320   0.95290   0.59095   0.00000  Uiso   1.00
C1104  C     0.75387   0.99106   0.60344   0.00000  Uiso   1.00
C1105  C     0.69732   0.98144   0.60267   0.00000  Uiso   1.00
C1106  C     0.73471   0.83291   0.48804   0.00000  Uiso   1.00
C1107  C     0.93185   0.83245   0.51207   0.00000  Uiso   1.00
C1108  C     0.68009   0.82708   0.48231   0.00000  Uiso   1.00
C1109  C     0.98661   0.83570   0.51862   0.00000  Uiso   1.00
C1110  C     0.81647   0.68773   0.45739   0.00000  Uiso   1.00
C1111  C     0.83725   0.97970   0.54349   0.00000  Uiso   1.00
C1112  C     0.81978   0.97853   0.45763   0.00000  Uiso   1.00
Cu1113 Cu    0.83333   0.83334   0.54689   0.00000  Uiso   1.00
Cu1114 Cu    0.83333   0.83333   0.45311   0.00000  Uiso   1.00
H1115  H     0.81018   0.96213   0.42462   0.00000  Uiso   1.00
H1116  H     0.72820   0.70092   0.45271   0.00000  Uiso   1.00
H1117  H     0.71754   0.70881   0.34483   0.00000  Uiso   1.00
H1118  H     0.72202   0.99334   0.37557   0.00000  Uiso   1.00
H1119  H     0.97736   0.68247   0.41391   0.00000  Uiso   1.00
H1120  H     0.96581   0.67416   0.35103   0.00000  Uiso   1.00
H1121  H     0.97143   0.72562   0.37328   0.00000  Uiso   1.00
H1122  H     0.78271   0.92982   0.61949   0.00000  Uiso   1.00
H1123  H     0.76271   0.93895   0.55817   0.00000  Uiso   1.00
H1124  H     0.77088   0.66881   0.63884   0.00000  Uiso   1.00
H1125  H     0.75652   0.68261   0.57749   0.00000  Uiso   1.00
H1126  H     0.85127   0.70498   0.57536   0.00000  Uiso   1.00
H1127  H     0.68058   0.96997   0.56729   0.00000  Uiso   1.00
H1128  H     0.67630   0.67639   0.60964   0.00000  Uiso   1.00
H1129  H     0.69216   0.95806   0.62983   0.00000  Uiso   1.00
H1130  H     0.77191   0.79145   0.36856   0.00000  Uiso   1.00
H1131  H     0.89454   0.87549   0.63126   0.00000  Uiso   1.00
H1132  H     0.77223   0.79113   0.61519   0.00000  Uiso   1.00
H1133  H     0.89459   0.87541   0.38481   0.00000  Uiso   1.00
H1134  H     0.98285   0.80227   0.36732   0.00000  Uiso   1.00
H1135  H     0.68817   0.84993   0.63528   0.00000  Uiso   1.00
H1136  H     0.73274   0.74636   0.41864   0.00000  Uiso   1.00
N1137  N     0.83335   0.83334   0.61736   0.00000  Uiso   1.00
N1138  N     0.83332   0.83332   0.38264   0.00000  Uiso   1.00
O1139  O     0.83333   0.77322   0.53958   0.00000  Uiso   1.00
O1140  O     0.99994   0.81972   0.39433   0.00000  Uiso   1.00
O1141  O     0.69476   0.88838   0.56478   0.00000  Uiso   1.00
O1142  O     0.67231   0.83381   0.60661   0.00000  Uiso   1.00
O1143  O     0.79377   0.70730   0.41691   0.00000  Uiso   1.00
O1144  O     0.83497   0.96157   0.58694   0.00000  Uiso   1.00
O1145  O     0.83334   0.89345   0.46042   0.00000  Uiso   1.00
O1146  O     0.83333   0.77321   0.46039   0.00000  Uiso   1.00
O1147  O     0.83334   0.89346   0.53961   0.00000  Uiso   1.00
O1148  O     0.75828   0.83334   0.53046   0.00000  Uiso   1.00
O1149  O     0.90839   0.83333   0.46954   0.00000  Uiso   1.00
O1150  O     0.75828   0.83333   0.45127   0.00000  Uiso   1.00
O1151  O     0.90839   0.83334   0.54873   0.00000  Uiso   1.00
O1152  O     0.96596   0.77415   0.44128   0.00000  Uiso   1.00
C1153  C     0.16606   0.08743   0.83317   0.00000  Uiso   1.00
C1154  C     0.17614   0.02188   0.87556   0.00000  Uiso   1.00
C1155  C     0.16407   0.29076   0.83385   0.00000  Uiso   1.00
C1156  C     0.16506   0.04290   0.83283   0.00000  Uiso   1.00
C1157  C     0.13261   0.14338   0.68694   0.00000  Uiso   1.00
C1158  C     0.20068   0.19003   0.97968   0.00000  Uiso   1.00
C1159  C     0.13271   0.14330   0.97073   0.00000  Uiso   1.00
C1160  C     0.20069   0.19000   0.69593   0.00000  Uiso   1.00
C1161  C     0.32443   0.13857   0.77180   0.00000  Uiso   1.00
C1162  C     0.00884   0.18777   0.89763   0.00000  Uiso   1.00
C1163  C     0.07438   0.04634   0.75303   0.00000  Uiso   1.00
C1164  C     0.16583   0.24601   0.83341   0.00000  Uiso   1.00
C1165  C     0.04320   0.02590   0.71051   0.00000  Uiso   1.00
C1166  C     0.31931   0.02723   0.71264   0.00000  Uiso   1.00
C1167  C     0.11654   0.28623   0.92429   0.00000  Uiso   1.00
C1168  C     0.08720   0.32439   0.93677   0.00000  Uiso   1.00
C1169  C     0.03066   0.31477   0.93600   0.00000  Uiso   1.00
C1170  C     0.06805   0.16624   0.82137   0.00000  Uiso   1.00
C1171  C     0.26519   0.16579   0.84540   0.00000  Uiso   1.00
C1172  C     0.01342   0.16042   0.81564   0.00000  Uiso   1.00
C1173  C     0.31994   0.16903   0.85195   0.00000  Uiso   1.00
C1174  C     0.14980   0.02106   0.79072   0.00000  Uiso   1.00
C1175  C     0.17059   0.31303   0.87682   0.00000  Uiso   1.00
C1176  C     0.15312   0.31187   0.79096   0.00000  Uiso   1.00
Cu1177 Cu    0.16667   0.16667   0.88022   0.00000  Uiso   1.00
Cu1178 Cu    0.16667   0.16666   0.78645   0.00000  Uiso   1.00
H1179  H     0.14351   0.29546   0.75795   0.00000  Uiso   1.00
H1180  H     0.06154   0.03425   0.78604   0.00000  Uiso   1.00
H1181  H     0.05087   0.04214   0.67816   0.00000  Uiso   1.00
H1182  H     0.05535   0.32668   0.70890   0.00000  Uiso   1.00
H1183  H     0.31069   0.01581   0.74725   0.00000  Uiso   1.00
H1184  H     0.29914   0.00749   0.68436   0.00000  Uiso   1.00
H1185  H     0.30476   0.05895   0.70661   0.00000  Uiso   1.00
H1186  H     0.11604   0.26315   0.95282   0.00000  Uiso   1.00
H1187  H     0.09604   0.27228   0.89151   0.00000  Uiso   1.00
H1188  H     0.10422   0.00215   0.97218   0.00000  Uiso   1.00
H1189  H     0.08985   0.01595   0.91082   0.00000  Uiso   1.00
H1190  H     0.18460   0.03831   0.90869   0.00000  Uiso   1.00
H1191  H     0.01391   0.30331   0.90062   0.00000  Uiso   1.00
H1192  H     0.00963   0.00973   0.94298   0.00000  Uiso   1.00
H1193  H     0.02550   0.29139   0.96316   0.00000  Uiso   1.00
H1194  H     0.10524   0.12479   0.70189   0.00000  Uiso   1.00
H1195  H     0.22787   0.20882   0.96460   0.00000  Uiso   1.00
H1196  H     0.10556   0.12446   0.94852   0.00000  Uiso   1.00
H1197  H     0.22792   0.20874   0.71815   0.00000  Uiso   1.00
H1198  H     0.31619   0.13560   0.70065   0.00000  Uiso   1.00
H1199  H     0.02150   0.18326   0.96862   0.00000  Uiso   1.00
H1200  H     0.06607   0.07969   0.75197   0.00000  Uiso   1.00
N1201  N     0.16668   0.16668   0.95069   0.00000  Uiso   1.00
N1202  N     0.16665   0.16666   0.71597   0.00000  Uiso   1.00
O1203  O     0.16666   0.10655   0.87291   0.00000  Uiso   1.00
O1204  O     0.33328   0.15305   0.72766   0.00000  Uiso   1.00
O1205  O     0.02810   0.22171   0.89812   0.00000  Uiso   1.00
O1206  O     0.00565   0.16715   0.93995   0.00000  Uiso   1.00
O1207  O     0.12711   0.04063   0.75025   0.00000  Uiso   1.00
O1208  O     0.16830   0.29491   0.92027   0.00000  Uiso   1.00
O1209  O     0.16667   0.22678   0.79375   0.00000  Uiso   1.00
O1210  O     0.16666   0.10654   0.79372   0.00000  Uiso   1.00
O1211  O     0.16667   0.22679   0.87294   0.00000  Uiso   1.00
O1212  O     0.09161   0.16667   0.86379   0.00000  Uiso   1.00
O1213  O     0.24172   0.16666   0.80288   0.00000  Uiso   1.00
O1214  O     0.09161   0.16666   0.78460   0.00000  Uiso   1.00
O1215  O     0.24172   0.16667   0.88207   0.00000  Uiso   1.00
O1216  O     0.29929   0.10749   0.77461   0.00000  Uiso   1.00
C1217  C     0.49940   0.08743   0.83317   0.00000  Uiso   1.00
C1218  C     0.50947   0.02188   0.87556   0.00000  Uiso   1.00
C1219  C     0.49740   0.29076   0.83385   0.00000  Uiso   1.00
C1220  C     0.49839   0.04290   0.83283   0.00000  Uiso   1.00
C1221  C     0.46594   0.14338   0.68694   0.00000  Uiso   1.00
C1222  C     0.53401   0.19003   0.97968   0.00000  Uiso   1.00
C1223  C     0.46604   0.14330   0.97073   0.00000  Uiso   1.00
C1224  C     0.53402   0.19000   0.69593   0.00000  Uiso   1.00
C1225  C     0.65776   0.13857   0.77180   0.00000  Uiso   1.00
C1226  C     0.34217   0.18777   0.89763   0.00000  Uiso   1.00
C1227  C     0.40772   0.04634   0.75303   0.00000  Uiso   1.00
C1228  C     0.49916   0.24601   0.83341   0.00000  Uiso   1.00
C1229  C     0.37653   0.02590   0.71051   0.00000  Uiso   1.00
C1230  C     0.65264   0.02723   0.71264   0.00000  Uiso   1.00
C1231  C     0.44987   0.28623   0.92429   0.00000  Uiso   1.00
C1232  C     0.42054   0.32439   0.93677   0.00000  Uiso   1.00
C1233  C     0.36399   0.31477   0.93600   0.00000  Uiso   1.00
C1234  C     0.40138   0.16624   0.82137   0.00000  Uiso   1.00
C1235  C     0.59852   0.16579   0.84540   0.00000  Uiso   1.00
C1236  C     0.34676   0.16042   0.81564   0.00000  Uiso   1.00
C1237  C     0.65328   0.16903   0.85195   0.00000  Uiso   1.00
C1238  C     0.48313   0.02106   0.79072   0.00000  Uiso   1.00
C1239  C     0.50392   0.31303   0.87682   0.00000  Uiso   1.00
C1240  C     0.48645   0.31187   0.79096   0.00000  Uiso   1.00
Cu1241 Cu    0.50000   0.16667   0.88022   0.00000  Uiso   1.00
Cu1242 Cu    0.50000   0.16666   0.78645   0.00000  Uiso   1.00
H1243  H     0.47684   0.29546   0.75795   0.00000  Uiso   1.00
H1244  H     0.39487   0.03425   0.78604   0.00000  Uiso   1.00
H1245  H     0.38421   0.04214   0.67816   0.00000  Uiso   1.00
H1246  H     0.38868   0.32668   0.70890   0.00000  Uiso   1.00
H1247  H     0.64403   0.01581   0.74725   0.00000  Uiso   1.00
H1248  H     0.63247   0.00749   0.68436   0.00000  Uiso   1.00
H1249  H     0.63809   0.05895   0.70661   0.00000  Uiso   1.00
H1250  H     0.44938   0.26315   0.95282   0.00000  Uiso   1.00
H1251  H     0.42937   0.27228   0.89151   0.00000  Uiso   1.00
H1252  H     0.43755   0.00215   0.97218   0.00000  Uiso   1.00
H1253  H     0.42319   0.01595   0.91082   0.00000  Uiso   1.00
H1254  H     0.51794   0.03831   0.90869   0.00000  Uiso   1.00
H1255  H     0.34725   0.30331   0.90062   0.00000  Uiso   1.00
H1256  H     0.34297   0.00973   0.94298   0.00000  Uiso   1.00
H1257  H     0.35883   0.29139   0.96316   0.00000  Uiso   1.00
H1258  H     0.43857   0.12479   0.70189   0.00000  Uiso   1.00
H1259  H     0.56121   0.20882   0.96460   0.00000  Uiso   1.00
H1260  H     0.43889   0.12446   0.94852   0.00000  Uiso   1.00
H1261  H     0.56126   0.20874   0.71815   0.00000  Uiso   1.00
H1262  H     0.64952   0.13560   0.70065   0.00000  Uiso   1.00
H1263  H     0.35484   0.18326   0.96862   0.00000  Uiso   1.00
H1264  H     0.39941   0.07969   0.75197   0.00000  Uiso   1.00
N1265  N     0.50001   0.16668   0.95069   0.00000  Uiso   1.00
N1266  N     0.49999   0.16666   0.71597   0.00000  Uiso   1.00
O1267  O     0.50000   0.10655   0.87291   0.00000  Uiso   1.00
O1268  O     0.66661   0.15305   0.72766   0.00000  Uiso   1.00
O1269  O     0.36143   0.22171   0.89812   0.00000  Uiso   1.00
O1270  O     0.33898   0.16715   0.93995   0.00000  Uiso   1.00
O1271  O     0.46044   0.04063   0.75025   0.00000  Uiso   1.00
O1272  O     0.50164   0.29491   0.92027   0.00000  Uiso   1.00
O1273  O     0.50000   0.22678   0.79375   0.00000  Uiso   1.00
O1274  O     0.50000   0.10654   0.79372   0.00000  Uiso   1.00
O1275  O     0.50000   0.22679   0.87294   0.00000  Uiso   1.00
O1276  O     0.42495   0.16667   0.86379   0.00000  Uiso   1.00
O1277  O     0.57505   0.16666   0.80288   0.00000  Uiso   1.00
O1278  O     0.42494   0.16666   0.78460   0.00000  Uiso   1.00
O1279  O     0.57506   0.16667   0.88207   0.00000  Uiso   1.00
O1280  O     0.63263   0.10749   0.77461   0.00000  Uiso   1.00
C1281  C     0.83273   0.08743   0.83317   0.00000  Uiso   1.00
C1282  C     0.84280   0.02188   0.87556   0.00000  Uiso   1.00
C1283  C     0.83073   0.29076   0.83385   0.00000  Uiso   1.00
C1284  C     0.83172   0.04290   0.83283   0.00000  Uiso   1.00
C1285  C     0.79927   0.14338   0.68694   0.00000  Uiso   1.00
C1286  C     0.86735   0.19003   0.97968   0.00000  Uiso   1.00
C1287  C     0.79938   0.14330   0.97073   0.00000  Uiso   1.00
C1288  C     0.86736   0.19000   0.69593   0.00000  Uiso   1.00
C1289  C     0.99110   0.13857   0.77180   0.00000  Uiso   1.00
C1290  C     0.67550   0.18777   0.89763   0.00000  Uiso   1.00
C1291  C     0.74105   0.04634   0.75303   0.00000  Uiso   1.00
C1292  C     0.83249   0.24601   0.83341   0.00000  Uiso   1.00
C1293  C     0.70987   0.02590   0.71051   0.00000  Uiso   1.00
C1294  C     0.98598   0.02723   0.71264   0.00000  Uiso   1.00
C1295  C     0.78320   0.28623   0.92429   0.00000  Uiso   1.00
C1296  C     0.75387   0.32439   0.93677   0.00000  Uiso   1.00
C1297  C     0.69732   0.31477   0.93600   0.00000  Uiso   1.00
C1298  C     0.73471   0.16624   0.82137   0.00000  Uiso   1.00
C1299  C     0.93185   0.16579   0.84540   0.00000  Uiso   1.00
C1300  C     0.68009   0.16042   0.81564   0.00000  Uiso   1.00
C1301  C     0.98661   0.16903   0.85195   0.00000  Uiso   1.00
C1302  C     0.81647   0.02106   0.79072   0.00000  Uiso   1.00
C1303  C     0.83725   0.31303   0.87682   0.00000  Uiso   1.00
C1304  C     0.81978   0.31187   0.79096   0.00000  Uiso   1.00
Cu1305 Cu    0.83333   0.16667   0.88022   0.00000  Uiso   1.00
Cu1306 Cu    0.83333   0.16666   0.78645   0.00000  Uiso   1.00
H1307  H     0.81018   0.29546   0.75795   0.00000  Uiso   1.00
H1308  H     0.72820   0.03425   0.78604   0.00000  Uiso   1.00
H1309  H     0.71754   0.04214   0.67816   0.00000  Uiso   1.00
H1310  H     0.72202   0.32668   0.70890   0.00000  Uiso   1.00
H1311  H     0.97736   0.01581   0.74725   0.00000  Uiso   1.00
H1312  H     0.96581   0.00749   0.68436   0.00000  Uiso   1.00
H1313  H     0.97143   0.05895   0.70661   0.00000  Uiso   1.00
H1314  H     0.78271   0.26315   0.95282   0.00000  Uiso   1.00
H1315  H     0.76271   0.27228   0.89151   0.00000  Uiso   1.00
H1316  H     0.77088   0.00215   0.97218   0.00000  Uiso   1.00
H1317  H     0.75652   0.01595   0.91082   0.00000  Uiso   1.00
H1318  H     0.85127   0.03831   0.90869   0.00000  Uiso   1.00
H1319  H     0.68058   0.30331   0.90062   0.00000  Uiso   1.00
H1320  H     0.67630   0.00973   0.94298   0.00000  Uiso   1.00
H1321  H     0.69216   0.29139   0.96316   0.00000  Uiso   1.00
H1322  H     0.77191   0.12479   0.70189   0.00000  Uiso   1.00
H1323  H     0.89454   0.20882   0.96460   0.00000  Uiso   1.00
H1324  H     0.77223   0.12446   0.94852   0.00000  Uiso   1.00
H1325  H     0.89459   0.20874   0.71815   0.00000  Uiso   1.00
H1326  H     0.98285   0.13560   0.70065   0.00000  Uiso   1.00
H1327  H     0.68817   0.18326   0.96862   0.00000  Uiso   1.00
H1328  H     0.73274   0.07969   0.75197   0.00000  Uiso   1.00
N1329  N     0.83335   0.16668   0.95069   0.00000  Uiso   1.00
N1330  N     0.83332   0.16666   0.71597   0.00000  Uiso   1.00
O1331  O     0.83333   0.10655   0.87291   0.00000  Uiso   1.00
O1332  O     0.99994   0.15305   0.72766   0.00000  Uiso   1.00
O1333  O     0.69476   0.22171   0.89812   0.00000  Uiso   1.00
O1334  O     0.67231   0.16715   0.93995   0.00000  Uiso   1.00
O1335  O     0.79377   0.04063   0.75025   0.00000  Uiso   1.00
O1336  O     0.83497   0.29491   0.92027   0.00000  Uiso   1.00
O1337  O     0.83334   0.22678   0.79375   0.00000  Uiso   1.00
O1338  O     0.83333   0.10654   0.79372   0.00000  Uiso   1.00
O1339  O     0.83334   0.22679   0.87294   0.00000  Uiso   1.00
O1340  O     0.75828   0.16667   0.86379   0.00000  Uiso   1.00
O1341  O     0.90839   0.16666   0.80288   0.00000  Uiso   1.00
O1342  O     0.75828   0.16666   0.78460   0.00000  Uiso   1.00
O1343  O     0.90839   0.16667   0.88207   0.00000  Uiso   1.00
O1344  O     0.96596   0.10749   0.77461   0.00000  Uiso   1.00
C1345  C     0.16606   0.42077   0.83317   0.00000  Uiso   1.00
C1346  C     0.17614   0.35522   0.87556   0.00000  Uiso   1.00
C1347  C     0.16407   0.62409   0.83385   0.00000  Uiso   1.00
C1348  C     0.16506   0.37624   0.83283   0.00000  Uiso   1.00
C1349  C     0.13261   0.47672   0.68694   0.00000  Uiso   1.00
C1350  C     0.20068   0.52336   0.97968   0.00000  Uiso   1.00
C1351  C     0.13271   0.47663   0.97073   0.00000  Uiso   1.00
C1352  C     0.20069   0.52333   0.69593   0.00000  Uiso   1.00
C1353  C     0.32443   0.47191   0.77180   0.00000  Uiso   1.00
C1354  C     0.00884   0.52110   0.89763   0.00000  Uiso   1.00
C1355  C     0.07438   0.37967   0.75303   0.00000  Uiso   1.00
C1356  C     0.16583   0.57934   0.83341   0.00000  Uiso   1.00
C1357  C     0.04320   0.35923   0.71051   0.00000  Uiso   1.00
C1358  C     0.31931   0.36056   0.71264   0.00000  Uiso   1.00
C1359  C     0.11654   0.61956   0.92429   0.00000  Uiso   1.00
C1360  C     0.08720   0.65773   0.93677   0.00000  Uiso   1.00
C1361  C     0.03066   0.64811   0.93600   0.00000  Uiso   1.00
C1362  C     0.06805   0.49958   0.82137   0.00000  Uiso   1.00
C1363  C     0.26519   0.49912   0.84540   0.00000  Uiso   1.00
C1364  C     0.01342   0.49375   0.81564   0.00000  Uiso   1.00
C1365  C     0.31994   0.50236   0.85195   0.00000  Uiso   1.00
C1366  C     0.14980   0.35439   0.79072   0.00000  Uiso   1.00
C1367  C     0.17059   0.64637   0.87682   0.00000  Uiso   1.00
C1368  C     0.15312   0.64520   0.79096   0.00000  Uiso   1.00
Cu1369 Cu    0.16667   0.50001   0.88022   0.00000  Uiso   1.00
Cu1370 Cu    0.16667   0.49999   0.78645   0.00000  Uiso   1.00
H1371  H     0.14351   0.62879   0.75795   0.00000  Uiso   1.00
H1372  H     0.06154   0.36759   0.78604   0.00000  Uiso   1.00
H1373  H     0.05087   0.37548   0.67816   0.00000  Uiso   1.00
H1374  H     0.05535   0.66001   0.70890   0.00000  Uiso   1.00
H1375  H     0.31069   0.34914   0.74725   0.00000  Uiso   1.00
H1376  H     0.29914   0.34083   0.68436   0.00000  Uiso   1.00
H1377  H     0.30476   0.39228   0.70661   0.00000  Uiso   1.00
H1378  H     0.11604   0.59648   0.95282   0.00000  Uiso   1.00
H1379  H     0.09604   0.60561   0.89151   0.00000  Uiso   1.00
H1380  H     0.10422   0.33548   0.97218   0.00000  Uiso   1.00
H1381  H     0.08985   0.34928   0.91082   0.00000  Uiso   1.00
H1382  H     0.18460   0.37164   0.90869   0.00000  Uiso   1.00
H1383  H     0.01391   0.63664   0.90062   0.00000  Uiso   1.00
H1384  H     0.00963   0.34306   0.94298   0.00000  Uiso   1.00
H1385  H     0.02550   0.62472   0.96316   0.00000  Uiso   1.00
H1386  H     0.10524   0.45812   0.70189   0.00000  Uiso   1.00
H1387  H     0.22787   0.54215   0.96460   0.00000  Uiso   1.00
H1388  H     0.10556   0.45780   0.94852   0.00000  Uiso   1.00
H1389  H     0.22792   0.54208   0.71815   0.00000  Uiso   1.00
H1390  H     0.31619   0.46894   0.70065   0.00000  Uiso   1.00
H1391  H     0.02150   0.51659   0.96862   0.00000  Uiso   1.00
H1392  H     0.06607   0.41303   0.75197   0.00000  Uiso   1.00
N1393  N     0.16668   0.50001   0.95069   0.00000  Uiso   1.00
N1394  N     0.16665   0.49999   0.71597   0.00000  Uiso   1.00
O1395  O     0.16666   0.43989   0.87291   0.00000  Uiso   1.00
O1396  O     0.33328   0.48638   0.72766   0.00000  Uiso   1.00
O1397  O     0.02810   0.55505   0.89812   0.00000  Uiso   1.00
O1398  O     0.00565   0.50048   0.93995   0.00000  Uiso   1.00
O1399  O     0.12711   0.37397   0.75025   0.00000  Uiso   1.00
O1400  O     0.16830   0.62824   0.92027   0.00000  Uiso   1.00
O1401  O     0.16667   0.56011   0.79375   0.00000  Uiso   1.00
O1402  O     0.16666   0.43988   0.79372   0.00000  Uiso   1.00
O1403  O     0.16667   0.56012   0.87294   0.00000  Uiso   1.00
O1404  O     0.09161   0.50000   0.86379   0.00000  Uiso   1.00
O1405  O     0.24172   0.50000   0.80288   0.00000  Uiso   1.00
O1406  O     0.09161   0.49999   0.78460   0.00000  Uiso   1.00
O1407  O     0.24172   0.50001   0.88207   0.00000  Uiso   1.00
O1408  O     0.29929   0.44082   0.77461   0.00000  Uiso   1.00
C1409  C     0.49940   0.42077   0.83317   0.00000  Uiso   1.00
C1410  C     0.50947   0.35522   0.87556   0.00000  Uiso   1.00
C1411  C     0.49740   0.62409   0.83385   0.00000  Uiso   1.00
C1412  C     0.49839   0.37624   0.83283   0.00000  Uiso   1.00
C1413  C     0.46594   0.47672   0.68694   0.00000  Uiso   1.00
C1414  C     0.53401   0.52336   0.97968   0.00000  Uiso   1.00
C1415  C     0.46604   0.47663   0.97073   0.00000  Uiso   1.00
C1416  C     0.53402   0.52333   0.69593   0.00000  Uiso   1.00
C1417  C     0.65776   0.47191   0.77180   0.00000  Uiso   1.00
C1418  C     0.34217   0.52110   0.89763   0.00000  Uiso   1.00
C1419  C     0.40772   0.37967   0.75303   0.00000  Uiso   1.00
C1420  C     0.49916   0.57934   0.83341   0.00000  Uiso   1.00
C1421  C     0.37653   0.35923   0.71051   0.00000  Uiso   1.00
C1422  C     0.65264   0.36056   0.71264   0.00000  Uiso   1.00
C1423  C     0.44987   0.61956   0.92429   0.00000  Uiso   1.00
C1424  C     0.42054   0.65773   0.93677   0.00000  Uiso   1.00
C1425  C     0.36399   0.64811   0.93600   0.00000  Uiso   1.00
C1426  C     0.40138   0.49958   0.82137   0.00000  Uiso   1.00
C1427  C     0.59852   0.49912   0.84540   0.00000  Uiso   1.00
C1428  C     0.34676   0.49375   0.81564   0.00000  Uiso   1.00
C1429  C     0.65328   0.50236   0.85195   0.00000  Uiso   1.00
C1430  C     0.48313   0.35439   0.79072   0.00000  Uiso   1.00
C1431  C     0.50392   0.64637   0.87682   0.00000  Uiso   1.00
C1432  C     0.48645   0.64520   0.79096   0.00000  Uiso   1.00
Cu1433 Cu    0.50000   0.50001   0.88022   0.00000  Uiso   1.00
Cu1434 Cu    0.50000   0.49999   0.78645   0.00000  Uiso   1.00
H1435  H     0.47684   0.62879   0.75795   0.00000  Uiso   1.00
H1436  H     0.39487   0.36759   0.78604   0.00000  Uiso   1.00
H1437  H     0.38421   0.37548   0.67816   0.00000  Uiso   1.00
H1438  H     0.38868   0.66001   0.70890   0.00000  Uiso   1.00
H1439  H     0.64403   0.34914   0.74725   0.00000  Uiso   1.00
H1440  H     0.63247   0.34083   0.68436   0.00000  Uiso   1.00
H1441  H     0.63809   0.39228   0.70661   0.00000  Uiso   1.00
H1442  H     0.44938   0.59648   0.95282   0.00000  Uiso   1.00
H1443  H     0.42937   0.60561   0.89151   0.00000  Uiso   1.00
H1444  H     0.43755   0.33548   0.97218   0.00000  Uiso   1.00
H1445  H     0.42319   0.34928   0.91082   0.00000  Uiso   1.00
H1446  H     0.51794   0.37164   0.90869   0.00000  Uiso   1.00
H1447  H     0.34725   0.63664   0.90062   0.00000  Uiso   1.00
H1448  H     0.34297   0.34306   0.94298   0.00000  Uiso   1.00
H1449  H     0.35883   0.62472   0.96316   0.00000  Uiso   1.00
H1450  H     0.43857   0.45812   0.70189   0.00000  Uiso   1.00
H1451  H     0.56121   0.54215   0.96460   0.00000  Uiso   1.00
H1452  H     0.43889   0.45780   0.94852   0.00000  Uiso   1.00
H1453  H     0.56126   0.54208   0.71815   0.00000  Uiso   1.00
H1454  H     0.64952   0.46894   0.70065   0.00000  Uiso   1.00
H1455  H     0.35484   0.51659   0.96862   0.00000  Uiso   1.00
H1456  H     0.39941   0.41303   0.75197   0.00000  Uiso   1.00
N1457  N     0.50001   0.50001   0.95069   0.00000  Uiso   1.00
N1458  N     0.49999   0.49999   0.71597   0.00000  Uiso   1.00
O1459  O     0.50000   0.43989   0.87291   0.00000  Uiso   1.00
O1460  O     0.66661   0.48638   0.72766   0.00000  Uiso   1.00
O1461  O     0.36143   0.55505   0.89812   0.00000  Uiso   1.00
O1462  O     0.33898   0.50048   0.93995   0.00000  Uiso   1.00
O1463  O     0.46044   0.37397   0.75025   0.00000  Uiso   1.00
O1464  O     0.50164   0.62824   0.92027   0.00000  Uiso   1.00
O1465  O     0.50000   0.56011   0.79375   0.00000  Uiso   1.00
O1466  O     0.50000   0.43988   0.79372   0.00000  Uiso   1.00
O1467  O     0.50000   0.56012   0.87294   0.00000  Uiso   1.00
O1468  O     0.42495   0.50000   0.86379   0.00000  Uiso   1.00
O1469  O     0.57505   0.50000   0.80288   0.00000  Uiso   1.00
O1470  O     0.42494   0.49999   0.78460   0.00000  Uiso   1.00
O1471  O     0.57506   0.50001   0.88207   0.00000  Uiso   1.00
O1472  O     0.63263   0.44082   0.77461   0.00000  Uiso   1.00
C1473  C     0.83273   0.42077   0.83317   0.00000  Uiso   1.00
C1474  C     0.84280   0.35522   0.87556   0.00000  Uiso   1.00
C1475  C     0.83073   0.62409   0.83385   0.00000  Uiso   1.00
C1476  C     0.83172   0.37624   0.83283   0.00000  Uiso   1.00
C1477  C     0.79927   0.47672   0.68694   0.00000  Uiso   1.00
C1478  C     0.86735   0.52336   0.97968   0.00000  Uiso   1.00
C1479  C     0.79938   0.47663   0.97073   0.00000  Uiso   1.00
C1480  C     0.86736   0.52333   0.69593   0.00000  Uiso   1.00
C1481  C     0.99110   0.47191   0.77180   0.00000  Uiso   1.00
C1482  C     0.67550   0.52110   0.89763   0.00000  Uiso   1.00
C1483  C     0.74105   0.37967   0.75303   0.00000  Uiso   1.00
C1484  C     0.83249   0.57934   0.83341   0.00000  Uiso   1.00
C1485  C     0.70987   0.35923   0.71051   0.00000  Uiso   1.00
C1486  C     0.98598   0.36056   0.71264   0.00000  Uiso   1.00
C1487  C     0.78320   0.61956   0.92429   0.00000  Uiso   1.00
C1488  C     0.75387   0.65773   0.93677   0.00000  Uiso   1.00
C1489  C     0.69732   0.64811   0.93600   0.00000  Uiso   1.00
C1490  C     0.73471   0.49958   0.82137   0.00000  Uiso   1.00
C1491  C     0.93185   0.49912   0.84540   0.00000  Uiso   1.00
C1492  C     0.68009   0.49375   0.81564   0.00000  Uiso   1.00
C1493  C     0.98661   0.50236   0.85195   0.00000  Uiso   1.00
C1494  C     0.81647   0.35439   0.79072   0.00000  Uiso   1.00
C1495  C     0.83725   0.64637   0.87682   0.00000  Uiso   1.00
C1496  C     0.81978   0.64520   0.79096   0.00000  Uiso   1.00
Cu1497 Cu    0.83333   0.50001   0.88022   0.00000  Uiso   1.00
Cu1498 Cu    0.83333   0.49999   0.78645   0.00000  Uiso   1.00
H1499  H     0.81018   0.62879   0.75795   0.00000  Uiso   1.00
H1500  H     0.72820   0.36759   0.78604   0.00000  Uiso   1.00
H1501  H     0.71754   0.37548   0.67816   0.00000  Uiso   1.00
H1502  H     0.72202   0.66001   0.70890   0.00000  Uiso   1.00
H1503  H     0.97736   0.34914   0.74725   0.00000  Uiso   1.00
H1504  H     0.96581   0.34083   0.68436   0.00000  Uiso   1.00
H1505  H     0.97143   0.39228   0.70661   0.00000  Uiso   1.00
H1506  H     0.78271   0.59648   0.95282   0.00000  Uiso   1.00
H1507  H     0.76271   0.60561   0.89151   0.00000  Uiso   1.00
H1508  H     0.77088   0.33548   0.97218   0.00000  Uiso   1.00
H1509  H     0.75652   0.34928   0.91082   0.00000  Uiso   1.00
H1510  H     0.85127   0.37164   0.90869   0.00000  Uiso   1.00
H1511  H     0.68058   0.63664   0.90062   0.00000  Uiso   1.00
H1512  H     0.67630   0.34306   0.94298   0.00000  Uiso   1.00
H1513  H     0.69216   0.62472   0.96316   0.00000  Uiso   1.00
H1514  H     0.77191   0.45812   0.70189   0.00000  Uiso   1.00
H1515  H     0.89454   0.54215   0.96460   0.00000  Uiso   1.00
H1516  H     0.77223   0.45780   0.94852   0.00000  Uiso   1.00
H1517  H     0.89459   0.54208   0.71815   0.00000  Uiso   1.00
H1518  H     0.98285   0.46894   0.70065   0.00000  Uiso   1.00
H1519  H     0.68817   0.51659   0.96862   0.00000  Uiso   1.00
H1520  H     0.73274   0.41303   0.75197   0.00000  Uiso   1.00
N1521  N     0.83335   0.50001   0.95069   0.00000  Uiso   1.00
N1522  N     0.83332   0.49999   0.71597   0.00000  Uiso   1.00
O1523  O     0.83333   0.43989   0.87291   0.00000  Uiso   1.00
O1524  O     0.99994   0.48638   0.72766   0.00000  Uiso   1.00
O1525  O     0.69476   0.55505   0.89812   0.00000  Uiso   1.00
O1526  O     0.67231   0.50048   0.93995   0.00000  Uiso   1.00
O1527  O     0.79377   0.37397   0.75025   0.00000  Uiso   1.00
O1528  O     0.83497   0.62824   0.92027   0.00000  Uiso   1.00
O1529  O     0.83334   0.56011   0.79375   0.00000  Uiso   1.00
O1530  O     0.83333   0.43988   0.79372   0.00000  Uiso   1.00
O1531  O     0.83334   0.56012   0.87294   0.00000  Uiso   1.00
O1532  O     0.75828   0.50000   0.86379   0.00000  Uiso   1.00
O1533  O     0.90839   0.50000   0.80288   0.00000  Uiso   1.00
O1534  O     0.75828   0.49999   0.78460   0.00000  Uiso   1.00
O1535  O     0.90839   0.50001   0.88207   0.00000  Uiso   1.00
O1536  O     0.96596   0.44082   0.77461   0.00000  Uiso   1.00
C1537  C     0.16606   0.75410   0.83317   0.00000  Uiso   1.00
C1538  C     0.17614   0.68855   0.87556   0.00000  Uiso   1.00
C1539  C     0.16407   0.95742   0.83385   0.00000  Uiso   1.00
C1540  C     0.16506   0.70957   0.83283   0.00000  Uiso   1.00
C1541  C     0.13261   0.81005   0.68694   0.00000  Uiso   1.00
C1542  C     0.20068   0.85670   0.97968   0.00000  Uiso   1.00
C1543  C     0.13271   0.80996   0.97073   0.00000  Uiso   1.00
C1544  C     0.20069   0.85666   0.69593   0.00000  Uiso   1.00
C1545  C     0.32443   0.80524   0.77180   0.00000  Uiso   1.00
C1546  C     0.00884   0.85443   0.89763   0.00000  Uiso   1.00
C1547  C     0.07438   0.71300   0.75303   0.00000  Uiso   1.00
C1548  C     0.16583   0.91267   0.83341   0.00000  Uiso   1.00
C1549  C     0.04320   0.69257   0.71051   0.00000  Uiso   1.00
C1550  C     0.31931   0.69390   0.71264   0.00000  Uiso   1.00
C1551  C     0.11654   0.95290   0.92429   0.00000  Uiso   1.00
C1552  C     0.08720   0.99106   0.93677   0.00000  Uiso   1.00
C1553  C     0.03066   0.98144   0.93600   0.00000  Uiso   1.00
C1554  C     0.06805   0.83291   0.82137   0.00000  Uiso   1.00
C1555  C     0.26519   0.83245   0.84540   0.00000  Uiso   1.00
C1556  C     0.01342   0.82708   0.81564   0.00000  Uiso   1.00
C1557  C     0.31994   0.83570   0.85195   0.00000  Uiso   1.00
C1558  C     0.14980   0.68773   0.79072   0.00000  Uiso   1.00
C1559  C     0.17059   0.97970   0.87682   0.00000  Uiso   1.00
C1560  C     0.15312   0.97853   0.79096   0.00000  Uiso   1.00
Cu1561 Cu    0.16667   0.83334   0.88022   0.00000  Uiso   1.00
Cu1562 Cu    0.16667   0.83333   0.78645   0.00000  Uiso   1.00
H1563  H     0.14351   0.96213   0.75795   0.00000  Uiso   1.00
H1564  H     0.06154   0.70092   0.78604   0.00000  Uiso   1.00
H1565  H     0.05087   0.70881   0.67816   0.00000  Uiso   1.00
H1566  H     0.05535   0.99334   0.70890   0.00000  Uiso   1.00
H1567  H     0.31069   0.68247   0.74725   0.00000  Uiso   1.00
H1568  H     0.29914   0.67416   0.68436   0.00000  Uiso   1.00
H1569  H     0.30476   0.72562   0.70661   0.00000  Uiso   1.00
H1570  H     0.11604   0.92982   0.95282   0.00000  Uiso   1.00
H1571  H     0.09604   0.93895   0.89151   0.00000  Uiso   1.00
H1572  H     0.10422   0.66881   0.97218   0.00000  Uiso   1.00
H1573  H     0.08985   0.68261   0.91082   0.00000  Uiso   1.00
H1574  H     0.18460   0.70498   0.90869   0.00000  Uiso   1.00
H1575  H     0.01391   0.96997   0.90062   0.00000  Uiso   1.00
H1576  H     0.00963   0.67639   0.94298   0.00000  Uiso   1.00
H1577  H     0.02550   0.95806   0.96316   0.00000  Uiso   1.00
H1578  H     0.10524   0.79145   0.70189   0.00000  Uiso   1.00
H1579  H     0.22787   0.87549   0.96460   0.00000  Uiso   1.00
H1580  H     0.10556   0.79113   0.94852   0.00000  Uiso   1.00
H1581  H     0.22792   0.87541   0.71815   0.00000  Uiso   1.00
H1582  H     0.31619   0.80227   0.70065   0.00000  Uiso   1.00
H1583  H     0.02150   0.84993   0.96862   0.00000  Uiso   1.00
H1584  H     0.06607   0.74636   0.75197   0.00000  Uiso   1.00
N1585  N     0.16668   0.83334   0.95069   0.00000  Uiso   1.00
N1586  N     0.16665   0.83332   0.71597   0.00000  Uiso   1.00
O1587  O     0.16666   0.77322   0.87291   0.00000  Uiso   1.00
O1588  O     0.33328   0.81972   0.72766   0.00000  Uiso   1.00
O1589  O     0.02810   0.88838   0.89812   0.00000  Uiso   1.00
O1590  O     0.00565   0.83381   0.93995   0.00000  Uiso   1.00
O1591  O     0.12711   0.70730   0.75025   0.00000  Uiso   1.00
O1592  O     0.16830   0.96157   0.92027   0.00000  Uiso   1.00
O1593  O     0.16667   0.89345   0.79375   0.00000  Uiso   1.00
O1594  O     0.16666   0.77321   0.79372   0.00000  Uiso   1.00
O1595  O     0.16667   0.89346   0.87294   0.00000  Uiso   1.00
O1596  O     0.09161   0.83334   0.86379   0.00000  Uiso   1.00
O1597  O     0.24172   0.83333   0.80288   0.00000  Uiso   1.00
O1598  O     0.09161   0.83333   0.78460   0.00000  Uiso   1.00
O1599  O     0.24172   0.83334   0.88207   0.00000  Uiso   1.00
O1600  O     0.29929   0.77415   0.77461   0.00000  Uiso   1.00
C1601  C     0.49940   0.75410   0.83317   0.00000  Uiso   1.00
C1602  C     0.50947   0.68855   0.87556   0.00000  Uiso   1.00
C1603  C     0.49740   0.95742   0.83385   0.00000  Uiso   1.00
C1604  C     0.49839   0.70957   0.83283   0.00000  Uiso   1.00
C1605  C     0.46594   0.81005   0.68694   0.00000  Uiso   1.00
C1606  C     0.53401   0.85670   0.97968   0.00000  Uiso   1.00
C1607  C     0.46604   0.80996   0.97073   0.00000  Uiso   1.00
C1608  C     0.53402   0.85666   0.69593   0.00000  Uiso   1.00
C1609  C     0.65776   0.80524   0.77180   0.00000  Uiso   1.00
C1610  C     0.34217   0.85443   0.89763   0.00000  Uiso   1.00
C1611  C     0.40772   0.71300   0.75303   0.00000  Uiso   1.00
C1612  C     0.49916   0.91267   0.83341   0.00000  Uiso   1.00
C1613  C     0.37653   0.69257   0.71051   0.00000  Uiso   1.00
C1614  C     0.65264   0.69390   0.71264   0.00000  Uiso   1.00
C1615  C     0.44987   0.95290   0.92429   0.00000  Uiso   1.00
C1616  C     0.42054   0.99106   0.93677   0.00000  Uiso   1.00
C1617  C     0.36399   0.98144   0.93600   0.00000  Uiso   1.00
C1618  C     0.40138   0.83291   0.82137   0.00000  Uiso   1.00
C1619  C     0.59852   0.83245   0.84540   0.00000  Uiso   1.00
C1620  C     0.34676   0.82708   0.81564   0.00000  Uiso   1.00
C1621  C     0.65328   0.83570   0.85195   0.00000  Uiso   1.00
C1622  C     0.48313   0.68773   0.79072   0.00000  Uiso   1.00
C1623  C     0.50392   0.97970   0.87682   0.00000  Uiso   1.00
C1624  C     0.48645   0.97853   0.79096   0.00000  Uiso   1.00
Cu1625 Cu    0.50000   0.83334   0.88022   0.00000  Uiso   1.00
Cu1626 Cu    0.50000   0.83333   0.78645   0.00000  Uiso   1.00
H1627  H     0.47684   0.96213   0.75795   0.00000  Uiso   1.00
H1628  H     0.39487   0.70092   0.78604   0.00000  Uiso   1.00
H1629  H     0.38421   0.70881   0.67816   0.00000  Uiso   1.00
H1630  H     0.38868   0.99334   0.70890   0.00000  Uiso   1.00
H1631  H     0.64403   0.68247   0.74725   0.00000  Uiso   1.00
H1632  H     0.63247   0.67416   0.68436   0.00000  Uiso   1.00
H1633  H     0.63809   0.72562   0.70661   0.00000  Uiso   1.00
H1634  H     0.44938   0.92982   0.95282   0.00000  Uiso   1.00
H1635  H     0.42937   0.93895   0.89151   0.00000  Uiso   1.00
H1636  H     0.43755   0.66881   0.97218   0.00000  Uiso   1.00
H1637  H     0.42319   0.68261   0.91082   0.00000  Uiso   1.00
H1638  H     0.51794   0.70498   0.90869   0.00000  Uiso   1.00
H1639  H     0.34725   0.96997   0.90062   0.00000  Uiso   1.00
H1640  H     0.34297   0.67639   0.94298   0.00000  Uiso   1.00
H1641  H     0.35883   0.95806   0.96316   0.00000  Uiso   1.00
H1642  H     0.43857   0.79145   0.70189   0.00000  Uiso   1.00
H1643  H     0.56121   0.87549   0.96460   0.00000  Uiso   1.00
H1644  H     0.43889   0.79113   0.94852   0.00000  Uiso   1.00
H1645  H     0.56126   0.87541   0.71815   0.00000  Uiso   1.00
H1646  H     0.64952   0.80227   0.70065   0.00000  Uiso   1.00
H1647  H     0.35484   0.84993   0.96862   0.00000  Uiso   1.00
H1648  H     0.39941   0.74636   0.75197   0.00000  Uiso   1.00
N1649  N     0.50001   0.83334   0.95069   0.00000  Uiso   1.00
N1650  N     0.49999   0.83332   0.71597   0.00000  Uiso   1.00
O1651  O     0.50000   0.77322   0.87291   0.00000  Uiso   1.00
O1652  O     0.66661   0.81972   0.72766   0.00000  Uiso   1.00
O1653  O     0.36143   0.88838   0.89812   0.00000  Uiso   1.00
O1654  O     0.33898   0.83381   0.93995   0.00000  Uiso   1.00
O1655  O     0.46044   0.70730   0.75025   0.00000  Uiso   1.00
O1656  O     0.50164   0.96157   0.92027   0.00000  Uiso   1.00
O1657  O     0.50000   0.89345   0.79375   0.00000  Uiso   1.00
O1658  O     0.50000   0.77321   0.79372   0.00000  Uiso   1.00
O1659  O     0.50000   0.89346   0.87294   0.00000  Uiso   1.00
O1660  O     0.42495   0.83334   0.86379   0.00000  Uiso   1.00
O1661  O     0.57505   0.83333   0.80288   0.00000  Uiso   1.00
O1662  O     0.42494   0.83333   0.78460   0.00000  Uiso   1.00
O1663  O     0.57506   0.83334   0.88207   0.00000  Uiso   1.00
O1664  O     0.63263   0.77415   0.77461   0.00000  Uiso   1.00
C1665  C     0.83273   0.75410   0.83317   0.00000  Uiso   1.00
C1666  C     0.84280   0.68855   0.87556   0.00000  Uiso   1.00
C1667  C     0.83073   0.95742   0.83385   0.00000  Uiso   1.00
C1668  C     0.83172   0.70957   0.83283   0.00000  Uiso   1.00
C1669  C     0.79927   0.81005   0.68694   0.00000  Uiso   1.00
C1670  C     0.86735   0.85670   0.97968   0.00000  Uiso   1.00
C1671  C     0.79938   0.80996   0.97073   0.00000  Uiso   1.00
C1672  C     0.86736   0.85666   0.69593   0.00000  Uiso   1.00
C1673  C     0.99110   0.80524   0.77180   0.00000  Uiso   1.00
C1674  C     0.67550   0.85443   0.89763   0.00000  Uiso   1.00
C1675  C     0.74105   0.71300   0.75303   0.00000  Uiso   1.00
C1676  C     0.83249   0.91267   0.83341   0.00000  Uiso   1.00
C1677  C     0.70987   0.69257   0.71051   0.00000  Uiso   1.00
C1678  C     0.98598   0.69390   0.71264   0.00000  Uiso   1.00
C1679  C     0.78320   0.95290   0.92429   0.00000  Uiso   1.00
C1680  C     0.75387   0.99106   0.93677   0.00000  Uiso   1.00
C1681  C     0.69732   0.98144   0.93600   0.00000  Uiso   1.00
C1682  C     0.73471   0.83291   0.82137   0.00000  Uiso   1.00
C1683  C     0.93185   0.83245   0.84540   0.00000  Uiso   1.00
C1684  C     0.68009   0.82708   0.81564   0.00000  Uiso   1.00
C1685  C     0.98661   0.83570   0.85195   0.00000  Uiso   1.00
C1686  C     0.81647   0.68773   0.79072   0.00000  Uiso   1.00
C1687  C     0.83725   0.97970   0.87682   0.00000  Uiso   1.00
C1688  C     0.81978   0.97853   0.79096   0.00000  Uiso   1.00
Cu1689 Cu    0.83333   0.83334   0.88022   0.00000  Uiso   1.00
Cu1690 Cu    0.83333   0.83333   0.78645   0.00000  Uiso   1.00
H1691  H     0.81018   0.96213   0.75795   0.00000  Uiso   1.00
H1692  H     0.72820   0.70092   0.78604   0.00000  Uiso   1.00
H1693  H     0.71754   0.70881   0.67816   0.00000  Uiso   1.00
H1694  H     0.72202   0.99334   0.70890   0.00000  Uiso   1.00
H1695  H     0.97736   0.68247   0.74725   0.00000  Uiso   1.00
H1696  H     0.96581   0.67416   0.68436   0.00000  Uiso   1.00
H1697  H     0.97143   0.72562   0.70661   0.00000  Uiso   1.00
H1698  H     0.78271   0.92982   0.95282   0.00000  Uiso   1.00
H1699  H     0.76271   0.93895   0.89151   0.00000  Uiso   1.00
H1700  H     0.77088   0.66881   0.97218   0.00000  Uiso   1.00
H1701  H     0.75652   0.68261   0.91082   0.00000  Uiso   1.00
H1702  H     0.85127   0.70498   0.90869   0.00000  Uiso   1.00
H1703  H     0.68058   0.96997   0.90062   0.00000  Uiso   1.00
H1704  H     0.67630   0.67639   0.94298   0.00000  Uiso   1.00
H1705  H     0.69216   0.95806   0.96316   0.00000  Uiso   1.00
H1706  H     0.77191   0.79145   0.70189   0.00000  Uiso   1.00
H1707  H     0.89454   0.87549   0.96460   0.00000  Uiso   1.00
H1708  H     0.77223   0.79113   0.94852   0.00000  Uiso   1.00
H1709  H     0.89459   0.87541   0.71815   0.00000  Uiso   1.00
H1710  H     0.98285   0.80227   0.70065   0.00000  Uiso   1.00
H1711  H     0.68817   0.84993   0.96862   0.00000  Uiso   1.00
H1712  H     0.73274   0.74636   0.75197   0.00000  Uiso   1.00
N1713  N     0.83335   0.83334   0.95069   0.00000  Uiso   1.00
N1714  N     0.83332   0.83332   0.71597   0.00000  Uiso   1.00
O1715  O     0.83333   0.77322   0.87291   0.00000  Uiso   1.00
O1716  O     0.99994   0.81972   0.72766   0.00000  Uiso   1.00
O1717  O     0.69476   0.88838   0.89812   0.00000  Uiso   1.00
O1718  O     0.67231   0.83381   0.93995   0.00000  Uiso   1.00
O1719  O     0.79377   0.70730   0.75025   0.00000  Uiso   1.00
O1720  O     0.83497   0.96157   0.92027   0.00000  Uiso   1.00
O1721  O     0.83334   0.89345   0.79375   0.00000  Uiso   1.00
O1722  O     0.83333   0.77321   0.79372   0.00000  Uiso   1.00
O1723  O     0.83334   0.89346   0.87294   0.00000  Uiso   1.00
O1724  O     0.75828   0.83334   0.86379   0.00000  Uiso   1.00
O1725  O     0.90839   0.83333   0.80288   0.00000  Uiso   1.00
O1726  O     0.75828   0.83333   0.78460   0.00000  Uiso   1.00
O1727  O     0.90839   0.83334   0.88207   0.00000  Uiso   1.00
O1728  O     0.96596   0.77415   0.77461   0.00000  Uiso   1.00
loop_
_geom_bond_atom_site_label_1
_geom_bond_atom_site_label_2
_geom_bond_distance
_geom_bond_site_symmetry_2
_ccdc_geom_bond_type
C1     C4      1.452   .     S
C1     O51     1.294   .     A
C1     O58     1.290   .     A
C2     C4      1.395   .     A
C2     H38     1.084   .     S
C2     C407    1.385   1_545 S
C3     C23     1.417   .     A
C3     C12     1.460   .     S
C3     C24     1.400   .     A
C4     C22     1.408   .     A
C5     H42     1.080   .     S
C5     N50     1.367   .     A
C5     C1159   1.417   1_554 S
C6     H43     1.082   .     S
C6     N49     1.367   .     A
C6     C584    1.418   .     S
C7     N49     1.367   .     A
C7     H44     1.082   .     S
C7     C581    1.417   .     S
C8     N50     1.368   .     A
C8     H45     1.082   .     S
C8     C1158   1.418   1_554 S
C9     O64     1.223   .     D
C9     O52     1.398   .     S
C9     C84     1.490   .     S
C10    O54     1.397   .     S
C10    O53     1.219   .     D
C10    C149    1.486   1_455 S
C11    C13     1.524   .     S
C11    H48     1.109   .     S
C11    H28     1.120   .     S
C11    O55     1.422   .     S
C12    O57     1.298   .     A
C12    O59     1.290   .     A
C13    H29     1.109   .     S
C13    C142    1.526   1_455 S
C13    H414    1.111   1_545 S
C14    H31     1.111   .     S
C14    H33     1.108   .     S
C14    H32     1.110   .     S
C14    C77     1.526   .     S
C15    H34     1.111   .     S
C15    O56     1.421   .     S
C15    H35     1.112   .     S
C15    C16     1.534   .     S
C16    C17     1.528   .     S
C16    H228    1.109   .     S
C16    H229    1.109   .     S
C17    H39     1.111   .     S
C17    H41     1.111   .     S
C17    H232    1.109   .     S
C18    C20     1.446   .     S
C18    O60     1.283   .     A
C18    O62     1.297   .     A
C19    O63     1.292   .     A
C19    O61     1.285   .     A
C19    C21     1.440   .     S
C20    C137    1.490   1_455 S
C20    C149    1.367   1_455 S
C21    C84     1.367   .     S
C21    C74     1.486   .     S
C22    O55     1.382   .     S
C22    C408    1.389   1_545 S
C23    O56     1.385   .     S
C23    C194    1.385   .     S
C24    H27     1.084   .     S
C24    C214    1.389   .     S
Cu25   O51     1.971   .     S
Cu25   O60     1.977   .     S
Cu25   O63     1.981   .     S
Cu25   O59     1.971   .     S
Cu25   Cu26    2.681   .     S
Cu25   N49     2.015   .     S
Cu26   O62     1.981   .     S
Cu26   O61     1.977   .     S
Cu26   N50     2.015   .     S
Cu26   O57     1.971   .     S
Cu26   O58     1.971   .     S
H30    C205    1.111   .     S
H36    C400    1.109   1_545 S
H37    C400    1.109   1_545 S
H40    C401    1.109   1_545 S
H46    O52     1.013   .     S
H47    O54     1.014   .     S
C65    C68     1.452   .     S
C65    O115    1.294   .     A
C65    O122    1.290   .     A
C66    C68     1.395   .     A
C66    H102    1.084   .     S
C66    C471    1.385   1_545 S
C67    C87     1.417   .     A
C67    C76     1.460   .     S
C67    C88     1.400   .     A
C68    C86     1.408   .     A
C69    H106    1.080   .     S
C69    N114    1.367   .     A
C69    C1223   1.417   1_554 S
C70    H107    1.082   .     S
C70    N113    1.367   .     A
C70    C648    1.418   .     S
C71    N113    1.367   .     A
C71    H108    1.082   .     S
C71    C645    1.417   .     S
C72    N114    1.368   .     A
C72    H109    1.082   .     S
C72    C1222   1.418   1_554 S
C73    O128    1.223   .     D
C73    O116    1.398   .     S
C73    C148    1.490   .     S
C74    O118    1.397   .     S
C74    O117    1.219   .     D
C75    C77     1.524   .     S
C75    H112    1.109   .     S
C75    H92     1.120   .     S
C75    O119    1.422   .     S
C76    O121    1.298   .     A
C76    O123    1.290   .     A
C77    H93     1.109   .     S
C77    H478    1.111   1_545 S
C78    H95     1.111   .     S
C78    H97     1.108   .     S
C78    H96     1.110   .     S
C78    C141    1.526   .     S
C79    H98     1.111   .     S
C79    O120    1.421   .     S
C79    H99     1.112   .     S
C79    C80     1.534   .     S
C80    C81     1.528   .     S
C80    H292    1.109   .     S
C80    H293    1.109   .     S
C81    H103    1.111   .     S
C81    H105    1.111   .     S
C81    H296    1.109   .     S
C82    C84     1.446   .     S
C82    O124    1.283   .     A
C82    O126    1.297   .     A
C83    O127    1.292   .     A
C83    O125    1.285   .     A
C83    C85     1.440   .     S
C85    C148    1.367   .     S
C85    C138    1.486   .     S
C86    O119    1.382   .     S
C86    C472    1.389   1_545 S
C87    O120    1.385   .     S
C87    C258    1.385   .     S
C88    H91     1.084   .     S
C88    C278    1.389   .     S
Cu89   O115    1.971   .     S
Cu89   O124    1.977   .     S
Cu89   O127    1.981   .     S
Cu89   O123    1.971   .     S
Cu89   Cu90    2.681   .     S
Cu89   N113    2.015   .     S
Cu90   O126    1.981   .     S
Cu90   O125    1.977   .     S
Cu90   N114    2.015   .     S
Cu90   O121    1.971   .     S
Cu90   O122    1.971   .     S
H94    C269    1.111   .     S
H100   C464    1.109   1_545 S
H101   C464    1.109   1_545 S
H104   C465    1.109   1_545 S
H110   O116    1.013   .     S
H111   O118    1.014   .     S
C129   C132    1.452   .     S
C129   O179    1.294   .     A
C129   O186    1.290   .     A
C130   C132    1.395   .     A
C130   H166    1.084   .     S
C130   C535    1.385   1_545 S
C131   C151    1.417   .     A
C131   C140    1.460   .     S
C131   C152    1.400   .     A
C132   C150    1.408   .     A
C133   H170    1.080   .     S
C133   N178    1.367   .     A
C133   C1287   1.417   1_554 S
C134   H171    1.082   .     S
C134   N177    1.367   .     A
C134   C712    1.418   .     S
C135   N177    1.367   .     A
C135   H172    1.082   .     S
C135   C709    1.417   .     S
C136   N178    1.368   .     A
C136   H173    1.082   .     S
C136   C1286   1.418   1_554 S
C137   O192    1.223   .     D
C137   O180    1.398   .     S
C137   C20     1.490   1_655 S
C138   O182    1.397   .     S
C138   O181    1.219   .     D
C139   C141    1.524   .     S
C139   H176    1.109   .     S
C139   H156    1.120   .     S
C139   O183    1.422   .     S
C140   O185    1.298   .     A
C140   O187    1.290   .     A
C141   H157    1.109   .     S
C141   H542    1.111   1_545 S
C142   H159    1.111   .     S
C142   H161    1.108   .     S
C142   H160    1.110   .     S
C142   C13     1.526   1_655 S
C143   H162    1.111   .     S
C143   O184    1.421   .     S
C143   H163    1.112   .     S
C143   C144    1.534   .     S
C144   C145    1.528   .     S
C144   H356    1.109   .     S
C144   H357    1.109   .     S
C145   H167    1.111   .     S
C145   H169    1.111   .     S
C145   H360    1.109   .     S
C146   C148    1.446   .     S
C146   O188    1.283   .     A
C146   O190    1.297   .     A
C147   O191    1.292   .     A
C147   O189    1.285   .     A
C147   C149    1.440   .     S
C149   C20     1.367   1_655 S
C149   C10     1.486   1_655 S
C150   O183    1.382   .     S
C150   C536    1.389   1_545 S
C151   O184    1.385   .     S
C151   C322    1.385   .     S
C152   H155    1.084   .     S
C152   C342    1.389   .     S
Cu153  O179    1.971   .     S
Cu153  O188    1.977   .     S
Cu153  O191    1.981   .     S
Cu153  O187    1.971   .     S
Cu153  Cu154   2.681   .     S
Cu153  N177    2.015   .     S
Cu154  O190    1.981   .     S
Cu154  O189    1.977   .     S
Cu154  N178    2.015   .     S
Cu154  O185    1.971   .     S
Cu154  O186    1.971   .     S
H158   C333    1.111   .     S
H164   C528    1.109   1_545 S
H165   C528    1.109   1_545 S
H168   C529    1.109   1_545 S
H174   O180    1.013   .     S
H175   O182    1.014   .     S
C193   C196    1.452   .     S
C193   O243    1.294   .     A
C193   O250    1.290   .     A
C194   C196    1.395   .     A
C194   H230    1.084   .     S
C195   C215    1.417   .     A
C195   C204    1.460   .     S
C195   C216    1.400   .     A
C196   C214    1.408   .     A
C197   H234    1.080   .     S
C197   N242    1.367   .     A
C197   C1351   1.417   1_554 S
C198   H235    1.082   .     S
C198   N241    1.367   .     A
C198   C776    1.418   .     S
C199   N241    1.367   .     A
C199   H236    1.082   .     S
C199   C773    1.417   .     S
C200   N242    1.368   .     A
C200   H237    1.082   .     S
C200   C1350   1.418   1_554 S
C201   O256    1.223   .     D
C201   O244    1.398   .     S
C201   C276    1.490   .     S
C202   O246    1.397   .     S
C202   O245    1.219   .     D
C202   C341    1.486   1_455 S
C203   C205    1.524   .     S
C203   H240    1.109   .     S
C203   H220    1.120   .     S
C203   O247    1.422   .     S
C204   O249    1.298   .     A
C204   O251    1.290   .     A
C205   H221    1.109   .     S
C205   C334    1.526   1_455 S
C206   H223    1.111   .     S
C206   H225    1.108   .     S
C206   H224    1.110   .     S
C206   C269    1.526   .     S
C207   H226    1.111   .     S
C207   O248    1.421   .     S
C207   H227    1.112   .     S
C207   C208    1.534   .     S
C208   C209    1.528   .     S
C208   H420    1.109   .     S
C208   H421    1.109   .     S
C209   H231    1.111   .     S
C209   H233    1.111   .     S
C209   H424    1.109   .     S
C210   C212    1.446   .     S
C210   O252    1.283   .     A
C210   O254    1.297   .     A
C211   O255    1.292   .     A
C211   O253    1.285   .     A
C211   C213    1.440   .     S
C212   C329    1.490   1_455 S
C212   C341    1.367   1_455 S
C213   C276    1.367   .     S
C213   C266    1.486   .     S
C214   O247    1.382   .     S
C215   O248    1.385   .     S
C215   C386    1.385   .     S
C216   H219    1.084   .     S
C216   C406    1.389   .     S
Cu217  O243    1.971   .     S
Cu217  O252    1.977   .     S
Cu217  O255    1.981   .     S
Cu217  O251    1.971   .     S
Cu217  Cu218   2.681   .     S
Cu217  N241    2.015   .     S
Cu218  O254    1.981   .     S
Cu218  O253    1.977   .     S
Cu218  N242    2.015   .     S
Cu218  O249    1.971   .     S
Cu218  O250    1.971   .     S
H222   C397    1.111   .     S
H238   O244    1.013   .     S
H239   O246    1.014   .     S
C257   C260    1.452   .     S
C257   O307    1.294   .     A
C257   O314    1.290   .     A
C258   C260    1.395   .     A
C258   H294    1.084   .     S
C259   C279    1.417   .     A
C259   C268    1.460   .     S
C259   C280    1.400   .     A
C260   C278    1.408   .     A
C261   H298    1.080   .     S
C261   N306    1.367   .     A
C261   C1415   1.417   1_554 S
C262   H299    1.082   .     S
C262   N305    1.367   .     A
C262   C840    1.418   .     S
C263   N305    1.367   .     A
C263   H300    1.082   .     S
C263   C837    1.417   .     S
C264   N306    1.368   .     A
C264   H301    1.082   .     S
C264   C1414   1.418   1_554 S
C265   O320    1.223   .     D
C265   O308    1.398   .     S
C265   C340    1.490   .     S
C266   O310    1.397   .     S
C266   O309    1.219   .     D
C267   C269    1.524   .     S
C267   H304    1.109   .     S
C267   H284    1.120   .     S
C267   O311    1.422   .     S
C268   O313    1.298   .     A
C268   O315    1.290   .     A
C269   H285    1.109   .     S
C270   H287    1.111   .     S
C270   H289    1.108   .     S
C270   H288    1.110   .     S
C270   C333    1.526   .     S
C271   H290    1.111   .     S
C271   O312    1.421   .     S
C271   H291    1.112   .     S
C271   C272    1.534   .     S
C272   C273    1.528   .     S
C272   H484    1.109   .     S
C272   H485    1.109   .     S
C273   H295    1.111   .     S
C273   H297    1.111   .     S
C273   H488    1.109   .     S
C274   C276    1.446   .     S
C274   O316    1.283   .     A
C274   O318    1.297   .     A
C275   O319    1.292   .     A
C275   O317    1.285   .     A
C275   C277    1.440   .     S
C277   C340    1.367   .     S
C277   C330    1.486   .     S
C278   O311    1.382   .     S
C279   O312    1.385   .     S
C279   C450    1.385   .     S
C280   H283    1.084   .     S
C280   C470    1.389   .     S
Cu281  O307    1.971   .     S
Cu281  O316    1.977   .     S
Cu281  O319    1.981   .     S
Cu281  O315    1.971   .     S
Cu281  Cu282   2.681   .     S
Cu281  N305    2.015   .     S
Cu282  O318    1.981   .     S
Cu282  O317    1.977   .     S
Cu282  N306    2.015   .     S
Cu282  O313    1.971   .     S
Cu282  O314    1.971   .     S
H286   C461    1.111   .     S
H302   O308    1.013   .     S
H303   O310    1.014   .     S
C321   C324    1.452   .     S
C321   O371    1.294   .     A
C321   O378    1.290   .     A
C322   C324    1.395   .     A
C322   H358    1.084   .     S
C323   C343    1.417   .     A
C323   C332    1.460   .     S
C323   C344    1.400   .     A
C324   C342    1.408   .     A
C325   H362    1.080   .     S
C325   N370    1.367   .     A
C325   C1479   1.417   1_554 S
C326   H363    1.082   .     S
C326   N369    1.367   .     A
C326   C904    1.418   .     S
C327   N369    1.367   .     A
C327   H364    1.082   .     S
C327   C901    1.417   .     S
C328   N370    1.368   .     A
C328   H365    1.082   .     S
C328   C1478   1.418   1_554 S
C329   O384    1.223   .     D
C329   O372    1.398   .     S
C329   C212    1.490   1_655 S
C330   O374    1.397   .     S
C330   O373    1.219   .     D
C331   C333    1.524   .     S
C331   H368    1.109   .     S
C331   H348    1.120   .     S
C331   O375    1.422   .     S
C332   O377    1.298   .     A
C332   O379    1.290   .     A
C333   H349    1.109   .     S
C334   H351    1.111   .     S
C334   H353    1.108   .     S
C334   H352    1.110   .     S
C334   C205    1.526   1_655 S
C335   H354    1.111   .     S
C335   O376    1.421   .     S
C335   H355    1.112   .     S
C335   C336    1.534   .     S
C336   C337    1.528   .     S
C336   H548    1.109   .     S
C336   H549    1.109   .     S
C337   H359    1.111   .     S
C337   H361    1.111   .     S
C337   H552    1.109   .     S
C338   C340    1.446   .     S
C338   O380    1.283   .     A
C338   O382    1.297   .     A
C339   O383    1.292   .     A
C339   O381    1.285   .     A
C339   C341    1.440   .     S
C341   C212    1.367   1_655 S
C341   C202    1.486   1_655 S
C342   O375    1.382   .     S
C343   O376    1.385   .     S
C343   C514    1.385   .     S
C344   H347    1.084   .     S
C344   C534    1.389   .     S
Cu345  O371    1.971   .     S
Cu345  O380    1.977   .     S
Cu345  O383    1.981   .     S
Cu345  O379    1.971   .     S
Cu345  Cu346   2.681   .     S
Cu345  N369    2.015   .     S
Cu346  O382    1.981   .     S
Cu346  O381    1.977   .     S
Cu346  N370    2.015   .     S
Cu346  O377    1.971   .     S
Cu346  O378    1.971   .     S
H350   C525    1.111   .     S
H366   O372    1.013   .     S
H367   O374    1.014   .     S
C385   C388    1.452   .     S
C385   O435    1.294   .     A
C385   O442    1.290   .     A
C386   C388    1.395   .     A
C386   H422    1.084   .     S
C387   C407    1.417   .     A
C387   C396    1.460   .     S
C387   C408    1.400   .     A
C388   C406    1.408   .     A
C389   H426    1.080   .     S
C389   N434    1.367   .     A
C389   C1543   1.417   1_554 S
C390   H427    1.082   .     S
C390   N433    1.367   .     A
C390   C968    1.418   .     S
C391   N433    1.367   .     A
C391   H428    1.082   .     S
C391   C965    1.417   .     S
C392   N434    1.368   .     A
C392   H429    1.082   .     S
C392   C1542   1.418   1_554 S
C393   O448    1.223   .     D
C393   O436    1.398   .     S
C393   C468    1.490   .     S
C394   O438    1.397   .     S
C394   O437    1.219   .     D
C394   C533    1.486   1_455 S
C395   C397    1.524   .     S
C395   H432    1.109   .     S
C395   H412    1.120   .     S
C395   O439    1.422   .     S
C396   O441    1.298   .     A
C396   O443    1.290   .     A
C397   H413    1.109   .     S
C397   C526    1.526   1_455 S
C398   H415    1.111   .     S
C398   H417    1.108   .     S
C398   H416    1.110   .     S
C398   C461    1.526   .     S
C399   H418    1.111   .     S
C399   O440    1.421   .     S
C399   H419    1.112   .     S
C399   C400    1.534   .     S
C400   C401    1.528   .     S
C400   H36     1.109   1_565 S
C400   H37     1.109   1_565 S
C401   H423    1.111   .     S
C401   H425    1.111   .     S
C401   H40     1.109   1_565 S
C402   C404    1.446   .     S
C402   O444    1.283   .     A
C402   O446    1.297   .     A
C403   O447    1.292   .     A
C403   O445    1.285   .     A
C403   C405    1.440   .     S
C404   C521    1.490   1_455 S
C404   C533    1.367   1_455 S
C405   C468    1.367   .     S
C405   C458    1.486   .     S
C406   O439    1.382   .     S
C407   O440    1.385   .     S
C407   C2      1.385   1_565 S
C408   H411    1.084   .     S
C408   C22     1.389   1_565 S
Cu409  O435    1.971   .     S
Cu409  O444    1.977   .     S
Cu409  O447    1.981   .     S
Cu409  O443    1.971   .     S
Cu409  Cu410   2.681   .     S
Cu409  N433    2.015   .     S
Cu410  O446    1.981   .     S
Cu410  O445    1.977   .     S
Cu410  N434    2.015   .     S
Cu410  O441    1.971   .     S
Cu410  O442    1.971   .     S
H414   C13     1.111   1_565 S
H430   O436    1.013   .     S
H431   O438    1.014   .     S
C449   C452    1.452   .     S
C449   O499    1.294   .     A
C449   O506    1.290   .     A
C450   C452    1.395   .     A
C450   H486    1.084   .     S
C451   C471    1.417   .     A
C451   C460    1.460   .     S
C451   C472    1.400   .     A
C452   C470    1.408   .     A
C453   H490    1.080   .     S
C453   N498    1.367   .     A
C453   C1607   1.417   1_554 S
C454   H491    1.082   .     S
C454   N497    1.367   .     A
C454   C1032   1.418   .     S
C455   N497    1.367   .     A
C455   H492    1.082   .     S
C455   C1029   1.417   .     S
C456   N498    1.368   .     A
C456   H493    1.082   .     S
C456   C1606   1.418   1_554 S
C457   O512    1.223   .     D
C457   O500    1.398   .     S
C457   C532    1.490   .     S
C458   O502    1.397   .     S
C458   O501    1.219   .     D
C459   C461    1.524   .     S
C459   H496    1.109   .     S
C459   H476    1.120   .     S
C459   O503    1.422   .     S
C460   O505    1.298   .     A
C460   O507    1.290   .     A
C461   H477    1.109   .     S
C462   H479    1.111   .     S
C462   H481    1.108   .     S
C462   H480    1.110   .     S
C462   C525    1.526   .     S
C463   H482    1.111   .     S
C463   O504    1.421   .     S
C463   H483    1.112   .     S
C463   C464    1.534   .     S
C464   C465    1.528   .     S
C464   H100    1.109   1_565 S
C464   H101    1.109   1_565 S
C465   H487    1.111   .     S
C465   H489    1.111   .     S
C465   H104    1.109   1_565 S
C466   C468    1.446   .     S
C466   O508    1.283   .     A
C466   O510    1.297   .     A
C467   O511    1.292   .     A
C467   O509    1.285   .     A
C467   C469    1.440   .     S
C469   C532    1.367   .     S
C469   C522    1.486   .     S
C470   O503    1.382   .     S
C471   O504    1.385   .     S
C471   C66     1.385   1_565 S
C472   H475    1.084   .     S
C472   C86     1.389   1_565 S
Cu473  O499    1.971   .     S
Cu473  O508    1.977   .     S
Cu473  O511    1.981   .     S
Cu473  O507    1.971   .     S
Cu473  Cu474   2.681   .     S
Cu473  N497    2.015   .     S
Cu474  O510    1.981   .     S
Cu474  O509    1.977   .     S
Cu474  N498    2.015   .     S
Cu474  O505    1.971   .     S
Cu474  O506    1.971   .     S
H478   C77     1.111   1_565 S
H494   O500    1.013   .     S
H495   O502    1.014   .     S
C513   C516    1.452   .     S
C513   O563    1.294   .     A
C513   O570    1.290   .     A
C514   C516    1.395   .     A
C514   H550    1.084   .     S
C515   C535    1.417   .     A
C515   C524    1.460   .     S
C515   C536    1.400   .     A
C516   C534    1.408   .     A
C517   H554    1.080   .     S
C517   N562    1.367   .     A
C517   C1671   1.417   1_554 S
C518   H555    1.082   .     S
C518   N561    1.367   .     A
C518   C1096   1.418   .     S
C519   N561    1.367   .     A
C519   H556    1.082   .     S
C519   C1093   1.417   .     S
C520   N562    1.368   .     A
C520   H557    1.082   .     S
C520   C1670   1.418   1_554 S
C521   O576    1.223   .     D
C521   O564    1.398   .     S
C521   C404    1.490   1_655 S
C522   O566    1.397   .     S
C522   O565    1.219   .     D
C523   C525    1.524   .     S
C523   H560    1.109   .     S
C523   H540    1.120   .     S
C523   O567    1.422   .     S
C524   O569    1.298   .     A
C524   O571    1.290   .     A
C525   H541    1.109   .     S
C526   H543    1.111   .     S
C526   H545    1.108   .     S
C526   H544    1.110   .     S
C526   C397    1.526   1_655 S
C527   H546    1.111   .     S
C527   O568    1.421   .     S
C527   H547    1.112   .     S
C527   C528    1.534   .     S
C528   C529    1.528   .     S
C528   H164    1.109   1_565 S
C528   H165    1.109   1_565 S
C529   H551    1.111   .     S
C529   H553    1.111   .     S
C529   H168    1.109   1_565 S
C530   C532    1.446   .     S
C530   O572    1.283   .     A
C530   O574    1.297   .     A
C531   O575    1.292   .     A
C531   O573    1.285   .     A
C531   C533    1.440   .     S
C533   C404    1.367   1_655 S
C533   C394    1.486   1_655 S
C534   O567    1.382   .     S
C535   O568    1.385   .     S
C535   C130    1.385   1_565 S
C536   H539    1.084   .     S
C536   C150    1.389   1_565 S
Cu537  O563    1.971   .     S
Cu537  O572    1.977   .     S
Cu537  O575    1.981   .     S
Cu537  O571    1.971   .     S
Cu537  Cu538   2.681   .     S
Cu537  N561    2.015   .     S
Cu538  O574    1.981   .     S
Cu538  O573    1.977   .     S
Cu538  N562    2.015   .     S
Cu538  O569    1.971   .     S
Cu538  O570    1.971   .     S
H542   C141    1.111   1_565 S
H558   O564    1.013   .     S
H559   O566    1.014   .     S
C577   C580    1.452   .     S
C577   O627    1.294   .     A
C577   O634    1.290   .     A
C578   C580    1.395   .     A
C578   H614    1.084   .     S
C578   C983    1.385   1_545 S
C579   C599    1.417   .     A
C579   C588    1.460   .     S
C579   C600    1.400   .     A
C580   C598    1.408   .     A
C581   H618    1.080   .     S
C581   N626    1.367   .     A
C582   H619    1.082   .     S
C582   N625    1.367   .     A
C582   C1160   1.418   .     S
C583   N625    1.367   .     A
C583   H620    1.082   .     S
C583   C1157   1.417   .     S
C584   N626    1.368   .     A
C584   H621    1.082   .     S
C585   O640    1.223   .     D
C585   O628    1.398   .     S
C585   C660    1.490   .     S
C586   O630    1.397   .     S
C586   O629    1.219   .     D
C586   C725    1.486   1_455 S
C587   C589    1.524   .     S
C587   H624    1.109   .     S
C587   H604    1.120   .     S
C587   O631    1.422   .     S
C588   O633    1.298   .     A
C588   O635    1.290   .     A
C589   H605    1.109   .     S
C589   C718    1.526   1_455 S
C589   H990    1.111   1_545 S
C590   H607    1.111   .     S
C590   H609    1.108   .     S
C590   H608    1.110   .     S
C590   C653    1.526   .     S
C591   H610    1.111   .     S
C591   O632    1.421   .     S
C591   H611    1.112   .     S
C591   C592    1.534   .     S
C592   C593    1.528   .     S
C592   H804    1.109   .     S
C592   H805    1.109   .     S
C593   H615    1.111   .     S
C593   H617    1.111   .     S
C593   H808    1.109   .     S
C594   C596    1.446   .     S
C594   O636    1.283   .     A
C594   O638    1.297   .     A
C595   O639    1.292   .     A
C595   O637    1.285   .     A
C595   C597    1.440   .     S
C596   C713    1.490   1_455 S
C596   C725    1.367   1_455 S
C597   C660    1.367   .     S
C597   C650    1.486   .     S
C598   O631    1.382   .     S
C598   C984    1.389   1_545 S
C599   O632    1.385   .     S
C599   C770    1.385   .     S
C600   H603    1.084   .     S
C600   C790    1.389   .     S
Cu601  O627    1.971   .     S
Cu601  O636    1.977   .     S
Cu601  O639    1.981   .     S
Cu601  O635    1.971   .     S
Cu601  Cu602   2.681   .     S
Cu601  N625    2.015   .     S
Cu602  O638    1.981   .     S
Cu602  O637    1.977   .     S
Cu602  N626    2.015   .     S
Cu602  O633    1.971   .     S
Cu602  O634    1.971   .     S
H606   C781    1.111   .     S
H612   C976    1.109   1_545 S
H613   C976    1.109   1_545 S
H616   C977    1.109   1_545 S
H622   O628    1.013   .     S
H623   O630    1.014   .     S
C641   C644    1.452   .     S
C641   O691    1.294   .     A
C641   O698    1.290   .     A
C642   C644    1.395   .     A
C642   H678    1.084   .     S
C642   C1047   1.385   1_545 S
C643   C663    1.417   .     A
C643   C652    1.460   .     S
C643   C664    1.400   .     A
C644   C662    1.408   .     A
C645   H682    1.080   .     S
C645   N690    1.367   .     A
C646   H683    1.082   .     S
C646   N689    1.367   .     A
C646   C1224   1.418   .     S
C647   N689    1.367   .     A
C647   H684    1.082   .     S
C647   C1221   1.417   .     S
C648   N690    1.368   .     A
C648   H685    1.082   .     S
C649   O704    1.223   .     D
C649   O692    1.398   .     S
C649   C724    1.490   .     S
C650   O694    1.397   .     S
C650   O693    1.219   .     D
C651   C653    1.524   .     S
C651   H688    1.109   .     S
C651   H668    1.120   .     S
C651   O695    1.422   .     S
C652   O697    1.298   .     A
C652   O699    1.290   .     A
C653   H669    1.109   .     S
C653   H1054   1.111   1_545 S
C654   H671    1.111   .     S
C654   H673    1.108   .     S
C654   H672    1.110   .     S
C654   C717    1.526   .     S
C655   H674    1.111   .     S
C655   O696    1.421   .     S
C655   H675    1.112   .     S
C655   C656    1.534   .     S
C656   C657    1.528   .     S
C656   H868    1.109   .     S
C656   H869    1.109   .     S
C657   H679    1.111   .     S
C657   H681    1.111   .     S
C657   H872    1.109   .     S
C658   C660    1.446   .     S
C658   O700    1.283   .     A
C658   O702    1.297   .     A
C659   O703    1.292   .     A
C659   O701    1.285   .     A
C659   C661    1.440   .     S
C661   C724    1.367   .     S
C661   C714    1.486   .     S
C662   O695    1.382   .     S
C662   C1048   1.389   1_545 S
C663   O696    1.385   .     S
C663   C834    1.385   .     S
C664   H667    1.084   .     S
C664   C854    1.389   .     S
Cu665  O691    1.971   .     S
Cu665  O700    1.977   .     S
Cu665  O703    1.981   .     S
Cu665  O699    1.971   .     S
Cu665  Cu666   2.681   .     S
Cu665  N689    2.015   .     S
Cu666  O702    1.981   .     S
Cu666  O701    1.977   .     S
Cu666  N690    2.015   .     S
Cu666  O697    1.971   .     S
Cu666  O698    1.971   .     S
H670   C845    1.111   .     S
H676   C1040   1.109   1_545 S
H677   C1040   1.109   1_545 S
H680   C1041   1.109   1_545 S
H686   O692    1.013   .     S
H687   O694    1.014   .     S
C705   C708    1.452   .     S
C705   O755    1.294   .     A
C705   O762    1.290   .     A
C706   C708    1.395   .     A
C706   H742    1.084   .     S
C706   C1111   1.385   1_545 S
C707   C727    1.417   .     A
C707   C716    1.460   .     S
C707   C728    1.400   .     A
C708   C726    1.408   .     A
C709   H746    1.080   .     S
C709   N754    1.367   .     A
C710   H747    1.082   .     S
C710   N753    1.367   .     A
C710   C1288   1.418   .     S
C711   N753    1.367   .     A
C711   H748    1.082   .     S
C711   C1285   1.417   .     S
C712   N754    1.368   .     A
C712   H749    1.082   .     S
C713   O768    1.223   .     D
C713   O756    1.398   .     S
C713   C596    1.490   1_655 S
C714   O758    1.397   .     S
C714   O757    1.219   .     D
C715   C717    1.524   .     S
C715   H752    1.109   .     S
C715   H732    1.120   .     S
C715   O759    1.422   .     S
C716   O761    1.298   .     A
C716   O763    1.290   .     A
C717   H733    1.109   .     S
C717   H1118   1.111   1_545 S
C718   H735    1.111   .     S
C718   H737    1.108   .     S
C718   H736    1.110   .     S
C718   C589    1.526   1_655 S
C719   H738    1.111   .     S
C719   O760    1.421   .     S
C719   H739    1.112   .     S
C719   C720    1.534   .     S
C720   C721    1.528   .     S
C720   H932    1.109   .     S
C720   H933    1.109   .     S
C721   H743    1.111   .     S
C721   H745    1.111   .     S
C721   H936    1.109   .     S
C722   C724    1.446   .     S
C722   O764    1.283   .     A
C722   O766    1.297   .     A
C723   O767    1.292   .     A
C723   O765    1.285   .     A
C723   C725    1.440   .     S
C725   C596    1.367   1_655 S
C725   C586    1.486   1_655 S
C726   O759    1.382   .     S
C726   C1112   1.389   1_545 S
C727   O760    1.385   .     S
C727   C898    1.385   .     S
C728   H731    1.084   .     S
C728   C918    1.389   .     S
Cu729  O755    1.971   .     S
Cu729  O764    1.977   .     S
Cu729  O767    1.981   .     S
Cu729  O763    1.971   .     S
Cu729  Cu730   2.681   .     S
Cu729  N753    2.015   .     S
Cu730  O766    1.981   .     S
Cu730  O765    1.977   .     S
Cu730  N754    2.015   .     S
Cu730  O761    1.971   .     S
Cu730  O762    1.971   .     S
H734   C909    1.111   .     S
H740   C1104   1.109   1_545 S
H741   C1104   1.109   1_545 S
H744   C1105   1.109   1_545 S
H750   O756    1.013   .     S
H751   O758    1.014   .     S
C769   C772    1.452   .     S
C769   O819    1.294   .     A
C769   O826    1.290   .     A
C770   C772    1.395   .     A
C770   H806    1.084   .     S
C771   C791    1.417   .     A
C771   C780    1.460   .     S
C771   C792    1.400   .     A
C772   C790    1.408   .     A
C773   H810    1.080   .     S
C773   N818    1.367   .     A
C774   H811    1.082   .     S
C774   N817    1.367   .     A
C774   C1352   1.418   .     S
C775   N817    1.367   .     A
C775   H812    1.082   .     S
C775   C1349   1.417   .     S
C776   N818    1.368   .     A
C776   H813    1.082   .     S
C777   O832    1.223   .     D
C777   O820    1.398   .     S
C777   C852    1.490   .     S
C778   O822    1.397   .     S
C778   O821    1.219   .     D
C778   C917    1.486   1_455 S
C779   C781    1.524   .     S
C779   H816    1.109   .     S
C779   H796    1.120   .     S
C779   O823    1.422   .     S
C780   O825    1.298   .     A
C780   O827    1.290   .     A
C781   H797    1.109   .     S
C781   C910    1.526   1_455 S
C782   H799    1.111   .     S
C782   H801    1.108   .     S
C782   H800    1.110   .     S
C782   C845    1.526   .     S
C783   H802    1.111   .     S
C783   O824    1.421   .     S
C783   H803    1.112   .     S
C783   C784    1.534   .     S
C784   C785    1.528   .     S
C784   H996    1.109   .     S
C784   H997    1.109   .     S
C785   H807    1.111   .     S
C785   H809    1.111   .     S
C785   H1000   1.109   .     S
C786   C788    1.446   .     S
C786   O828    1.283   .     A
C786   O830    1.297   .     A
C787   O831    1.292   .     A
C787   O829    1.285   .     A
C787   C789    1.440   .     S
C788   C905    1.490   1_455 S
C788   C917    1.367   1_455 S
C789   C852    1.367   .     S
C789   C842    1.486   .     S
C790   O823    1.382   .     S
C791   O824    1.385   .     S
C791   C962    1.385   .     S
C792   H795    1.084   .     S
C792   C982    1.389   .     S
Cu793  O819    1.971   .     S
Cu793  O828    1.977   .     S
Cu793  O831    1.981   .     S
Cu793  O827    1.971   .     S
Cu793  Cu794   2.681   .     S
Cu793  N817    2.015   .     S
Cu794  O830    1.981   .     S
Cu794  O829    1.977   .     S
Cu794  N818    2.015   .     S
Cu794  O825    1.971   .     S
Cu794  O826    1.971   .     S
H798   C973    1.111   .     S
H814   O820    1.013   .     S
H815   O822    1.014   .     S
C833   C836    1.452   .     S
C833   O883    1.294   .     A
C833   O890    1.290   .     A
C834   C836    1.395   .     A
C834   H870    1.084   .     S
C835   C855    1.417   .     A
C835   C844    1.460   .     S
C835   C856    1.400   .     A
C836   C854    1.408   .     A
C837   H874    1.080   .     S
C837   N882    1.367   .     A
C838   H875    1.082   .     S
C838   N881    1.367   .     A
C838   C1416   1.418   .     S
C839   N881    1.367   .     A
C839   H876    1.082   .     S
C839   C1413   1.417   .     S
C840   N882    1.368   .     A
C840   H877    1.082   .     S
C841   O896    1.223   .     D
C841   O884    1.398   .     S
C841   C916    1.490   .     S
C842   O886    1.397   .     S
C842   O885    1.219   .     D
C843   C845    1.524   .     S
C843   H880    1.109   .     S
C843   H860    1.120   .     S
C843   O887    1.422   .     S
C844   O889    1.298   .     A
C844   O891    1.290   .     A
C845   H861    1.109   .     S
C846   H863    1.111   .     S
C846   H865    1.108   .     S
C846   H864    1.110   .     S
C846   C909    1.526   .     S
C847   H866    1.111   .     S
C847   O888    1.421   .     S
C847   H867    1.112   .     S
C847   C848    1.534   .     S
C848   C849    1.528   .     S
C848   H1060   1.109   .     S
C848   H1061   1.109   .     S
C849   H871    1.111   .     S
C849   H873    1.111   .     S
C849   H1064   1.109   .     S
C850   C852    1.446   .     S
C850   O892    1.283   .     A
C850   O894    1.297   .     A
C851   O895    1.292   .     A
C851   O893    1.285   .     A
C851   C853    1.440   .     S
C853   C916    1.367   .     S
C853   C906    1.486   .     S
C854   O887    1.382   .     S
C855   O888    1.385   .     S
C855   C1026   1.385   .     S
C856   H859    1.084   .     S
C856   C1046   1.389   .     S
Cu857  O883    1.971   .     S
Cu857  O892    1.977   .     S
Cu857  O895    1.981   .     S
Cu857  O891    1.971   .     S
Cu857  Cu858   2.681   .     S
Cu857  N881    2.015   .     S
Cu858  O894    1.981   .     S
Cu858  O893    1.977   .     S
Cu858  N882    2.015   .     S
Cu858  O889    1.971   .     S
Cu858  O890    1.971   .     S
H862   C1037   1.111   .     S
H878   O884    1.013   .     S
H879   O886    1.014   .     S
C897   C900    1.452   .     S
C897   O947    1.294   .     A
C897   O954    1.290   .     A
C898   C900    1.395   .     A
C898   H934    1.084   .     S
C899   C919    1.417   .     A
C899   C908    1.460   .     S
C899   C920    1.400   .     A
C900   C918    1.408   .     A
C901   H938    1.080   .     S
C901   N946    1.367   .     A
C902   H939    1.082   .     S
C902   N945    1.367   .     A
C902   C1480   1.418   .     S
C903   N945    1.367   .     A
C903   H940    1.082   .     S
C903   C1477   1.417   .     S
C904   N946    1.368   .     A
C904   H941    1.082   .     S
C905   O960    1.223   .     D
C905   O948    1.398   .     S
C905   C788    1.490   1_655 S
C906   O950    1.397   .     S
C906   O949    1.219   .     D
C907   C909    1.524   .     S
C907   H944    1.109   .     S
C907   H924    1.120   .     S
C907   O951    1.422   .     S
C908   O953    1.298   .     A
C908   O955    1.290   .     A
C909   H925    1.109   .     S
C910   H927    1.111   .     S
C910   H929    1.108   .     S
C910   H928    1.110   .     S
C910   C781    1.526   1_655 S
C911   H930    1.111   .     S
C911   O952    1.421   .     S
C911   H931    1.112   .     S
C911   C912    1.534   .     S
C912   C913    1.528   .     S
C912   H1124   1.109   .     S
C912   H1125   1.109   .     S
C913   H935    1.111   .     S
C913   H937    1.111   .     S
C913   H1128   1.109   .     S
C914   C916    1.446   .     S
C914   O956    1.283   .     A
C914   O958    1.297   .     A
C915   O959    1.292   .     A
C915   O957    1.285   .     A
C915   C917    1.440   .     S
C917   C788    1.367   1_655 S
C917   C778    1.486   1_655 S
C918   O951    1.382   .     S
C919   O952    1.385   .     S
C919   C1090   1.385   .     S
C920   H923    1.084   .     S
C920   C1110   1.389   .     S
Cu921  O947    1.971   .     S
Cu921  O956    1.977   .     S
Cu921  O959    1.981   .     S
Cu921  O955    1.971   .     S
Cu921  Cu922   2.681   .     S
Cu921  N945    2.015   .     S
Cu922  O958    1.981   .     S
Cu922  O957    1.977   .     S
Cu922  N946    2.015   .     S
Cu922  O953    1.971   .     S
Cu922  O954    1.971   .     S
H926   C1101   1.111   .     S
H942   O948    1.013   .     S
H943   O950    1.014   .     S
C961   C964    1.452   .     S
C961   O1011   1.294   .     A
C961   O1018   1.290   .     A
C962   C964    1.395   .     A
C962   H998    1.084   .     S
C963   C983    1.417   .     A
C963   C972    1.460   .     S
C963   C984    1.400   .     A
C964   C982    1.408   .     A
C965   H1002   1.080   .     S
C965   N1010   1.367   .     A
C966   H1003   1.082   .     S
C966   N1009   1.367   .     A
C966   C1544   1.418   .     S
C967   N1009   1.367   .     A
C967   H1004   1.082   .     S
C967   C1541   1.417   .     S
C968   N1010   1.368   .     A
C968   H1005   1.082   .     S
C969   O1024   1.223   .     D
C969   O1012   1.398   .     S
C969   C1044   1.490   .     S
C970   O1014   1.397   .     S
C970   O1013   1.219   .     D
C970   C1109   1.486   1_455 S
C971   C973    1.524   .     S
C971   H1008   1.109   .     S
C971   H988    1.120   .     S
C971   O1015   1.422   .     S
C972   O1017   1.298   .     A
C972   O1019   1.290   .     A
C973   H989    1.109   .     S
C973   C1102   1.526   1_455 S
C974   H991    1.111   .     S
C974   H993    1.108   .     S
C974   H992    1.110   .     S
C974   C1037   1.526   .     S
C975   H994    1.111   .     S
C975   O1016   1.421   .     S
C975   H995    1.112   .     S
C975   C976    1.534   .     S
C976   C977    1.528   .     S
C976   H612    1.109   1_565 S
C976   H613    1.109   1_565 S
C977   H999    1.111   .     S
C977   H1001   1.111   .     S
C977   H616    1.109   1_565 S
C978   C980    1.446   .     S
C978   O1020   1.283   .     A
C978   O1022   1.297   .     A
C979   O1023   1.292   .     A
C979   O1021   1.285   .     A
C979   C981    1.440   .     S
C980   C1097   1.490   1_455 S
C980   C1109   1.367   1_455 S
C981   C1044   1.367   .     S
C981   C1034   1.486   .     S
C982   O1015   1.382   .     S
C983   O1016   1.385   .     S
C983   C578    1.385   1_565 S
C984   H987    1.084   .     S
C984   C598    1.389   1_565 S
Cu985  O1011   1.971   .     S
Cu985  O1020   1.977   .     S
Cu985  O1023   1.981   .     S
Cu985  O1019   1.971   .     S
Cu985  Cu986   2.681   .     S
Cu985  N1009   2.015   .     S
Cu986  O1022   1.981   .     S
Cu986  O1021   1.977   .     S
Cu986  N1010   2.015   .     S
Cu986  O1017   1.971   .     S
Cu986  O1018   1.971   .     S
H990   C589    1.111   1_565 S
H1006  O1012   1.013   .     S
H1007  O1014   1.014   .     S
C1025  C1028   1.452   .     S
C1025  O1075   1.294   .     A
C1025  O1082   1.290   .     A
C1026  C1028   1.395   .     A
C1026  H1062   1.084   .     S
C1027  C1047   1.417   .     A
C1027  C1036   1.460   .     S
C1027  C1048   1.400   .     A
C1028  C1046   1.408   .     A
C1029  H1066   1.080   .     S
C1029  N1074   1.367   .     A
C1030  H1067   1.082   .     S
C1030  N1073   1.367   .     A
C1030  C1608   1.418   .     S
C1031  N1073   1.367   .     A
C1031  H1068   1.082   .     S
C1031  C1605   1.417   .     S
C1032  N1074   1.368   .     A
C1032  H1069   1.082   .     S
C1033  O1088   1.223   .     D
C1033  O1076   1.398   .     S
C1033  C1108   1.490   .     S
C1034  O1078   1.397   .     S
C1034  O1077   1.219   .     D
C1035  C1037   1.524   .     S
C1035  H1072   1.109   .     S
C1035  H1052   1.120   .     S
C1035  O1079   1.422   .     S
C1036  O1081   1.298   .     A
C1036  O1083   1.290   .     A
C1037  H1053   1.109   .     S
C1038  H1055   1.111   .     S
C1038  H1057   1.108   .     S
C1038  H1056   1.110   .     S
C1038  C1101   1.526   .     S
C1039  H1058   1.111   .     S
C1039  O1080   1.421   .     S
C1039  H1059   1.112   .     S
C1039  C1040   1.534   .     S
C1040  C1041   1.528   .     S
C1040  H676    1.109   1_565 S
C1040  H677    1.109   1_565 S
C1041  H1063   1.111   .     S
C1041  H1065   1.111   .     S
C1041  H680    1.109   1_565 S
C1042  C1044   1.446   .     S
C1042  O1084   1.283   .     A
C1042  O1086   1.297   .     A
C1043  O1087   1.292   .     A
C1043  O1085   1.285   .     A
C1043  C1045   1.440   .     S
C1045  C1108   1.367   .     S
C1045  C1098   1.486   .     S
C1046  O1079   1.382   .     S
C1047  O1080   1.385   .     S
C1047  C642    1.385   1_565 S
C1048  H1051   1.084   .     S
C1048  C662    1.389   1_565 S
Cu1049 O1075   1.971   .     S
Cu1049 O1084   1.977   .     S
Cu1049 O1087   1.981   .     S
Cu1049 O1083   1.971   .     S
Cu1049 Cu1050  2.681   .     S
Cu1049 N1073   2.015   .     S
Cu1050 O1086   1.981   .     S
Cu1050 O1085   1.977   .     S
Cu1050 N1074   2.015   .     S
Cu1050 O1081   1.971   .     S
Cu1050 O1082   1.971   .     S
H1054  C653    1.111   1_565 S
H1070  O1076   1.013   .     S
H1071  O1078   1.014   .     S
C1089  C1092   1.452   .     S
C1089  O1139   1.294   .     A
C1089  O1146   1.290   .     A
C1090  C1092   1.395   .     A
C1090  H1126   1.084   .     S
C1091  C1111   1.417   .     A
C1091  C1100   1.460   .     S
C1091  C1112   1.400   .     A
C1092  C1110   1.408   .     A
C1093  H1130   1.080   .     S
C1093  N1138   1.367   .     A
C1094  H1131   1.082   .     S
C1094  N1137   1.367   .     A
C1094  C1672   1.418   .     S
C1095  N1137   1.367   .     A
C1095  H1132   1.082   .     S
C1095  C1669   1.417   .     S
C1096  N1138   1.368   .     A
C1096  H1133   1.082   .     S
C1097  O1152   1.223   .     D
C1097  O1140   1.398   .     S
C1097  C980    1.490   1_655 S
C1098  O1142   1.397   .     S
C1098  O1141   1.219   .     D
C1099  C1101   1.524   .     S
C1099  H1136   1.109   .     S
C1099  H1116   1.120   .     S
C1099  O1143   1.422   .     S
C1100  O1145   1.298   .     A
C1100  O1147   1.290   .     A
C1101  H1117   1.109   .     S
C1102  H1119   1.111   .     S
C1102  H1121   1.108   .     S
C1102  H1120   1.110   .     S
C1102  C973    1.526   1_655 S
C1103  H1122   1.111   .     S
C1103  O1144   1.421   .     S
C1103  H1123   1.112   .     S
C1103  C1104   1.534   .     S
C1104  C1105   1.528   .     S
C1104  H740    1.109   1_565 S
C1104  H741    1.109   1_565 S
C1105  H1127   1.111   .     S
C1105  H1129   1.111   .     S
C1105  H744    1.109   1_565 S
C1106  C1108   1.446   .     S
C1106  O1148   1.283   .     A
C1106  O1150   1.297   .     A
C1107  O1151   1.292   .     A
C1107  O1149   1.285   .     A
C1107  C1109   1.440   .     S
C1109  C980    1.367   1_655 S
C1109  C970    1.486   1_655 S
C1110  O1143   1.382   .     S
C1111  O1144   1.385   .     S
C1111  C706    1.385   1_565 S
C1112  H1115   1.084   .     S
C1112  C726    1.389   1_565 S
Cu1113 O1139   1.971   .     S
Cu1113 O1148   1.977   .     S
Cu1113 O1151   1.981   .     S
Cu1113 O1147   1.971   .     S
Cu1113 Cu1114  2.681   .     S
Cu1113 N1137   2.015   .     S
Cu1114 O1150   1.981   .     S
Cu1114 O1149   1.977   .     S
Cu1114 N1138   2.015   .     S
Cu1114 O1145   1.971   .     S
Cu1114 O1146   1.971   .     S
H1118  C717    1.111   1_565 S
H1134  O1140   1.013   .     S
H1135  O1142   1.014   .     S
C1153  C1156   1.452   .     S
C1153  O1203   1.294   .     A
C1153  O1210   1.290   .     A
C1154  C1156   1.395   .     A
C1154  H1190   1.084   .     S
C1154  C1559   1.385   1_545 S
C1155  C1175   1.417   .     A
C1155  C1164   1.460   .     S
C1155  C1176   1.400   .     A
C1156  C1174   1.408   .     A
C1157  H1194   1.080   .     S
C1157  N1202   1.367   .     A
C1158  H1195   1.082   .     S
C1158  N1201   1.367   .     A
C1158  C8      1.418   1_556 S
C1159  N1201   1.367   .     A
C1159  H1196   1.082   .     S
C1159  C5      1.417   1_556 S
C1160  N1202   1.368   .     A
C1160  H1197   1.082   .     S
C1161  O1216   1.223   .     D
C1161  O1204   1.398   .     S
C1161  C1236   1.490   .     S
C1162  O1206   1.397   .     S
C1162  O1205   1.219   .     D
C1162  C1301   1.486   1_455 S
C1163  C1165   1.524   .     S
C1163  H1200   1.109   .     S
C1163  H1180   1.120   .     S
C1163  O1207   1.422   .     S
C1164  O1209   1.298   .     A
C1164  O1211   1.290   .     A
C1165  H1181   1.109   .     S
C1165  C1294   1.526   1_455 S
C1165  H1566   1.111   1_545 S
C1166  H1183   1.111   .     S
C1166  H1185   1.108   .     S
C1166  H1184   1.110   .     S
C1166  C1229   1.526   .     S
C1167  H1186   1.111   .     S
C1167  O1208   1.421   .     S
C1167  H1187   1.112   .     S
C1167  C1168   1.534   .     S
C1168  C1169   1.528   .     S
C1168  H1380   1.109   .     S
C1168  H1381   1.109   .     S
C1169  H1191   1.111   .     S
C1169  H1193   1.111   .     S
C1169  H1384   1.109   .     S
C1170  C1172   1.446   .     S
C1170  O1212   1.283   .     A
C1170  O1214   1.297   .     A
C1171  O1215   1.292   .     A
C1171  O1213   1.285   .     A
C1171  C1173   1.440   .     S
C1172  C1289   1.490   1_455 S
C1172  C1301   1.367   1_455 S
C1173  C1236   1.367   .     S
C1173  C1226   1.486   .     S
C1174  O1207   1.382   .     S
C1174  C1560   1.389   1_545 S
C1175  O1208   1.385   .     S
C1175  C1346   1.385   .     S
C1176  H1179   1.084   .     S
C1176  C1366   1.389   .     S
Cu1177 O1203   1.971   .     S
Cu1177 O1212   1.977   .     S
Cu1177 O1215   1.981   .     S
Cu1177 O1211   1.971   .     S
Cu1177 Cu1178  2.681   .     S
Cu1177 N1201   2.015   .     S
Cu1178 O1214   1.981   .     S
Cu1178 O1213   1.977   .     S
Cu1178 N1202   2.015   .     S
Cu1178 O1209   1.971   .     S
Cu1178 O1210   1.971   .     S
H1182  C1357   1.111   .     S
H1188  C1552   1.109   1_545 S
H1189  C1552   1.109   1_545 S
H1192  C1553   1.109   1_545 S
H1198  O1204   1.013   .     S
H1199  O1206   1.014   .     S
C1217  C1220   1.452   .     S
C1217  O1267   1.294   .     A
C1217  O1274   1.290   .     A
C1218  C1220   1.395   .     A
C1218  H1254   1.084   .     S
C1218  C1623   1.385   1_545 S
C1219  C1239   1.417   .     A
C1219  C1228   1.460   .     S
C1219  C1240   1.400   .     A
C1220  C1238   1.408   .     A
C1221  H1258   1.080   .     S
C1221  N1266   1.367   .     A
C1222  H1259   1.082   .     S
C1222  N1265   1.367   .     A
C1222  C72     1.418   1_556 S
C1223  N1265   1.367   .     A
C1223  H1260   1.082   .     S
C1223  C69     1.417   1_556 S
C1224  N1266   1.368   .     A
C1224  H1261   1.082   .     S
C1225  O1280   1.223   .     D
C1225  O1268   1.398   .     S
C1225  C1300   1.490   .     S
C1226  O1270   1.397   .     S
C1226  O1269   1.219   .     D
C1227  C1229   1.524   .     S
C1227  H1264   1.109   .     S
C1227  H1244   1.120   .     S
C1227  O1271   1.422   .     S
C1228  O1273   1.298   .     A
C1228  O1275   1.290   .     A
C1229  H1245   1.109   .     S
C1229  H1630   1.111   1_545 S
C1230  H1247   1.111   .     S
C1230  H1249   1.108   .     S
C1230  H1248   1.110   .     S
C1230  C1293   1.526   .     S
C1231  H1250   1.111   .     S
C1231  O1272   1.421   .     S
C1231  H1251   1.112   .     S
C1231  C1232   1.534   .     S
C1232  C1233   1.528   .     S
C1232  H1444   1.109   .     S
C1232  H1445   1.109   .     S
C1233  H1255   1.111   .     S
C1233  H1257   1.111   .     S
C1233  H1448   1.109   .     S
C1234  C1236   1.446   .     S
C1234  O1276   1.283   .     A
C1234  O1278   1.297   .     A
C1235  O1279   1.292   .     A
C1235  O1277   1.285   .     A
C1235  C1237   1.440   .     S
C1237  C1300   1.367   .     S
C1237  C1290   1.486   .     S
C1238  O1271   1.382   .     S
C1238  C1624   1.389   1_545 S
C1239  O1272   1.385   .     S
C1239  C1410   1.385   .     S
C1240  H1243   1.084   .     S
C1240  C1430   1.389   .     S
Cu1241 O1267   1.971   .     S
Cu1241 O1276   1.977   .     S
Cu1241 O1279   1.981   .     S
Cu1241 O1275   1.971   .     S
Cu1241 Cu1242  2.681   .     S
Cu1241 N1265   2.015   .     S
Cu1242 O1278   1.981   .     S
Cu1242 O1277   1.977   .     S
Cu1242 N1266   2.015   .     S
Cu1242 O1273   1.971   .     S
Cu1242 O1274   1.971   .     S
H1246  C1421   1.111   .     S
H1252  C1616   1.109   1_545 S
H1253  C1616   1.109   1_545 S
H1256  C1617   1.109   1_545 S
H1262  O1268   1.013   .     S
H1263  O1270   1.014   .     S
C1281  C1284   1.452   .     S
C1281  O1331   1.294   .     A
C1281  O1338   1.290   .     A
C1282  C1284   1.395   .     A
C1282  H1318   1.084   .     S
C1282  C1687   1.385   1_545 S
C1283  C1303   1.417   .     A
C1283  C1292   1.460   .     S
C1283  C1304   1.400   .     A
C1284  C1302   1.408   .     A
C1285  H1322   1.080   .     S
C1285  N1330   1.367   .     A
C1286  H1323   1.082   .     S
C1286  N1329   1.367   .     A
C1286  C136    1.418   1_556 S
C1287  N1329   1.367   .     A
C1287  H1324   1.082   .     S
C1287  C133    1.417   1_556 S
C1288  N1330   1.368   .     A
C1288  H1325   1.082   .     S
C1289  O1344   1.223   .     D
C1289  O1332   1.398   .     S
C1289  C1172   1.490   1_655 S
C1290  O1334   1.397   .     S
C1290  O1333   1.219   .     D
C1291  C1293   1.524   .     S
C1291  H1328   1.109   .     S
C1291  H1308   1.120   .     S
C1291  O1335   1.422   .     S
C1292  O1337   1.298   .     A
C1292  O1339   1.290   .     A
C1293  H1309   1.109   .     S
C1293  H1694   1.111   1_545 S
C1294  H1311   1.111   .     S
C1294  H1313   1.108   .     S
C1294  H1312   1.110   .     S
C1294  C1165   1.526   1_655 S
C1295  H1314   1.111   .     S
C1295  O1336   1.421   .     S
C1295  H1315   1.112   .     S
C1295  C1296   1.534   .     S
C1296  C1297   1.528   .     S
C1296  H1508   1.109   .     S
C1296  H1509   1.109   .     S
C1297  H1319   1.111   .     S
C1297  H1321   1.111   .     S
C1297  H1512   1.109   .     S
C1298  C1300   1.446   .     S
C1298  O1340   1.283   .     A
C1298  O1342   1.297   .     A
C1299  O1343   1.292   .     A
C1299  O1341   1.285   .     A
C1299  C1301   1.440   .     S
C1301  C1172   1.367   1_655 S
C1301  C1162   1.486   1_655 S
C1302  O1335   1.382   .     S
C1302  C1688   1.389   1_545 S
C1303  O1336   1.385   .     S
C1303  C1474   1.385   .     S
C1304  H1307   1.084   .     S
C1304  C1494   1.389   .     S
Cu1305 O1331   1.971   .     S
Cu1305 O1340   1.977   .     S
Cu1305 O1343   1.981   .     S
Cu1305 O1339   1.971   .     S
Cu1305 Cu1306  2.681   .     S
Cu1305 N1329   2.015   .     S
Cu1306 O1342   1.981   .     S
Cu1306 O1341   1.977   .     S
Cu1306 N1330   2.015   .     S
Cu1306 O1337   1.971   .     S
Cu1306 O1338   1.971   .     S
H1310  C1485   1.111   .     S
H1316  C1680   1.109   1_545 S
H1317  C1680   1.109   1_545 S
H1320  C1681   1.109   1_545 S
H1326  O1332   1.013   .     S
H1327  O1334   1.014   .     S
C1345  C1348   1.452   .     S
C1345  O1395   1.294   .     A
C1345  O1402   1.290   .     A
C1346  C1348   1.395   .     A
C1346  H1382   1.084   .     S
C1347  C1367   1.417   .     A
C1347  C1356   1.460   .     S
C1347  C1368   1.400   .     A
C1348  C1366   1.408   .     A
C1349  H1386   1.080   .     S
C1349  N1394   1.367   .     A
C1350  H1387   1.082   .     S
C1350  N1393   1.367   .     A
C1350  C200    1.418   1_556 S
C1351  N1393   1.367   .     A
C1351  H1388   1.082   .     S
C1351  C197    1.417   1_556 S
C1352  N1394   1.368   .     A
C1352  H1389   1.082   .     S
C1353  O1408   1.223   .     D
C1353  O1396   1.398   .     S
C1353  C1428   1.490   .     S
C1354  O1398   1.397   .     S
C1354  O1397   1.219   .     D
C1354  C1493   1.486   1_455 S
C1355  C1357   1.524   .     S
C1355  H1392   1.109   .     S
C1355  H1372   1.120   .     S
C1355  O1399   1.422   .     S
C1356  O1401   1.298   .     A
C1356  O1403   1.290   .     A
C1357  H1373   1.109   .     S
C1357  C1486   1.526   1_455 S
C1358  H1375   1.111   .     S
C1358  H1377   1.108   .     S
C1358  H1376   1.110   .     S
C1358  C1421   1.526   .     S
C1359  H1378   1.111   .     S
C1359  O1400   1.421   .     S
C1359  H1379   1.112   .     S
C1359  C1360   1.534   .     S
C1360  C1361   1.528   .     S
C1360  H1572   1.109   .     S
C1360  H1573   1.109   .     S
C1361  H1383   1.111   .     S
C1361  H1385   1.111   .     S
C1361  H1576   1.109   .     S
C1362  C1364   1.446   .     S
C1362  O1404   1.283   .     A
C1362  O1406   1.297   .     A
C1363  O1407   1.292   .     A
C1363  O1405   1.285   .     A
C1363  C1365   1.440   .     S
C1364  C1481   1.490   1_455 S
C1364  C1493   1.367   1_455 S
C1365  C1428   1.367   .     S
C1365  C1418   1.486   .     S
C1366  O1399   1.382   .     S
C1367  O1400   1.385   .     S
C1367  C1538   1.385   .     S
C1368  H1371   1.084   .     S
C1368  C1558   1.389   .     S
Cu1369 O1395   1.971   .     S
Cu1369 O1404   1.977   .     S
Cu1369 O1407   1.981   .     S
Cu1369 O1403   1.971   .     S
Cu1369 Cu1370  2.681   .     S
Cu1369 N1393   2.015   .     S
Cu1370 O1406   1.981   .     S
Cu1370 O1405   1.977   .     S
Cu1370 N1394   2.015   .     S
Cu1370 O1401   1.971   .     S
Cu1370 O1402   1.971   .     S
H1374  C1549   1.111   .     S
H1390  O1396   1.013   .     S
H1391  O1398   1.014   .     S
C1409  C1412   1.452   .     S
C1409  O1459   1.294   .     A
C1409  O1466   1.290   .     A
C1410  C1412   1.395   .     A
C1410  H1446   1.084   .     S
C1411  C1431   1.417   .     A
C1411  C1420   1.460   .     S
C1411  C1432   1.400   .     A
C1412  C1430   1.408   .     A
C1413  H1450   1.080   .     S
C1413  N1458   1.367   .     A
C1414  H1451   1.082   .     S
C1414  N1457   1.367   .     A
C1414  C264    1.418   1_556 S
C1415  N1457   1.367   .     A
C1415  H1452   1.082   .     S
C1415  C261    1.417   1_556 S
C1416  N1458   1.368   .     A
C1416  H1453   1.082   .     S
C1417  O1472   1.223   .     D
C1417  O1460   1.398   .     S
C1417  C1492   1.490   .     S
C1418  O1462   1.397   .     S
C1418  O1461   1.219   .     D
C1419  C1421   1.524   .     S
C1419  H1456   1.109   .     S
C1419  H1436   1.120   .     S
C1419  O1463   1.422   .     S
C1420  O1465   1.298   .     A
C1420  O1467   1.290   .     A
C1421  H1437   1.109   .     S
C1422  H1439   1.111   .     S
C1422  H1441   1.108   .     S
C1422  H1440   1.110   .     S
C1422  C1485   1.526   .     S
C1423  H1442   1.111   .     S
C1423  O1464   1.421   .     S
C1423  H1443   1.112   .     S
C1423  C1424   1.534   .     S
C1424  C1425   1.528   .     S
C1424  H1636   1.109   .     S
C1424  H1637   1.109   .     S
C1425  H1447   1.111   .     S
C1425  H1449   1.111   .     S
C1425  H1640   1.109   .     S
C1426  C1428   1.446   .     S
C1426  O1468   1.283   .     A
C1426  O1470   1.297   .     A
C1427  O1471   1.292   .     A
C1427  O1469   1.285   .     A
C1427  C1429   1.440   .     S
C1429  C1492   1.367   .     S
C1429  C1482   1.486   .     S
C1430  O1463   1.382   .     S
C1431  O1464   1.385   .     S
C1431  C1602   1.385   .     S
C1432  H1435   1.084   .     S
C1432  C1622   1.389   .     S
Cu1433 O1459   1.971   .     S
Cu1433 O1468   1.977   .     S
Cu1433 O1471   1.981   .     S
Cu1433 O1467   1.971   .     S
Cu1433 Cu1434  2.681   .     S
Cu1433 N1457   2.015   .     S
Cu1434 O1470   1.981   .     S
Cu1434 O1469   1.977   .     S
Cu1434 N1458   2.015   .     S
Cu1434 O1465   1.971   .     S
Cu1434 O1466   1.971   .     S
H1438  C1613   1.111   .     S
H1454  O1460   1.013   .     S
H1455  O1462   1.014   .     S
C1473  C1476   1.452   .     S
C1473  O1523   1.294   .     A
C1473  O1530   1.290   .     A
C1474  C1476   1.395   .     A
C1474  H1510   1.084   .     S
C1475  C1495   1.417   .     A
C1475  C1484   1.460   .     S
C1475  C1496   1.400   .     A
C1476  C1494   1.408   .     A
C1477  H1514   1.080   .     S
C1477  N1522   1.367   .     A
C1478  H1515   1.082   .     S
C1478  N1521   1.367   .     A
C1478  C328    1.418   1_556 S
C1479  N1521   1.367   .     A
C1479  H1516   1.082   .     S
C1479  C325    1.417   1_556 S
C1480  N1522   1.368   .     A
C1480  H1517   1.082   .     S
C1481  O1536   1.223   .     D
C1481  O1524   1.398   .     S
C1481  C1364   1.490   1_655 S
C1482  O1526   1.397   .     S
C1482  O1525   1.219   .     D
C1483  C1485   1.524   .     S
C1483  H1520   1.109   .     S
C1483  H1500   1.120   .     S
C1483  O1527   1.422   .     S
C1484  O1529   1.298   .     A
C1484  O1531   1.290   .     A
C1485  H1501   1.109   .     S
C1486  H1503   1.111   .     S
C1486  H1505   1.108   .     S
C1486  H1504   1.110   .     S
C1486  C1357   1.526   1_655 S
C1487  H1506   1.111   .     S
C1487  O1528   1.421   .     S
C1487  H1507   1.112   .     S
C1487  C1488   1.534   .     S
C1488  C1489   1.528   .     S
C1488  H1700   1.109   .     S
C1488  H1701   1.109   .     S
C1489  H1511   1.111   .     S
C1489  H1513   1.111   .     S
C1489  H1704   1.109   .     S
C1490  C1492   1.446   .     S
C1490  O1532   1.283   .     A
C1490  O1534   1.297   .     A
C1491  O1535   1.292   .     A
C1491  O1533   1.285   .     A
C1491  C1493   1.440   .     S
C1493  C1364   1.367   1_655 S
C1493  C1354   1.486   1_655 S
C1494  O1527   1.382   .     S
C1495  O1528   1.385   .     S
C1495  C1666   1.385   .     S
C1496  H1499   1.084   .     S
C1496  C1686   1.389   .     S
Cu1497 O1523   1.971   .     S
Cu1497 O1532   1.977   .     S
Cu1497 O1535   1.981   .     S
Cu1497 O1531   1.971   .     S
Cu1497 Cu1498  2.681   .     S
Cu1497 N1521   2.015   .     S
Cu1498 O1534   1.981   .     S
Cu1498 O1533   1.977   .     S
Cu1498 N1522   2.015   .     S
Cu1498 O1529   1.971   .     S
Cu1498 O1530   1.971   .     S
H1502  C1677   1.111   .     S
H1518  O1524   1.013   .     S
H1519  O1526   1.014   .     S
C1537  C1540   1.452   .     S
C1537  O1587   1.294   .     A
C1537  O1594   1.290   .     A
C1538  C1540   1.395   .     A
C1538  H1574   1.084   .     S
C1539  C1559   1.417   .     A
C1539  C1548   1.460   .     S
C1539  C1560   1.400   .     A
C1540  C1558   1.408   .     A
C1541  H1578   1.080   .     S
C1541  N1586   1.367   .     A
C1542  H1579   1.082   .     S
C1542  N1585   1.367   .     A
C1542  C392    1.418   1_556 S
C1543  N1585   1.367   .     A
C1543  H1580   1.082   .     S
C1543  C389    1.417   1_556 S
C1544  N1586   1.368   .     A
C1544  H1581   1.082   .     S
C1545  O1600   1.223   .     D
C1545  O1588   1.398   .     S
C1545  C1620   1.490   .     S
C1546  O1590   1.397   .     S
C1546  O1589   1.219   .     D
C1546  C1685   1.486   1_455 S
C1547  C1549   1.524   .     S
C1547  H1584   1.109   .     S
C1547  H1564   1.120   .     S
C1547  O1591   1.422   .     S
C1548  O1593   1.298   .     A
C1548  O1595   1.290   .     A
C1549  H1565   1.109   .     S
C1549  C1678   1.526   1_455 S
C1550  H1567   1.111   .     S
C1550  H1569   1.108   .     S
C1550  H1568   1.110   .     S
C1550  C1613   1.526   .     S
C1551  H1570   1.111   .     S
C1551  O1592   1.421   .     S
C1551  H1571   1.112   .     S
C1551  C1552   1.534   .     S
C1552  C1553   1.528   .     S
C1552  H1188   1.109   1_565 S
C1552  H1189   1.109   1_565 S
C1553  H1575   1.111   .     S
C1553  H1577   1.111   .     S
C1553  H1192   1.109   1_565 S
C1554  C1556   1.446   .     S
C1554  O1596   1.283   .     A
C1554  O1598   1.297   .     A
C1555  O1599   1.292   .     A
C1555  O1597   1.285   .     A
C1555  C1557   1.440   .     S
C1556  C1673   1.490   1_455 S
C1556  C1685   1.367   1_455 S
C1557  C1620   1.367   .     S
C1557  C1610   1.486   .     S
C1558  O1591   1.382   .     S
C1559  O1592   1.385   .     S
C1559  C1154   1.385   1_565 S
C1560  H1563   1.084   .     S
C1560  C1174   1.389   1_565 S
Cu1561 O1587   1.971   .     S
Cu1561 O1596   1.977   .     S
Cu1561 O1599   1.981   .     S
Cu1561 O1595   1.971   .     S
Cu1561 Cu1562  2.681   .     S
Cu1561 N1585   2.015   .     S
Cu1562 O1598   1.981   .     S
Cu1562 O1597   1.977   .     S
Cu1562 N1586   2.015   .     S
Cu1562 O1593   1.971   .     S
Cu1562 O1594   1.971   .     S
H1566  C1165   1.111   1_565 S
H1582  O1588   1.013   .     S
H1583  O1590   1.014   .     S
C1601  C1604   1.452   .     S
C1601  O1651   1.294   .     A
C1601  O1658   1.290   .     A
C1602  C1604   1.395   .     A
C1602  H1638   1.084   .     S
C1603  C1623   1.417   .     A
C1603  C1612   1.460   .     S
C1603  C1624   1.400   .     A
C1604  C1622   1.408   .     A
C1605  H1642   1.080   .     S
C1605  N1650   1.367   .     A
C1606  H1643   1.082   .     S
C1606  N1649   1.367   .     A
C1606  C456    1.418   1_556 S
C1607  N1649   1.367   .     A
C1607  H1644   1.082   .     S
C1607  C453    1.417   1_556 S
C1608  N1650   1.368   .     A
C1608  H1645   1.082   .     S
C1609  O1664   1.223   .     D
C1609  O1652   1.398   .     S
C1609  C1684   1.490   .     S
C1610  O1654   1.397   .     S
C1610  O1653   1.219   .     D
C1611  C1613   1.524   .     S
C1611  H1648   1.109   .     S
C1611  H1628   1.120   .     S
C1611  O1655   1.422   .     S
C1612  O1657   1.298   .     A
C1612  O1659   1.290   .     A
C1613  H1629   1.109   .     S
C1614  H1631   1.111   .     S
C1614  H1633   1.108   .     S
C1614  H1632   1.110   .     S
C1614  C1677   1.526   .     S
C1615  H1634   1.111   .     S
C1615  O1656   1.421   .     S
C1615  H1635   1.112   .     S
C1615  C1616   1.534   .     S
C1616  C1617   1.528   .     S
C1616  H1252   1.109   1_565 S
C1616  H1253   1.109   1_565 S
C1617  H1639   1.111   .     S
C1617  H1641   1.111   .     S
C1617  H1256   1.109   1_565 S
C1618  C1620   1.446   .     S
C1618  O1660   1.283   .     A
C1618  O1662   1.297   .     A
C1619  O1663   1.292   .     A
C1619  O1661   1.285   .     A
C1619  C1621   1.440   .     S
C1621  C1684   1.367   .     S
C1621  C1674   1.486   .     S
C1622  O1655   1.382   .     S
C1623  O1656   1.385   .     S
C1623  C1218   1.385   1_565 S
C1624  H1627   1.084   .     S
C1624  C1238   1.389   1_565 S
Cu1625 O1651   1.971   .     S
Cu1625 O1660   1.977   .     S
Cu1625 O1663   1.981   .     S
Cu1625 O1659   1.971   .     S
Cu1625 Cu1626  2.681   .     S
Cu1625 N1649   2.015   .     S
Cu1626 O1662   1.981   .     S
Cu1626 O1661   1.977   .     S
Cu1626 N1650   2.015   .     S
Cu1626 O1657   1.971   .     S
Cu1626 O1658   1.971   .     S
H1630  C1229   1.111   1_565 S
H1646  O1652   1.013   .     S
H1647  O1654   1.014   .     S
C1665  C1668   1.452   .     S
C1665  O1715   1.294   .     A
C1665  O1722   1.290   .     A
C1666  C1668   1.395   .     A
C1666  H1702   1.084   .     S
C1667  C1687   1.417   .     A
C1667  C1676   1.460   .     S
C1667  C1688   1.400   .     A
C1668  C1686   1.408   .     A
C1669  H1706   1.080   .     S
C1669  N1714   1.367   .     A
C1670  H1707   1.082   .     S
C1670  N1713   1.367   .     A
C1670  C520    1.418   1_556 S
C1671  N1713   1.367   .     A
C1671  H1708   1.082   .     S
C1671  C517    1.417   1_556 S
C1672  N1714   1.368   .     A
C1672  H1709   1.082   .     S
C1673  O1728   1.223   .     D
C1673  O1716   1.398   .     S
C1673  C1556   1.490   1_655 S
C1674  O1718   1.397   .     S
C1674  O1717   1.219   .     D
C1675  C1677   1.524   .     S
C1675  H1712   1.109   .     S
C1675  H1692   1.120   .     S
C1675  O1719   1.422   .     S
C1676  O1721   1.298   .     A
C1676  O1723   1.290   .     A
C1677  H1693   1.109   .     S
C1678  H1695   1.111   .     S
C1678  H1697   1.108   .     S
C1678  H1696   1.110   .     S
C1678  C1549   1.526   1_655 S
C1679  H1698   1.111   .     S
C1679  O1720   1.421   .     S
C1679  H1699   1.112   .     S
C1679  C1680   1.534   .     S
C1680  C1681   1.528   .     S
C1680  H1316   1.109   1_565 S
C1680  H1317   1.109   1_565 S
C1681  H1703   1.111   .     S
C1681  H1705   1.111   .     S
C1681  H1320   1.109   1_565 S
C1682  C1684   1.446   .     S
C1682  O1724   1.283   .     A
C1682  O1726   1.297   .     A
C1683  O1727   1.292   .     A
C1683  O1725   1.285   .     A
C1683  C1685   1.440   .     S
C1685  C1556   1.367   1_655 S
C1685  C1546   1.486   1_655 S
C1686  O1719   1.382   .     S
C1687  O1720   1.385   .     S
C1687  C1282   1.385   1_565 S
C1688  H1691   1.084   .     S
C1688  C1302   1.389   1_565 S
Cu1689 O1715   1.971   .     S
Cu1689 O1724   1.977   .     S
Cu1689 O1727   1.981   .     S
Cu1689 O1723   1.971   .     S
Cu1689 Cu1690  2.681   .     S
Cu1689 N1713   2.015   .     S
Cu1690 O1726   1.981   .     S
Cu1690 O1725   1.977   .     S
Cu1690 N1714   2.015   .     S
Cu1690 O1721   1.971   .     S
Cu1690 O1722   1.971   .     S
H1694  C1293   1.111   1_565 S
H1710  O1716   1.013   .     S
H1711  O1718   1.014   .     S
