data_str_m2_o5_o17_pcu_sym.3
_audit_creation_date              2020-01-03
_audit_creation_method            'Materials Studio'
_symmetry_space_group_name_H-M    'P1'
_symmetry_Int_Tables_number       1
_symmetry_cell_setting            triclinic
loop_
_symmetry_equiv_pos_as_xyz
  x,y,z
_cell_length_a                    30.2597
_cell_length_b                    27.2950
_cell_length_c                    23.3326
_cell_angle_alpha                 90.0415
_cell_angle_beta                  89.9999
_cell_angle_gamma                 90.0001
loop_
_atom_site_label
_atom_site_type_symbol
_atom_site_fract_x
_atom_site_fract_y
_atom_site_fract_z
_atom_site_U_iso_or_equiv
_atom_site_adp_type
_atom_site_occupancy
O1     O     0.25000   0.09613   0.21425   0.00000  Uiso   1.00
O2     O     0.25000   0.23720   0.11908   0.00000  Uiso   1.00
O3     O     0.25000   0.23720   0.21425   0.00000  Uiso   1.00
O4     O     0.25000   0.09613   0.11908   0.00000  Uiso   1.00
H5     H     0.45987   0.12238   0.30230   0.00000  Uiso   1.00
H6     H     0.04013   0.21096   0.03104   0.00000  Uiso   1.00
H7     H     0.45987   0.21096   0.03104   0.00000  Uiso   1.00
H8     H     0.04013   0.12238   0.30230   0.00000  Uiso   1.00
C9     C     0.25000   0.07333   0.16665   0.00000  Uiso   1.00
C10    C     0.25000   0.26000   0.16668   0.00000  Uiso   1.00
O11    O     0.18513   0.16667   0.21427   0.00000  Uiso   1.00
O12    O     0.31487   0.16667   0.11907   0.00000  Uiso   1.00
O13    O     0.31487   0.16667   0.21427   0.00000  Uiso   1.00
O14    O     0.18513   0.16667   0.11907   0.00000  Uiso   1.00
C15    C     0.16407   0.16667   0.16667   0.00000  Uiso   1.00
C16    C     0.33592   0.16667   0.16667   0.00000  Uiso   1.00
Cu17   Cu    0.25000   0.16667   0.22303   0.00000  Uiso   1.00
Cu18   Cu    0.25000   0.16667   0.11031   0.00000  Uiso   1.00
N19    N     0.25000   0.16667   0.02561   0.00000  Uiso   1.00
N20    N     0.25000   0.16667   0.30773   0.00000  Uiso   1.00
C21    C     0.40748   0.18263   0.11784   0.00000  Uiso   1.00
C22    C     0.09252   0.15070   0.21550   0.00000  Uiso   1.00
C23    C     0.40748   0.15070   0.21550   0.00000  Uiso   1.00
C24    C     0.09252   0.18263   0.11784   0.00000  Uiso   1.00
C25    C     0.38430   0.16667   0.16667   0.00000  Uiso   1.00
C26    C     0.11570   0.16667   0.16667   0.00000  Uiso   1.00
C27    C     0.45361   0.15068   0.21575   0.00000  Uiso   1.00
C28    C     0.04639   0.18265   0.11758   0.00000  Uiso   1.00
C29    C     0.45361   0.18265   0.11758   0.00000  Uiso   1.00
C30    C     0.04639   0.15068   0.21575   0.00000  Uiso   1.00
C31    C     0.47678   0.16667   0.16667   0.00000  Uiso   1.00
C32    C     0.02322   0.16667   0.16667   0.00000  Uiso   1.00
C33    C     0.47701   0.13480   0.26421   0.00000  Uiso   1.00
C34    C     0.02299   0.19853   0.06913   0.00000  Uiso   1.00
C35    C     0.47701   0.19853   0.06913   0.00000  Uiso   1.00
C36    C     0.02299   0.13480   0.26421   0.00000  Uiso   1.00
C37    C     0.25000   0.02179   0.16665   0.00000  Uiso   1.00
C38    C     0.25000   0.31155   0.16668   0.00000  Uiso   1.00
F39    F     0.38525   0.19905   0.07091   0.00000  Uiso   1.00
F40    F     0.11475   0.13428   0.26242   0.00000  Uiso   1.00
F41    F     0.38525   0.13428   0.26242   0.00000  Uiso   1.00
F42    F     0.11475   0.19905   0.07091   0.00000  Uiso   1.00
O43    O     0.75000   0.09613   0.21425   0.00000  Uiso   1.00
O44    O     0.75000   0.23720   0.11908   0.00000  Uiso   1.00
O45    O     0.75000   0.23720   0.21425   0.00000  Uiso   1.00
O46    O     0.75000   0.09613   0.11908   0.00000  Uiso   1.00
H47    H     0.95987   0.12238   0.30230   0.00000  Uiso   1.00
H48    H     0.54013   0.21096   0.03104   0.00000  Uiso   1.00
H49    H     0.95987   0.21096   0.03104   0.00000  Uiso   1.00
H50    H     0.54013   0.12238   0.30230   0.00000  Uiso   1.00
C51    C     0.75000   0.07333   0.16665   0.00000  Uiso   1.00
C52    C     0.75000   0.26000   0.16668   0.00000  Uiso   1.00
O53    O     0.68513   0.16667   0.21427   0.00000  Uiso   1.00
O54    O     0.81487   0.16667   0.11907   0.00000  Uiso   1.00
O55    O     0.81487   0.16667   0.21427   0.00000  Uiso   1.00
O56    O     0.68513   0.16667   0.11907   0.00000  Uiso   1.00
C57    C     0.66407   0.16667   0.16667   0.00000  Uiso   1.00
C58    C     0.83592   0.16667   0.16667   0.00000  Uiso   1.00
Cu59   Cu    0.75000   0.16667   0.22303   0.00000  Uiso   1.00
Cu60   Cu    0.75000   0.16667   0.11031   0.00000  Uiso   1.00
N61    N     0.75000   0.16667   0.02561   0.00000  Uiso   1.00
N62    N     0.75000   0.16667   0.30773   0.00000  Uiso   1.00
C63    C     0.90748   0.18263   0.11784   0.00000  Uiso   1.00
C64    C     0.59252   0.15070   0.21550   0.00000  Uiso   1.00
C65    C     0.90748   0.15070   0.21550   0.00000  Uiso   1.00
C66    C     0.59252   0.18263   0.11784   0.00000  Uiso   1.00
C67    C     0.88430   0.16667   0.16667   0.00000  Uiso   1.00
C68    C     0.61570   0.16667   0.16667   0.00000  Uiso   1.00
C69    C     0.95361   0.15068   0.21575   0.00000  Uiso   1.00
C70    C     0.54639   0.18265   0.11758   0.00000  Uiso   1.00
C71    C     0.95361   0.18265   0.11758   0.00000  Uiso   1.00
C72    C     0.54639   0.15068   0.21575   0.00000  Uiso   1.00
C73    C     0.97678   0.16667   0.16667   0.00000  Uiso   1.00
C74    C     0.52322   0.16667   0.16667   0.00000  Uiso   1.00
C75    C     0.97701   0.13480   0.26421   0.00000  Uiso   1.00
C76    C     0.52299   0.19853   0.06913   0.00000  Uiso   1.00
C77    C     0.97701   0.19853   0.06913   0.00000  Uiso   1.00
C78    C     0.52299   0.13480   0.26421   0.00000  Uiso   1.00
C79    C     0.75000   0.02179   0.16665   0.00000  Uiso   1.00
C80    C     0.75000   0.31155   0.16668   0.00000  Uiso   1.00
F81    F     0.88525   0.19905   0.07091   0.00000  Uiso   1.00
F82    F     0.61475   0.13428   0.26242   0.00000  Uiso   1.00
F83    F     0.88525   0.13428   0.26242   0.00000  Uiso   1.00
F84    F     0.61475   0.19905   0.07091   0.00000  Uiso   1.00
O85    O     0.25000   0.42946   0.21425   0.00000  Uiso   1.00
O86    O     0.25000   0.57054   0.11908   0.00000  Uiso   1.00
O87    O     0.25000   0.57054   0.21425   0.00000  Uiso   1.00
O88    O     0.25000   0.42946   0.11908   0.00000  Uiso   1.00
H89    H     0.45987   0.45571   0.30230   0.00000  Uiso   1.00
H90    H     0.04013   0.54429   0.03104   0.00000  Uiso   1.00
H91    H     0.45987   0.54429   0.03104   0.00000  Uiso   1.00
H92    H     0.04013   0.45571   0.30230   0.00000  Uiso   1.00
C93    C     0.25000   0.40666   0.16665   0.00000  Uiso   1.00
C94    C     0.25000   0.59334   0.16668   0.00000  Uiso   1.00
O95    O     0.18513   0.50000   0.21427   0.00000  Uiso   1.00
O96    O     0.31487   0.50000   0.11907   0.00000  Uiso   1.00
O97    O     0.31487   0.50000   0.21427   0.00000  Uiso   1.00
O98    O     0.18513   0.50000   0.11907   0.00000  Uiso   1.00
C99    C     0.16407   0.50000   0.16667   0.00000  Uiso   1.00
C100   C     0.33592   0.50000   0.16667   0.00000  Uiso   1.00
Cu101  Cu    0.25000   0.50000   0.22303   0.00000  Uiso   1.00
Cu102  Cu    0.25000   0.50000   0.11031   0.00000  Uiso   1.00
N103   N     0.25000   0.50000   0.02561   0.00000  Uiso   1.00
N104   N     0.25000   0.50000   0.30773   0.00000  Uiso   1.00
C105   C     0.40748   0.51596   0.11784   0.00000  Uiso   1.00
C106   C     0.09252   0.48404   0.21550   0.00000  Uiso   1.00
C107   C     0.40748   0.48404   0.21550   0.00000  Uiso   1.00
C108   C     0.09252   0.51596   0.11784   0.00000  Uiso   1.00
C109   C     0.38430   0.50000   0.16667   0.00000  Uiso   1.00
C110   C     0.11570   0.50000   0.16667   0.00000  Uiso   1.00
C111   C     0.45361   0.48402   0.21575   0.00000  Uiso   1.00
C112   C     0.04639   0.51598   0.11758   0.00000  Uiso   1.00
C113   C     0.45361   0.51598   0.11758   0.00000  Uiso   1.00
C114   C     0.04639   0.48402   0.21575   0.00000  Uiso   1.00
C115   C     0.47678   0.50000   0.16667   0.00000  Uiso   1.00
C116   C     0.02322   0.50000   0.16667   0.00000  Uiso   1.00
C117   C     0.47701   0.46814   0.26421   0.00000  Uiso   1.00
C118   C     0.02299   0.53186   0.06913   0.00000  Uiso   1.00
C119   C     0.47701   0.53186   0.06913   0.00000  Uiso   1.00
C120   C     0.02299   0.46814   0.26421   0.00000  Uiso   1.00
C121   C     0.25000   0.35512   0.16665   0.00000  Uiso   1.00
C122   C     0.25000   0.64488   0.16668   0.00000  Uiso   1.00
F123   F     0.38525   0.53238   0.07091   0.00000  Uiso   1.00
F124   F     0.11475   0.46762   0.26242   0.00000  Uiso   1.00
F125   F     0.38525   0.46762   0.26242   0.00000  Uiso   1.00
F126   F     0.11475   0.53238   0.07091   0.00000  Uiso   1.00
O127   O     0.75000   0.42946   0.21425   0.00000  Uiso   1.00
O128   O     0.75000   0.57054   0.11908   0.00000  Uiso   1.00
O129   O     0.75000   0.57054   0.21425   0.00000  Uiso   1.00
O130   O     0.75000   0.42946   0.11908   0.00000  Uiso   1.00
H131   H     0.95987   0.45571   0.30230   0.00000  Uiso   1.00
H132   H     0.54013   0.54429   0.03104   0.00000  Uiso   1.00
H133   H     0.95987   0.54429   0.03104   0.00000  Uiso   1.00
H134   H     0.54013   0.45571   0.30230   0.00000  Uiso   1.00
C135   C     0.75000   0.40666   0.16665   0.00000  Uiso   1.00
C136   C     0.75000   0.59334   0.16668   0.00000  Uiso   1.00
O137   O     0.68513   0.50000   0.21427   0.00000  Uiso   1.00
O138   O     0.81487   0.50000   0.11907   0.00000  Uiso   1.00
O139   O     0.81487   0.50000   0.21427   0.00000  Uiso   1.00
O140   O     0.68513   0.50000   0.11907   0.00000  Uiso   1.00
C141   C     0.66407   0.50000   0.16667   0.00000  Uiso   1.00
C142   C     0.83592   0.50000   0.16667   0.00000  Uiso   1.00
Cu143  Cu    0.75000   0.50000   0.22303   0.00000  Uiso   1.00
Cu144  Cu    0.75000   0.50000   0.11031   0.00000  Uiso   1.00
N145   N     0.75000   0.50000   0.02561   0.00000  Uiso   1.00
N146   N     0.75000   0.50000   0.30773   0.00000  Uiso   1.00
C147   C     0.90748   0.51596   0.11784   0.00000  Uiso   1.00
C148   C     0.59252   0.48404   0.21550   0.00000  Uiso   1.00
C149   C     0.90748   0.48404   0.21550   0.00000  Uiso   1.00
C150   C     0.59252   0.51596   0.11784   0.00000  Uiso   1.00
C151   C     0.88430   0.50000   0.16667   0.00000  Uiso   1.00
C152   C     0.61570   0.50000   0.16667   0.00000  Uiso   1.00
C153   C     0.95361   0.48402   0.21575   0.00000  Uiso   1.00
C154   C     0.54639   0.51598   0.11758   0.00000  Uiso   1.00
C155   C     0.95361   0.51598   0.11758   0.00000  Uiso   1.00
C156   C     0.54639   0.48402   0.21575   0.00000  Uiso   1.00
C157   C     0.97678   0.50000   0.16667   0.00000  Uiso   1.00
C158   C     0.52322   0.50000   0.16667   0.00000  Uiso   1.00
C159   C     0.97701   0.46814   0.26421   0.00000  Uiso   1.00
C160   C     0.52299   0.53186   0.06913   0.00000  Uiso   1.00
C161   C     0.97701   0.53186   0.06913   0.00000  Uiso   1.00
C162   C     0.52299   0.46814   0.26421   0.00000  Uiso   1.00
C163   C     0.75000   0.35512   0.16665   0.00000  Uiso   1.00
C164   C     0.75000   0.64488   0.16668   0.00000  Uiso   1.00
F165   F     0.88525   0.53238   0.07091   0.00000  Uiso   1.00
F166   F     0.61475   0.46762   0.26242   0.00000  Uiso   1.00
F167   F     0.88525   0.46762   0.26242   0.00000  Uiso   1.00
F168   F     0.61475   0.53238   0.07091   0.00000  Uiso   1.00
O169   O     0.25000   0.76280   0.21425   0.00000  Uiso   1.00
O170   O     0.25000   0.90387   0.11908   0.00000  Uiso   1.00
O171   O     0.25000   0.90387   0.21425   0.00000  Uiso   1.00
O172   O     0.25000   0.76280   0.11908   0.00000  Uiso   1.00
H173   H     0.45987   0.78904   0.30230   0.00000  Uiso   1.00
H174   H     0.04013   0.87762   0.03104   0.00000  Uiso   1.00
H175   H     0.45987   0.87762   0.03104   0.00000  Uiso   1.00
H176   H     0.04013   0.78904   0.30230   0.00000  Uiso   1.00
C177   C     0.25000   0.74000   0.16665   0.00000  Uiso   1.00
C178   C     0.25000   0.92667   0.16668   0.00000  Uiso   1.00
O179   O     0.18513   0.83333   0.21427   0.00000  Uiso   1.00
O180   O     0.31487   0.83333   0.11907   0.00000  Uiso   1.00
O181   O     0.31487   0.83333   0.21427   0.00000  Uiso   1.00
O182   O     0.18513   0.83333   0.11907   0.00000  Uiso   1.00
C183   C     0.16407   0.83333   0.16667   0.00000  Uiso   1.00
C184   C     0.33592   0.83333   0.16667   0.00000  Uiso   1.00
Cu185  Cu    0.25000   0.83333   0.22303   0.00000  Uiso   1.00
Cu186  Cu    0.25000   0.83333   0.11031   0.00000  Uiso   1.00
N187   N     0.25000   0.83333   0.02561   0.00000  Uiso   1.00
N188   N     0.25000   0.83333   0.30773   0.00000  Uiso   1.00
C189   C     0.40748   0.84929   0.11784   0.00000  Uiso   1.00
C190   C     0.09252   0.81737   0.21550   0.00000  Uiso   1.00
C191   C     0.40748   0.81737   0.21550   0.00000  Uiso   1.00
C192   C     0.09252   0.84929   0.11784   0.00000  Uiso   1.00
C193   C     0.38430   0.83333   0.16667   0.00000  Uiso   1.00
C194   C     0.11570   0.83333   0.16667   0.00000  Uiso   1.00
C195   C     0.45361   0.81735   0.21575   0.00000  Uiso   1.00
C196   C     0.04639   0.84932   0.11758   0.00000  Uiso   1.00
C197   C     0.45361   0.84932   0.11758   0.00000  Uiso   1.00
C198   C     0.04639   0.81735   0.21575   0.00000  Uiso   1.00
C199   C     0.47678   0.83333   0.16667   0.00000  Uiso   1.00
C200   C     0.02322   0.83333   0.16667   0.00000  Uiso   1.00
C201   C     0.47701   0.80147   0.26421   0.00000  Uiso   1.00
C202   C     0.02299   0.86520   0.06913   0.00000  Uiso   1.00
C203   C     0.47701   0.86520   0.06913   0.00000  Uiso   1.00
C204   C     0.02299   0.80147   0.26421   0.00000  Uiso   1.00
C205   C     0.25000   0.68845   0.16665   0.00000  Uiso   1.00
C206   C     0.25000   0.97821   0.16668   0.00000  Uiso   1.00
F207   F     0.38525   0.86572   0.07091   0.00000  Uiso   1.00
F208   F     0.11475   0.80095   0.26242   0.00000  Uiso   1.00
F209   F     0.38525   0.80095   0.26242   0.00000  Uiso   1.00
F210   F     0.11475   0.86572   0.07091   0.00000  Uiso   1.00
O211   O     0.75000   0.76280   0.21425   0.00000  Uiso   1.00
O212   O     0.75000   0.90387   0.11908   0.00000  Uiso   1.00
O213   O     0.75000   0.90387   0.21425   0.00000  Uiso   1.00
O214   O     0.75000   0.76280   0.11908   0.00000  Uiso   1.00
H215   H     0.95987   0.78904   0.30230   0.00000  Uiso   1.00
H216   H     0.54013   0.87762   0.03104   0.00000  Uiso   1.00
H217   H     0.95987   0.87762   0.03104   0.00000  Uiso   1.00
H218   H     0.54013   0.78904   0.30230   0.00000  Uiso   1.00
C219   C     0.75000   0.74000   0.16665   0.00000  Uiso   1.00
C220   C     0.75000   0.92667   0.16668   0.00000  Uiso   1.00
O221   O     0.68513   0.83333   0.21427   0.00000  Uiso   1.00
O222   O     0.81487   0.83333   0.11907   0.00000  Uiso   1.00
O223   O     0.81487   0.83333   0.21427   0.00000  Uiso   1.00
O224   O     0.68513   0.83333   0.11907   0.00000  Uiso   1.00
C225   C     0.66407   0.83333   0.16667   0.00000  Uiso   1.00
C226   C     0.83592   0.83333   0.16667   0.00000  Uiso   1.00
Cu227  Cu    0.75000   0.83333   0.22303   0.00000  Uiso   1.00
Cu228  Cu    0.75000   0.83333   0.11031   0.00000  Uiso   1.00
N229   N     0.75000   0.83333   0.02561   0.00000  Uiso   1.00
N230   N     0.75000   0.83333   0.30773   0.00000  Uiso   1.00
C231   C     0.90748   0.84929   0.11784   0.00000  Uiso   1.00
C232   C     0.59252   0.81737   0.21550   0.00000  Uiso   1.00
C233   C     0.90748   0.81737   0.21550   0.00000  Uiso   1.00
C234   C     0.59252   0.84929   0.11784   0.00000  Uiso   1.00
C235   C     0.88430   0.83333   0.16667   0.00000  Uiso   1.00
C236   C     0.61570   0.83333   0.16667   0.00000  Uiso   1.00
C237   C     0.95361   0.81735   0.21575   0.00000  Uiso   1.00
C238   C     0.54639   0.84932   0.11758   0.00000  Uiso   1.00
C239   C     0.95361   0.84932   0.11758   0.00000  Uiso   1.00
C240   C     0.54639   0.81735   0.21575   0.00000  Uiso   1.00
C241   C     0.97678   0.83333   0.16667   0.00000  Uiso   1.00
C242   C     0.52322   0.83333   0.16667   0.00000  Uiso   1.00
C243   C     0.97701   0.80147   0.26421   0.00000  Uiso   1.00
C244   C     0.52299   0.86520   0.06913   0.00000  Uiso   1.00
C245   C     0.97701   0.86520   0.06913   0.00000  Uiso   1.00
C246   C     0.52299   0.80147   0.26421   0.00000  Uiso   1.00
C247   C     0.75000   0.68845   0.16665   0.00000  Uiso   1.00
C248   C     0.75000   0.97821   0.16668   0.00000  Uiso   1.00
F249   F     0.88525   0.86572   0.07091   0.00000  Uiso   1.00
F250   F     0.61475   0.80095   0.26242   0.00000  Uiso   1.00
F251   F     0.88525   0.80095   0.26242   0.00000  Uiso   1.00
F252   F     0.61475   0.86572   0.07091   0.00000  Uiso   1.00
O253   O     0.25000   0.09613   0.54759   0.00000  Uiso   1.00
O254   O     0.25000   0.23720   0.45241   0.00000  Uiso   1.00
O255   O     0.25000   0.23720   0.54759   0.00000  Uiso   1.00
O256   O     0.25000   0.09613   0.45241   0.00000  Uiso   1.00
H257   H     0.45987   0.12238   0.63563   0.00000  Uiso   1.00
H258   H     0.04013   0.21096   0.36437   0.00000  Uiso   1.00
H259   H     0.45987   0.21096   0.36437   0.00000  Uiso   1.00
H260   H     0.04013   0.12238   0.63563   0.00000  Uiso   1.00
C261   C     0.25000   0.07333   0.49999   0.00000  Uiso   1.00
C262   C     0.25000   0.26000   0.50001   0.00000  Uiso   1.00
O263   O     0.18513   0.16667   0.54760   0.00000  Uiso   1.00
O264   O     0.31487   0.16667   0.45240   0.00000  Uiso   1.00
O265   O     0.31487   0.16667   0.54760   0.00000  Uiso   1.00
O266   O     0.18513   0.16667   0.45240   0.00000  Uiso   1.00
C267   C     0.16407   0.16667   0.50000   0.00000  Uiso   1.00
C268   C     0.33592   0.16667   0.50000   0.00000  Uiso   1.00
Cu269  Cu    0.25000   0.16667   0.55636   0.00000  Uiso   1.00
Cu270  Cu    0.25000   0.16667   0.44364   0.00000  Uiso   1.00
N271   N     0.25000   0.16667   0.35894   0.00000  Uiso   1.00
N272   N     0.25000   0.16667   0.64106   0.00000  Uiso   1.00
C273   C     0.40748   0.18263   0.45117   0.00000  Uiso   1.00
C274   C     0.09252   0.15070   0.54883   0.00000  Uiso   1.00
C275   C     0.40748   0.15070   0.54883   0.00000  Uiso   1.00
C276   C     0.09252   0.18263   0.45117   0.00000  Uiso   1.00
C277   C     0.38430   0.16667   0.50000   0.00000  Uiso   1.00
C278   C     0.11570   0.16667   0.50000   0.00000  Uiso   1.00
C279   C     0.45361   0.15068   0.54908   0.00000  Uiso   1.00
C280   C     0.04639   0.18265   0.45092   0.00000  Uiso   1.00
C281   C     0.45361   0.18265   0.45092   0.00000  Uiso   1.00
C282   C     0.04639   0.15068   0.54908   0.00000  Uiso   1.00
C283   C     0.47678   0.16667   0.50000   0.00000  Uiso   1.00
C284   C     0.02322   0.16667   0.50000   0.00000  Uiso   1.00
C285   C     0.47701   0.13480   0.59754   0.00000  Uiso   1.00
C286   C     0.02299   0.19853   0.40246   0.00000  Uiso   1.00
C287   C     0.47701   0.19853   0.40246   0.00000  Uiso   1.00
C288   C     0.02299   0.13480   0.59754   0.00000  Uiso   1.00
C289   C     0.25000   0.02179   0.49998   0.00000  Uiso   1.00
C290   C     0.25000   0.31155   0.50002   0.00000  Uiso   1.00
F291   F     0.38525   0.19905   0.40425   0.00000  Uiso   1.00
F292   F     0.11475   0.13428   0.59575   0.00000  Uiso   1.00
F293   F     0.38525   0.13428   0.59575   0.00000  Uiso   1.00
F294   F     0.11475   0.19905   0.40425   0.00000  Uiso   1.00
O295   O     0.75000   0.09613   0.54759   0.00000  Uiso   1.00
O296   O     0.75000   0.23720   0.45241   0.00000  Uiso   1.00
O297   O     0.75000   0.23720   0.54759   0.00000  Uiso   1.00
O298   O     0.75000   0.09613   0.45241   0.00000  Uiso   1.00
H299   H     0.95987   0.12238   0.63563   0.00000  Uiso   1.00
H300   H     0.54013   0.21096   0.36437   0.00000  Uiso   1.00
H301   H     0.95987   0.21096   0.36437   0.00000  Uiso   1.00
H302   H     0.54013   0.12238   0.63563   0.00000  Uiso   1.00
C303   C     0.75000   0.07333   0.49999   0.00000  Uiso   1.00
C304   C     0.75000   0.26000   0.50001   0.00000  Uiso   1.00
O305   O     0.68513   0.16667   0.54760   0.00000  Uiso   1.00
O306   O     0.81487   0.16667   0.45240   0.00000  Uiso   1.00
O307   O     0.81487   0.16667   0.54760   0.00000  Uiso   1.00
O308   O     0.68513   0.16667   0.45240   0.00000  Uiso   1.00
C309   C     0.66407   0.16667   0.50000   0.00000  Uiso   1.00
C310   C     0.83592   0.16667   0.50000   0.00000  Uiso   1.00
Cu311  Cu    0.75000   0.16667   0.55636   0.00000  Uiso   1.00
Cu312  Cu    0.75000   0.16667   0.44364   0.00000  Uiso   1.00
N313   N     0.75000   0.16667   0.35894   0.00000  Uiso   1.00
N314   N     0.75000   0.16667   0.64106   0.00000  Uiso   1.00
C315   C     0.90748   0.18263   0.45117   0.00000  Uiso   1.00
C316   C     0.59252   0.15070   0.54883   0.00000  Uiso   1.00
C317   C     0.90748   0.15070   0.54883   0.00000  Uiso   1.00
C318   C     0.59252   0.18263   0.45117   0.00000  Uiso   1.00
C319   C     0.88430   0.16667   0.50000   0.00000  Uiso   1.00
C320   C     0.61570   0.16667   0.50000   0.00000  Uiso   1.00
C321   C     0.95361   0.15068   0.54908   0.00000  Uiso   1.00
C322   C     0.54639   0.18265   0.45092   0.00000  Uiso   1.00
C323   C     0.95361   0.18265   0.45092   0.00000  Uiso   1.00
C324   C     0.54639   0.15068   0.54908   0.00000  Uiso   1.00
C325   C     0.97678   0.16667   0.50000   0.00000  Uiso   1.00
C326   C     0.52322   0.16667   0.50000   0.00000  Uiso   1.00
C327   C     0.97701   0.13480   0.59754   0.00000  Uiso   1.00
C328   C     0.52299   0.19853   0.40246   0.00000  Uiso   1.00
C329   C     0.97701   0.19853   0.40246   0.00000  Uiso   1.00
C330   C     0.52299   0.13480   0.59754   0.00000  Uiso   1.00
C331   C     0.75000   0.02179   0.49998   0.00000  Uiso   1.00
C332   C     0.75000   0.31155   0.50002   0.00000  Uiso   1.00
F333   F     0.88525   0.19905   0.40425   0.00000  Uiso   1.00
F334   F     0.61475   0.13428   0.59575   0.00000  Uiso   1.00
F335   F     0.88525   0.13428   0.59575   0.00000  Uiso   1.00
F336   F     0.61475   0.19905   0.40425   0.00000  Uiso   1.00
O337   O     0.25000   0.42946   0.54759   0.00000  Uiso   1.00
O338   O     0.25000   0.57054   0.45241   0.00000  Uiso   1.00
O339   O     0.25000   0.57054   0.54759   0.00000  Uiso   1.00
O340   O     0.25000   0.42946   0.45241   0.00000  Uiso   1.00
H341   H     0.45987   0.45571   0.63563   0.00000  Uiso   1.00
H342   H     0.04013   0.54429   0.36437   0.00000  Uiso   1.00
H343   H     0.45987   0.54429   0.36437   0.00000  Uiso   1.00
H344   H     0.04013   0.45571   0.63563   0.00000  Uiso   1.00
C345   C     0.25000   0.40666   0.49999   0.00000  Uiso   1.00
C346   C     0.25000   0.59334   0.50001   0.00000  Uiso   1.00
O347   O     0.18513   0.50000   0.54760   0.00000  Uiso   1.00
O348   O     0.31487   0.50000   0.45240   0.00000  Uiso   1.00
O349   O     0.31487   0.50000   0.54760   0.00000  Uiso   1.00
O350   O     0.18513   0.50000   0.45240   0.00000  Uiso   1.00
C351   C     0.16407   0.50000   0.50000   0.00000  Uiso   1.00
C352   C     0.33592   0.50000   0.50000   0.00000  Uiso   1.00
Cu353  Cu    0.25000   0.50000   0.55636   0.00000  Uiso   1.00
Cu354  Cu    0.25000   0.50000   0.44364   0.00000  Uiso   1.00
N355   N     0.25000   0.50000   0.35894   0.00000  Uiso   1.00
N356   N     0.25000   0.50000   0.64106   0.00000  Uiso   1.00
C357   C     0.40748   0.51596   0.45117   0.00000  Uiso   1.00
C358   C     0.09252   0.48404   0.54883   0.00000  Uiso   1.00
C359   C     0.40748   0.48404   0.54883   0.00000  Uiso   1.00
C360   C     0.09252   0.51596   0.45117   0.00000  Uiso   1.00
C361   C     0.38430   0.50000   0.50000   0.00000  Uiso   1.00
C362   C     0.11570   0.50000   0.50000   0.00000  Uiso   1.00
C363   C     0.45361   0.48402   0.54908   0.00000  Uiso   1.00
C364   C     0.04639   0.51598   0.45092   0.00000  Uiso   1.00
C365   C     0.45361   0.51598   0.45092   0.00000  Uiso   1.00
C366   C     0.04639   0.48402   0.54908   0.00000  Uiso   1.00
C367   C     0.47678   0.50000   0.50000   0.00000  Uiso   1.00
C368   C     0.02322   0.50000   0.50000   0.00000  Uiso   1.00
C369   C     0.47701   0.46814   0.59754   0.00000  Uiso   1.00
C370   C     0.02299   0.53186   0.40246   0.00000  Uiso   1.00
C371   C     0.47701   0.53186   0.40246   0.00000  Uiso   1.00
C372   C     0.02299   0.46814   0.59754   0.00000  Uiso   1.00
C373   C     0.25000   0.35512   0.49998   0.00000  Uiso   1.00
C374   C     0.25000   0.64488   0.50002   0.00000  Uiso   1.00
F375   F     0.38525   0.53238   0.40425   0.00000  Uiso   1.00
F376   F     0.11475   0.46762   0.59575   0.00000  Uiso   1.00
F377   F     0.38525   0.46762   0.59575   0.00000  Uiso   1.00
F378   F     0.11475   0.53238   0.40425   0.00000  Uiso   1.00
O379   O     0.75000   0.42946   0.54759   0.00000  Uiso   1.00
O380   O     0.75000   0.57054   0.45241   0.00000  Uiso   1.00
O381   O     0.75000   0.57054   0.54759   0.00000  Uiso   1.00
O382   O     0.75000   0.42946   0.45241   0.00000  Uiso   1.00
H383   H     0.95987   0.45571   0.63563   0.00000  Uiso   1.00
H384   H     0.54013   0.54429   0.36437   0.00000  Uiso   1.00
H385   H     0.95987   0.54429   0.36437   0.00000  Uiso   1.00
H386   H     0.54013   0.45571   0.63563   0.00000  Uiso   1.00
C387   C     0.75000   0.40666   0.49999   0.00000  Uiso   1.00
C388   C     0.75000   0.59334   0.50001   0.00000  Uiso   1.00
O389   O     0.68513   0.50000   0.54760   0.00000  Uiso   1.00
O390   O     0.81487   0.50000   0.45240   0.00000  Uiso   1.00
O391   O     0.81487   0.50000   0.54760   0.00000  Uiso   1.00
O392   O     0.68513   0.50000   0.45240   0.00000  Uiso   1.00
C393   C     0.66407   0.50000   0.50000   0.00000  Uiso   1.00
C394   C     0.83592   0.50000   0.50000   0.00000  Uiso   1.00
Cu395  Cu    0.75000   0.50000   0.55636   0.00000  Uiso   1.00
Cu396  Cu    0.75000   0.50000   0.44364   0.00000  Uiso   1.00
N397   N     0.75000   0.50000   0.35894   0.00000  Uiso   1.00
N398   N     0.75000   0.50000   0.64106   0.00000  Uiso   1.00
C399   C     0.90748   0.51596   0.45117   0.00000  Uiso   1.00
C400   C     0.59252   0.48404   0.54883   0.00000  Uiso   1.00
C401   C     0.90748   0.48404   0.54883   0.00000  Uiso   1.00
C402   C     0.59252   0.51596   0.45117   0.00000  Uiso   1.00
C403   C     0.88430   0.50000   0.50000   0.00000  Uiso   1.00
C404   C     0.61570   0.50000   0.50000   0.00000  Uiso   1.00
C405   C     0.95361   0.48402   0.54908   0.00000  Uiso   1.00
C406   C     0.54639   0.51598   0.45092   0.00000  Uiso   1.00
C407   C     0.95361   0.51598   0.45092   0.00000  Uiso   1.00
C408   C     0.54639   0.48402   0.54908   0.00000  Uiso   1.00
C409   C     0.97678   0.50000   0.50000   0.00000  Uiso   1.00
C410   C     0.52322   0.50000   0.50000   0.00000  Uiso   1.00
C411   C     0.97701   0.46814   0.59754   0.00000  Uiso   1.00
C412   C     0.52299   0.53186   0.40246   0.00000  Uiso   1.00
C413   C     0.97701   0.53186   0.40246   0.00000  Uiso   1.00
C414   C     0.52299   0.46814   0.59754   0.00000  Uiso   1.00
C415   C     0.75000   0.35512   0.49998   0.00000  Uiso   1.00
C416   C     0.75000   0.64488   0.50002   0.00000  Uiso   1.00
F417   F     0.88525   0.53238   0.40425   0.00000  Uiso   1.00
F418   F     0.61475   0.46762   0.59575   0.00000  Uiso   1.00
F419   F     0.88525   0.46762   0.59575   0.00000  Uiso   1.00
F420   F     0.61475   0.53238   0.40425   0.00000  Uiso   1.00
O421   O     0.25000   0.76280   0.54759   0.00000  Uiso   1.00
O422   O     0.25000   0.90387   0.45241   0.00000  Uiso   1.00
O423   O     0.25000   0.90387   0.54759   0.00000  Uiso   1.00
O424   O     0.25000   0.76280   0.45241   0.00000  Uiso   1.00
H425   H     0.45987   0.78904   0.63563   0.00000  Uiso   1.00
H426   H     0.04013   0.87762   0.36437   0.00000  Uiso   1.00
H427   H     0.45987   0.87762   0.36437   0.00000  Uiso   1.00
H428   H     0.04013   0.78904   0.63563   0.00000  Uiso   1.00
C429   C     0.25000   0.74000   0.49999   0.00000  Uiso   1.00
C430   C     0.25000   0.92667   0.50001   0.00000  Uiso   1.00
O431   O     0.18513   0.83333   0.54760   0.00000  Uiso   1.00
O432   O     0.31487   0.83333   0.45240   0.00000  Uiso   1.00
O433   O     0.31487   0.83333   0.54760   0.00000  Uiso   1.00
O434   O     0.18513   0.83333   0.45240   0.00000  Uiso   1.00
C435   C     0.16407   0.83333   0.50000   0.00000  Uiso   1.00
C436   C     0.33592   0.83333   0.50000   0.00000  Uiso   1.00
Cu437  Cu    0.25000   0.83333   0.55636   0.00000  Uiso   1.00
Cu438  Cu    0.25000   0.83333   0.44364   0.00000  Uiso   1.00
N439   N     0.25000   0.83333   0.35894   0.00000  Uiso   1.00
N440   N     0.25000   0.83333   0.64106   0.00000  Uiso   1.00
C441   C     0.40748   0.84929   0.45117   0.00000  Uiso   1.00
C442   C     0.09252   0.81737   0.54883   0.00000  Uiso   1.00
C443   C     0.40748   0.81737   0.54883   0.00000  Uiso   1.00
C444   C     0.09252   0.84929   0.45117   0.00000  Uiso   1.00
C445   C     0.38430   0.83333   0.50000   0.00000  Uiso   1.00
C446   C     0.11570   0.83333   0.50000   0.00000  Uiso   1.00
C447   C     0.45361   0.81735   0.54908   0.00000  Uiso   1.00
C448   C     0.04639   0.84932   0.45092   0.00000  Uiso   1.00
C449   C     0.45361   0.84932   0.45092   0.00000  Uiso   1.00
C450   C     0.04639   0.81735   0.54908   0.00000  Uiso   1.00
C451   C     0.47678   0.83333   0.50000   0.00000  Uiso   1.00
C452   C     0.02322   0.83333   0.50000   0.00000  Uiso   1.00
C453   C     0.47701   0.80147   0.59754   0.00000  Uiso   1.00
C454   C     0.02299   0.86520   0.40246   0.00000  Uiso   1.00
C455   C     0.47701   0.86520   0.40246   0.00000  Uiso   1.00
C456   C     0.02299   0.80147   0.59754   0.00000  Uiso   1.00
C457   C     0.25000   0.68845   0.49998   0.00000  Uiso   1.00
C458   C     0.25000   0.97821   0.50002   0.00000  Uiso   1.00
F459   F     0.38525   0.86572   0.40425   0.00000  Uiso   1.00
F460   F     0.11475   0.80095   0.59575   0.00000  Uiso   1.00
F461   F     0.38525   0.80095   0.59575   0.00000  Uiso   1.00
F462   F     0.11475   0.86572   0.40425   0.00000  Uiso   1.00
O463   O     0.75000   0.76280   0.54759   0.00000  Uiso   1.00
O464   O     0.75000   0.90387   0.45241   0.00000  Uiso   1.00
O465   O     0.75000   0.90387   0.54759   0.00000  Uiso   1.00
O466   O     0.75000   0.76280   0.45241   0.00000  Uiso   1.00
H467   H     0.95987   0.78904   0.63563   0.00000  Uiso   1.00
H468   H     0.54013   0.87762   0.36437   0.00000  Uiso   1.00
H469   H     0.95987   0.87762   0.36437   0.00000  Uiso   1.00
H470   H     0.54013   0.78904   0.63563   0.00000  Uiso   1.00
C471   C     0.75000   0.74000   0.49999   0.00000  Uiso   1.00
C472   C     0.75000   0.92667   0.50001   0.00000  Uiso   1.00
O473   O     0.68513   0.83333   0.54760   0.00000  Uiso   1.00
O474   O     0.81487   0.83333   0.45240   0.00000  Uiso   1.00
O475   O     0.81487   0.83333   0.54760   0.00000  Uiso   1.00
O476   O     0.68513   0.83333   0.45240   0.00000  Uiso   1.00
C477   C     0.66407   0.83333   0.50000   0.00000  Uiso   1.00
C478   C     0.83592   0.83333   0.50000   0.00000  Uiso   1.00
Cu479  Cu    0.75000   0.83333   0.55636   0.00000  Uiso   1.00
Cu480  Cu    0.75000   0.83333   0.44364   0.00000  Uiso   1.00
N481   N     0.75000   0.83333   0.35894   0.00000  Uiso   1.00
N482   N     0.75000   0.83333   0.64106   0.00000  Uiso   1.00
C483   C     0.90748   0.84929   0.45117   0.00000  Uiso   1.00
C484   C     0.59252   0.81737   0.54883   0.00000  Uiso   1.00
C485   C     0.90748   0.81737   0.54883   0.00000  Uiso   1.00
C486   C     0.59252   0.84929   0.45117   0.00000  Uiso   1.00
C487   C     0.88430   0.83333   0.50000   0.00000  Uiso   1.00
C488   C     0.61570   0.83333   0.50000   0.00000  Uiso   1.00
C489   C     0.95361   0.81735   0.54908   0.00000  Uiso   1.00
C490   C     0.54639   0.84932   0.45092   0.00000  Uiso   1.00
C491   C     0.95361   0.84932   0.45092   0.00000  Uiso   1.00
C492   C     0.54639   0.81735   0.54908   0.00000  Uiso   1.00
C493   C     0.97678   0.83333   0.50000   0.00000  Uiso   1.00
C494   C     0.52322   0.83333   0.50000   0.00000  Uiso   1.00
C495   C     0.97701   0.80147   0.59754   0.00000  Uiso   1.00
C496   C     0.52299   0.86520   0.40246   0.00000  Uiso   1.00
C497   C     0.97701   0.86520   0.40246   0.00000  Uiso   1.00
C498   C     0.52299   0.80147   0.59754   0.00000  Uiso   1.00
C499   C     0.75000   0.68845   0.49998   0.00000  Uiso   1.00
C500   C     0.75000   0.97821   0.50002   0.00000  Uiso   1.00
F501   F     0.88525   0.86572   0.40425   0.00000  Uiso   1.00
F502   F     0.61475   0.80095   0.59575   0.00000  Uiso   1.00
F503   F     0.88525   0.80095   0.59575   0.00000  Uiso   1.00
F504   F     0.61475   0.86572   0.40425   0.00000  Uiso   1.00
O505   O     0.25000   0.09613   0.88092   0.00000  Uiso   1.00
O506   O     0.25000   0.23720   0.78575   0.00000  Uiso   1.00
O507   O     0.25000   0.23720   0.88092   0.00000  Uiso   1.00
O508   O     0.25000   0.09613   0.78575   0.00000  Uiso   1.00
H509   H     0.45987   0.12238   0.96896   0.00000  Uiso   1.00
H510   H     0.04013   0.21096   0.69770   0.00000  Uiso   1.00
H511   H     0.45987   0.21096   0.69770   0.00000  Uiso   1.00
H512   H     0.04013   0.12238   0.96896   0.00000  Uiso   1.00
C513   C     0.25000   0.07333   0.83332   0.00000  Uiso   1.00
C514   C     0.25000   0.26000   0.83335   0.00000  Uiso   1.00
O515   O     0.18513   0.16667   0.88093   0.00000  Uiso   1.00
O516   O     0.31487   0.16667   0.78573   0.00000  Uiso   1.00
O517   O     0.31487   0.16667   0.88093   0.00000  Uiso   1.00
O518   O     0.18513   0.16667   0.78573   0.00000  Uiso   1.00
C519   C     0.16407   0.16667   0.83333   0.00000  Uiso   1.00
C520   C     0.33592   0.16667   0.83333   0.00000  Uiso   1.00
Cu521  Cu    0.25000   0.16667   0.88969   0.00000  Uiso   1.00
Cu522  Cu    0.25000   0.16667   0.77697   0.00000  Uiso   1.00
N523   N     0.25000   0.16667   0.69227   0.00000  Uiso   1.00
N524   N     0.25000   0.16667   0.97439   0.00000  Uiso   1.00
C525   C     0.40748   0.18263   0.78450   0.00000  Uiso   1.00
C526   C     0.09252   0.15070   0.88216   0.00000  Uiso   1.00
C527   C     0.40748   0.15070   0.88216   0.00000  Uiso   1.00
C528   C     0.09252   0.18263   0.78450   0.00000  Uiso   1.00
C529   C     0.38430   0.16667   0.83333   0.00000  Uiso   1.00
C530   C     0.11570   0.16667   0.83333   0.00000  Uiso   1.00
C531   C     0.45361   0.15068   0.88242   0.00000  Uiso   1.00
C532   C     0.04639   0.18265   0.78425   0.00000  Uiso   1.00
C533   C     0.45361   0.18265   0.78425   0.00000  Uiso   1.00
C534   C     0.04639   0.15068   0.88242   0.00000  Uiso   1.00
C535   C     0.47678   0.16667   0.83333   0.00000  Uiso   1.00
C536   C     0.02322   0.16667   0.83333   0.00000  Uiso   1.00
C537   C     0.47701   0.13480   0.93087   0.00000  Uiso   1.00
C538   C     0.02299   0.19853   0.73579   0.00000  Uiso   1.00
C539   C     0.47701   0.19853   0.73579   0.00000  Uiso   1.00
C540   C     0.02299   0.13480   0.93087   0.00000  Uiso   1.00
C541   C     0.25000   0.02179   0.83332   0.00000  Uiso   1.00
C542   C     0.25000   0.31155   0.83335   0.00000  Uiso   1.00
F543   F     0.38525   0.19905   0.73758   0.00000  Uiso   1.00
F544   F     0.11475   0.13428   0.92909   0.00000  Uiso   1.00
F545   F     0.38525   0.13428   0.92909   0.00000  Uiso   1.00
F546   F     0.11475   0.19905   0.73758   0.00000  Uiso   1.00
O547   O     0.75000   0.09613   0.88092   0.00000  Uiso   1.00
O548   O     0.75000   0.23720   0.78575   0.00000  Uiso   1.00
O549   O     0.75000   0.23720   0.88092   0.00000  Uiso   1.00
O550   O     0.75000   0.09613   0.78575   0.00000  Uiso   1.00
H551   H     0.95987   0.12238   0.96896   0.00000  Uiso   1.00
H552   H     0.54013   0.21096   0.69770   0.00000  Uiso   1.00
H553   H     0.95987   0.21096   0.69770   0.00000  Uiso   1.00
H554   H     0.54013   0.12238   0.96896   0.00000  Uiso   1.00
C555   C     0.75000   0.07333   0.83332   0.00000  Uiso   1.00
C556   C     0.75000   0.26000   0.83335   0.00000  Uiso   1.00
O557   O     0.68513   0.16667   0.88093   0.00000  Uiso   1.00
O558   O     0.81487   0.16667   0.78573   0.00000  Uiso   1.00
O559   O     0.81487   0.16667   0.88093   0.00000  Uiso   1.00
O560   O     0.68513   0.16667   0.78573   0.00000  Uiso   1.00
C561   C     0.66407   0.16667   0.83333   0.00000  Uiso   1.00
C562   C     0.83592   0.16667   0.83333   0.00000  Uiso   1.00
Cu563  Cu    0.75000   0.16667   0.88969   0.00000  Uiso   1.00
Cu564  Cu    0.75000   0.16667   0.77697   0.00000  Uiso   1.00
N565   N     0.75000   0.16667   0.69227   0.00000  Uiso   1.00
N566   N     0.75000   0.16667   0.97439   0.00000  Uiso   1.00
C567   C     0.90748   0.18263   0.78450   0.00000  Uiso   1.00
C568   C     0.59252   0.15070   0.88216   0.00000  Uiso   1.00
C569   C     0.90748   0.15070   0.88216   0.00000  Uiso   1.00
C570   C     0.59252   0.18263   0.78450   0.00000  Uiso   1.00
C571   C     0.88430   0.16667   0.83333   0.00000  Uiso   1.00
C572   C     0.61570   0.16667   0.83333   0.00000  Uiso   1.00
C573   C     0.95361   0.15068   0.88242   0.00000  Uiso   1.00
C574   C     0.54639   0.18265   0.78425   0.00000  Uiso   1.00
C575   C     0.95361   0.18265   0.78425   0.00000  Uiso   1.00
C576   C     0.54639   0.15068   0.88242   0.00000  Uiso   1.00
C577   C     0.97678   0.16667   0.83333   0.00000  Uiso   1.00
C578   C     0.52322   0.16667   0.83333   0.00000  Uiso   1.00
C579   C     0.97701   0.13480   0.93087   0.00000  Uiso   1.00
C580   C     0.52299   0.19853   0.73579   0.00000  Uiso   1.00
C581   C     0.97701   0.19853   0.73579   0.00000  Uiso   1.00
C582   C     0.52299   0.13480   0.93087   0.00000  Uiso   1.00
C583   C     0.75000   0.02179   0.83332   0.00000  Uiso   1.00
C584   C     0.75000   0.31155   0.83335   0.00000  Uiso   1.00
F585   F     0.88525   0.19905   0.73758   0.00000  Uiso   1.00
F586   F     0.61475   0.13428   0.92909   0.00000  Uiso   1.00
F587   F     0.88525   0.13428   0.92909   0.00000  Uiso   1.00
F588   F     0.61475   0.19905   0.73758   0.00000  Uiso   1.00
O589   O     0.25000   0.42946   0.88092   0.00000  Uiso   1.00
O590   O     0.25000   0.57054   0.78575   0.00000  Uiso   1.00
O591   O     0.25000   0.57054   0.88092   0.00000  Uiso   1.00
O592   O     0.25000   0.42946   0.78575   0.00000  Uiso   1.00
H593   H     0.45987   0.45571   0.96896   0.00000  Uiso   1.00
H594   H     0.04013   0.54429   0.69770   0.00000  Uiso   1.00
H595   H     0.45987   0.54429   0.69770   0.00000  Uiso   1.00
H596   H     0.04013   0.45571   0.96896   0.00000  Uiso   1.00
C597   C     0.25000   0.40666   0.83332   0.00000  Uiso   1.00
C598   C     0.25000   0.59334   0.83335   0.00000  Uiso   1.00
O599   O     0.18513   0.50000   0.88093   0.00000  Uiso   1.00
O600   O     0.31487   0.50000   0.78573   0.00000  Uiso   1.00
O601   O     0.31487   0.50000   0.88093   0.00000  Uiso   1.00
O602   O     0.18513   0.50000   0.78573   0.00000  Uiso   1.00
C603   C     0.16407   0.50000   0.83333   0.00000  Uiso   1.00
C604   C     0.33592   0.50000   0.83333   0.00000  Uiso   1.00
Cu605  Cu    0.25000   0.50000   0.88969   0.00000  Uiso   1.00
Cu606  Cu    0.25000   0.50000   0.77697   0.00000  Uiso   1.00
N607   N     0.25000   0.50000   0.69227   0.00000  Uiso   1.00
N608   N     0.25000   0.50000   0.97439   0.00000  Uiso   1.00
C609   C     0.40748   0.51596   0.78450   0.00000  Uiso   1.00
C610   C     0.09252   0.48404   0.88216   0.00000  Uiso   1.00
C611   C     0.40748   0.48404   0.88216   0.00000  Uiso   1.00
C612   C     0.09252   0.51596   0.78450   0.00000  Uiso   1.00
C613   C     0.38430   0.50000   0.83333   0.00000  Uiso   1.00
C614   C     0.11570   0.50000   0.83333   0.00000  Uiso   1.00
C615   C     0.45361   0.48402   0.88242   0.00000  Uiso   1.00
C616   C     0.04639   0.51598   0.78425   0.00000  Uiso   1.00
C617   C     0.45361   0.51598   0.78425   0.00000  Uiso   1.00
C618   C     0.04639   0.48402   0.88242   0.00000  Uiso   1.00
C619   C     0.47678   0.50000   0.83333   0.00000  Uiso   1.00
C620   C     0.02322   0.50000   0.83333   0.00000  Uiso   1.00
C621   C     0.47701   0.46814   0.93087   0.00000  Uiso   1.00
C622   C     0.02299   0.53186   0.73579   0.00000  Uiso   1.00
C623   C     0.47701   0.53186   0.73579   0.00000  Uiso   1.00
C624   C     0.02299   0.46814   0.93087   0.00000  Uiso   1.00
C625   C     0.25000   0.35512   0.83332   0.00000  Uiso   1.00
C626   C     0.25000   0.64488   0.83335   0.00000  Uiso   1.00
F627   F     0.38525   0.53238   0.73758   0.00000  Uiso   1.00
F628   F     0.11475   0.46762   0.92909   0.00000  Uiso   1.00
F629   F     0.38525   0.46762   0.92909   0.00000  Uiso   1.00
F630   F     0.11475   0.53238   0.73758   0.00000  Uiso   1.00
O631   O     0.75000   0.42946   0.88092   0.00000  Uiso   1.00
O632   O     0.75000   0.57054   0.78575   0.00000  Uiso   1.00
O633   O     0.75000   0.57054   0.88092   0.00000  Uiso   1.00
O634   O     0.75000   0.42946   0.78575   0.00000  Uiso   1.00
H635   H     0.95987   0.45571   0.96896   0.00000  Uiso   1.00
H636   H     0.54013   0.54429   0.69770   0.00000  Uiso   1.00
H637   H     0.95987   0.54429   0.69770   0.00000  Uiso   1.00
H638   H     0.54013   0.45571   0.96896   0.00000  Uiso   1.00
C639   C     0.75000   0.40666   0.83332   0.00000  Uiso   1.00
C640   C     0.75000   0.59334   0.83335   0.00000  Uiso   1.00
O641   O     0.68513   0.50000   0.88093   0.00000  Uiso   1.00
O642   O     0.81487   0.50000   0.78573   0.00000  Uiso   1.00
O643   O     0.81487   0.50000   0.88093   0.00000  Uiso   1.00
O644   O     0.68513   0.50000   0.78573   0.00000  Uiso   1.00
C645   C     0.66407   0.50000   0.83333   0.00000  Uiso   1.00
C646   C     0.83592   0.50000   0.83333   0.00000  Uiso   1.00
Cu647  Cu    0.75000   0.50000   0.88969   0.00000  Uiso   1.00
Cu648  Cu    0.75000   0.50000   0.77697   0.00000  Uiso   1.00
N649   N     0.75000   0.50000   0.69227   0.00000  Uiso   1.00
N650   N     0.75000   0.50000   0.97439   0.00000  Uiso   1.00
C651   C     0.90748   0.51596   0.78450   0.00000  Uiso   1.00
C652   C     0.59252   0.48404   0.88216   0.00000  Uiso   1.00
C653   C     0.90748   0.48404   0.88216   0.00000  Uiso   1.00
C654   C     0.59252   0.51596   0.78450   0.00000  Uiso   1.00
C655   C     0.88430   0.50000   0.83333   0.00000  Uiso   1.00
C656   C     0.61570   0.50000   0.83333   0.00000  Uiso   1.00
C657   C     0.95361   0.48402   0.88242   0.00000  Uiso   1.00
C658   C     0.54639   0.51598   0.78425   0.00000  Uiso   1.00
C659   C     0.95361   0.51598   0.78425   0.00000  Uiso   1.00
C660   C     0.54639   0.48402   0.88242   0.00000  Uiso   1.00
C661   C     0.97678   0.50000   0.83333   0.00000  Uiso   1.00
C662   C     0.52322   0.50000   0.83333   0.00000  Uiso   1.00
C663   C     0.97701   0.46814   0.93087   0.00000  Uiso   1.00
C664   C     0.52299   0.53186   0.73579   0.00000  Uiso   1.00
C665   C     0.97701   0.53186   0.73579   0.00000  Uiso   1.00
C666   C     0.52299   0.46814   0.93087   0.00000  Uiso   1.00
C667   C     0.75000   0.35512   0.83332   0.00000  Uiso   1.00
C668   C     0.75000   0.64488   0.83335   0.00000  Uiso   1.00
F669   F     0.88525   0.53238   0.73758   0.00000  Uiso   1.00
F670   F     0.61475   0.46762   0.92909   0.00000  Uiso   1.00
F671   F     0.88525   0.46762   0.92909   0.00000  Uiso   1.00
F672   F     0.61475   0.53238   0.73758   0.00000  Uiso   1.00
O673   O     0.25000   0.76280   0.88092   0.00000  Uiso   1.00
O674   O     0.25000   0.90387   0.78575   0.00000  Uiso   1.00
O675   O     0.25000   0.90387   0.88092   0.00000  Uiso   1.00
O676   O     0.25000   0.76280   0.78575   0.00000  Uiso   1.00
H677   H     0.45987   0.78904   0.96896   0.00000  Uiso   1.00
H678   H     0.04013   0.87762   0.69770   0.00000  Uiso   1.00
H679   H     0.45987   0.87762   0.69770   0.00000  Uiso   1.00
H680   H     0.04013   0.78904   0.96896   0.00000  Uiso   1.00
C681   C     0.25000   0.74000   0.83332   0.00000  Uiso   1.00
C682   C     0.25000   0.92667   0.83335   0.00000  Uiso   1.00
O683   O     0.18513   0.83333   0.88093   0.00000  Uiso   1.00
O684   O     0.31487   0.83333   0.78573   0.00000  Uiso   1.00
O685   O     0.31487   0.83333   0.88093   0.00000  Uiso   1.00
O686   O     0.18513   0.83333   0.78573   0.00000  Uiso   1.00
C687   C     0.16407   0.83333   0.83333   0.00000  Uiso   1.00
C688   C     0.33592   0.83333   0.83333   0.00000  Uiso   1.00
Cu689  Cu    0.25000   0.83333   0.88969   0.00000  Uiso   1.00
Cu690  Cu    0.25000   0.83333   0.77697   0.00000  Uiso   1.00
N691   N     0.25000   0.83333   0.69227   0.00000  Uiso   1.00
N692   N     0.25000   0.83333   0.97439   0.00000  Uiso   1.00
C693   C     0.40748   0.84929   0.78450   0.00000  Uiso   1.00
C694   C     0.09252   0.81737   0.88216   0.00000  Uiso   1.00
C695   C     0.40748   0.81737   0.88216   0.00000  Uiso   1.00
C696   C     0.09252   0.84929   0.78450   0.00000  Uiso   1.00
C697   C     0.38430   0.83333   0.83333   0.00000  Uiso   1.00
C698   C     0.11570   0.83333   0.83333   0.00000  Uiso   1.00
C699   C     0.45361   0.81735   0.88242   0.00000  Uiso   1.00
C700   C     0.04639   0.84932   0.78425   0.00000  Uiso   1.00
C701   C     0.45361   0.84932   0.78425   0.00000  Uiso   1.00
C702   C     0.04639   0.81735   0.88242   0.00000  Uiso   1.00
C703   C     0.47678   0.83333   0.83333   0.00000  Uiso   1.00
C704   C     0.02322   0.83333   0.83333   0.00000  Uiso   1.00
C705   C     0.47701   0.80147   0.93087   0.00000  Uiso   1.00
C706   C     0.02299   0.86520   0.73579   0.00000  Uiso   1.00
C707   C     0.47701   0.86520   0.73579   0.00000  Uiso   1.00
C708   C     0.02299   0.80147   0.93087   0.00000  Uiso   1.00
C709   C     0.25000   0.68845   0.83332   0.00000  Uiso   1.00
C710   C     0.25000   0.97821   0.83335   0.00000  Uiso   1.00
F711   F     0.38525   0.86572   0.73758   0.00000  Uiso   1.00
F712   F     0.11475   0.80095   0.92909   0.00000  Uiso   1.00
F713   F     0.38525   0.80095   0.92909   0.00000  Uiso   1.00
F714   F     0.11475   0.86572   0.73758   0.00000  Uiso   1.00
O715   O     0.75000   0.76280   0.88092   0.00000  Uiso   1.00
O716   O     0.75000   0.90387   0.78575   0.00000  Uiso   1.00
O717   O     0.75000   0.90387   0.88092   0.00000  Uiso   1.00
O718   O     0.75000   0.76280   0.78575   0.00000  Uiso   1.00
H719   H     0.95987   0.78904   0.96896   0.00000  Uiso   1.00
H720   H     0.54013   0.87762   0.69770   0.00000  Uiso   1.00
H721   H     0.95987   0.87762   0.69770   0.00000  Uiso   1.00
H722   H     0.54013   0.78904   0.96896   0.00000  Uiso   1.00
C723   C     0.75000   0.74000   0.83332   0.00000  Uiso   1.00
C724   C     0.75000   0.92667   0.83335   0.00000  Uiso   1.00
O725   O     0.68513   0.83333   0.88093   0.00000  Uiso   1.00
O726   O     0.81487   0.83333   0.78573   0.00000  Uiso   1.00
O727   O     0.81487   0.83333   0.88093   0.00000  Uiso   1.00
O728   O     0.68513   0.83333   0.78573   0.00000  Uiso   1.00
C729   C     0.66407   0.83333   0.83333   0.00000  Uiso   1.00
C730   C     0.83592   0.83333   0.83333   0.00000  Uiso   1.00
Cu731  Cu    0.75000   0.83333   0.88969   0.00000  Uiso   1.00
Cu732  Cu    0.75000   0.83333   0.77697   0.00000  Uiso   1.00
N733   N     0.75000   0.83333   0.69227   0.00000  Uiso   1.00
N734   N     0.75000   0.83333   0.97439   0.00000  Uiso   1.00
C735   C     0.90748   0.84929   0.78450   0.00000  Uiso   1.00
C736   C     0.59252   0.81737   0.88216   0.00000  Uiso   1.00
C737   C     0.90748   0.81737   0.88216   0.00000  Uiso   1.00
C738   C     0.59252   0.84929   0.78450   0.00000  Uiso   1.00
C739   C     0.88430   0.83333   0.83333   0.00000  Uiso   1.00
C740   C     0.61570   0.83333   0.83333   0.00000  Uiso   1.00
C741   C     0.95361   0.81735   0.88242   0.00000  Uiso   1.00
C742   C     0.54639   0.84932   0.78425   0.00000  Uiso   1.00
C743   C     0.95361   0.84932   0.78425   0.00000  Uiso   1.00
C744   C     0.54639   0.81735   0.88242   0.00000  Uiso   1.00
C745   C     0.97678   0.83333   0.83333   0.00000  Uiso   1.00
C746   C     0.52322   0.83333   0.83333   0.00000  Uiso   1.00
C747   C     0.97701   0.80147   0.93087   0.00000  Uiso   1.00
C748   C     0.52299   0.86520   0.73579   0.00000  Uiso   1.00
C749   C     0.97701   0.86520   0.73579   0.00000  Uiso   1.00
C750   C     0.52299   0.80147   0.93087   0.00000  Uiso   1.00
C751   C     0.75000   0.68845   0.83332   0.00000  Uiso   1.00
C752   C     0.75000   0.97821   0.83335   0.00000  Uiso   1.00
F753   F     0.88525   0.86572   0.73758   0.00000  Uiso   1.00
F754   F     0.61475   0.80095   0.92909   0.00000  Uiso   1.00
F755   F     0.88525   0.80095   0.92909   0.00000  Uiso   1.00
F756   F     0.61475   0.86572   0.73758   0.00000  Uiso   1.00
loop_
_geom_bond_atom_site_label_1
_geom_bond_atom_site_label_2
_geom_bond_distance
_geom_bond_site_symmetry_2
_ccdc_geom_bond_type
O1     Cu17    1.936   .     S
O1     C9      1.273   .     A
O2     Cu18    1.936   .     S
O2     C10     1.273   .     A
O3     C10     1.273   .     A
O3     Cu17    1.936   .     S
O4     Cu18    1.936   .     S
O4     C9      1.273   .     A
H5     C33     1.084   .     S
H6     C34     1.084   .     S
H7     C35     1.084   .     S
H8     C36     1.084   .     S
C9     C37     1.407   .     S
C10    C38     1.407   .     S
O11    C15     1.280   .     A
O11    Cu17    1.974   .     S
O12    C16     1.280   .     A
O12    Cu18    1.974   .     S
O13    Cu17    1.974   .     S
O13    C16     1.280   .     A
O14    C15     1.280   .     A
O14    Cu18    1.974   .     S
C15    C26     1.464   .     S
C16    C25     1.464   .     S
Cu17   N20     1.976   .     S
Cu17   Cu18    2.630   .     S
Cu18   N19     1.976   .     S
N19    N524    1.195   1_554 S
N20    N271    1.195   .     S
C21    C25     1.407   .     A
C21    C29     1.396   .     A
C21    F39     1.361   .     S
C22    C26     1.407   .     A
C22    F40     1.361   .     S
C22    C30     1.396   .     A
C23    C27     1.396   .     A
C23    F41     1.361   .     S
C23    C25     1.407   .     A
C24    F42     1.361   .     S
C24    C26     1.407   .     A
C24    C28     1.396   .     A
C27    C33     1.403   .     A
C27    C31     1.412   .     A
C28    C34     1.403   .     A
C28    C32     1.412   .     A
C29    C35     1.403   .     A
C29    C31     1.412   .     A
C30    C36     1.403   .     A
C30    C32     1.412   .     A
C31    C74     1.405   .     S
C32    C73     1.405   1_455 S
C33    C78     1.391   .     S
C34    C77     1.391   1_455 S
C35    C76     1.391   .     S
C36    C75     1.391   1_455 S
C37    C206    1.189   1_545 S
C38    C121    1.189   .     S
O43    Cu59    1.936   .     S
O43    C51     1.273   .     A
O44    Cu60    1.936   .     S
O44    C52     1.273   .     A
O45    C52     1.273   .     A
O45    Cu59    1.936   .     S
O46    Cu60    1.936   .     S
O46    C51     1.273   .     A
H47    C75     1.084   .     S
H48    C76     1.084   .     S
H49    C77     1.084   .     S
H50    C78     1.084   .     S
C51    C79     1.407   .     S
C52    C80     1.407   .     S
O53    C57     1.280   .     A
O53    Cu59    1.974   .     S
O54    C58     1.280   .     A
O54    Cu60    1.974   .     S
O55    Cu59    1.974   .     S
O55    C58     1.280   .     A
O56    C57     1.280   .     A
O56    Cu60    1.974   .     S
C57    C68     1.464   .     S
C58    C67     1.464   .     S
Cu59   N62     1.976   .     S
Cu59   Cu60    2.630   .     S
Cu60   N61     1.976   .     S
N61    N566    1.195   1_554 S
N62    N313    1.195   .     S
C63    C67     1.407   .     A
C63    C71     1.396   .     A
C63    F81     1.361   .     S
C64    C68     1.407   .     A
C64    F82     1.361   .     S
C64    C72     1.396   .     A
C65    C69     1.396   .     A
C65    F83     1.361   .     S
C65    C67     1.407   .     A
C66    F84     1.361   .     S
C66    C68     1.407   .     A
C66    C70     1.396   .     A
C69    C75     1.403   .     A
C69    C73     1.412   .     A
C70    C76     1.403   .     A
C70    C74     1.412   .     A
C71    C77     1.403   .     A
C71    C73     1.412   .     A
C72    C78     1.403   .     A
C72    C74     1.412   .     A
C73    C32     1.405   1_655 S
C75    C36     1.391   1_655 S
C77    C34     1.391   1_655 S
C79    C248    1.189   1_545 S
C80    C163    1.189   .     S
O85    Cu101   1.936   .     S
O85    C93     1.273   .     A
O86    Cu102   1.936   .     S
O86    C94     1.273   .     A
O87    C94     1.273   .     A
O87    Cu101   1.936   .     S
O88    Cu102   1.936   .     S
O88    C93     1.273   .     A
H89    C117    1.084   .     S
H90    C118    1.084   .     S
H91    C119    1.084   .     S
H92    C120    1.084   .     S
C93    C121    1.407   .     S
C94    C122    1.407   .     S
O95    C99     1.280   .     A
O95    Cu101   1.974   .     S
O96    C100    1.280   .     A
O96    Cu102   1.974   .     S
O97    Cu101   1.974   .     S
O97    C100    1.280   .     A
O98    C99     1.280   .     A
O98    Cu102   1.974   .     S
C99    C110    1.464   .     S
C100   C109    1.464   .     S
Cu101  N104    1.976   .     S
Cu101  Cu102   2.630   .     S
Cu102  N103    1.976   .     S
N103   N608    1.195   1_554 S
N104   N355    1.195   .     S
C105   C109    1.407   .     A
C105   C113    1.396   .     A
C105   F123    1.361   .     S
C106   C110    1.407   .     A
C106   F124    1.361   .     S
C106   C114    1.396   .     A
C107   C111    1.396   .     A
C107   F125    1.361   .     S
C107   C109    1.407   .     A
C108   F126    1.361   .     S
C108   C110    1.407   .     A
C108   C112    1.396   .     A
C111   C117    1.403   .     A
C111   C115    1.412   .     A
C112   C118    1.403   .     A
C112   C116    1.412   .     A
C113   C119    1.403   .     A
C113   C115    1.412   .     A
C114   C120    1.403   .     A
C114   C116    1.412   .     A
C115   C158    1.405   .     S
C116   C157    1.405   1_455 S
C117   C162    1.391   .     S
C118   C161    1.391   1_455 S
C119   C160    1.391   .     S
C120   C159    1.391   1_455 S
C122   C205    1.189   .     S
O127   Cu143   1.936   .     S
O127   C135    1.273   .     A
O128   Cu144   1.936   .     S
O128   C136    1.273   .     A
O129   C136    1.273   .     A
O129   Cu143   1.936   .     S
O130   Cu144   1.936   .     S
O130   C135    1.273   .     A
H131   C159    1.084   .     S
H132   C160    1.084   .     S
H133   C161    1.084   .     S
H134   C162    1.084   .     S
C135   C163    1.407   .     S
C136   C164    1.407   .     S
O137   C141    1.280   .     A
O137   Cu143   1.974   .     S
O138   C142    1.280   .     A
O138   Cu144   1.974   .     S
O139   Cu143   1.974   .     S
O139   C142    1.280   .     A
O140   C141    1.280   .     A
O140   Cu144   1.974   .     S
C141   C152    1.464   .     S
C142   C151    1.464   .     S
Cu143  N146    1.976   .     S
Cu143  Cu144   2.630   .     S
Cu144  N145    1.976   .     S
N145   N650    1.195   1_554 S
N146   N397    1.195   .     S
C147   C151    1.407   .     A
C147   C155    1.396   .     A
C147   F165    1.361   .     S
C148   C152    1.407   .     A
C148   F166    1.361   .     S
C148   C156    1.396   .     A
C149   C153    1.396   .     A
C149   F167    1.361   .     S
C149   C151    1.407   .     A
C150   F168    1.361   .     S
C150   C152    1.407   .     A
C150   C154    1.396   .     A
C153   C159    1.403   .     A
C153   C157    1.412   .     A
C154   C160    1.403   .     A
C154   C158    1.412   .     A
C155   C161    1.403   .     A
C155   C157    1.412   .     A
C156   C162    1.403   .     A
C156   C158    1.412   .     A
C157   C116    1.405   1_655 S
C159   C120    1.391   1_655 S
C161   C118    1.391   1_655 S
C164   C247    1.189   .     S
O169   Cu185   1.936   .     S
O169   C177    1.273   .     A
O170   Cu186   1.936   .     S
O170   C178    1.273   .     A
O171   C178    1.273   .     A
O171   Cu185   1.936   .     S
O172   Cu186   1.936   .     S
O172   C177    1.273   .     A
H173   C201    1.084   .     S
H174   C202    1.084   .     S
H175   C203    1.084   .     S
H176   C204    1.084   .     S
C177   C205    1.407   .     S
C178   C206    1.407   .     S
O179   C183    1.280   .     A
O179   Cu185   1.974   .     S
O180   C184    1.280   .     A
O180   Cu186   1.974   .     S
O181   Cu185   1.974   .     S
O181   C184    1.280   .     A
O182   C183    1.280   .     A
O182   Cu186   1.974   .     S
C183   C194    1.464   .     S
C184   C193    1.464   .     S
Cu185  N188    1.976   .     S
Cu185  Cu186   2.630   .     S
Cu186  N187    1.976   .     S
N187   N692    1.195   1_554 S
N188   N439    1.195   .     S
C189   C193    1.407   .     A
C189   C197    1.396   .     A
C189   F207    1.361   .     S
C190   C194    1.407   .     A
C190   F208    1.361   .     S
C190   C198    1.396   .     A
C191   C195    1.396   .     A
C191   F209    1.361   .     S
C191   C193    1.407   .     A
C192   F210    1.361   .     S
C192   C194    1.407   .     A
C192   C196    1.396   .     A
C195   C201    1.403   .     A
C195   C199    1.412   .     A
C196   C202    1.403   .     A
C196   C200    1.412   .     A
C197   C203    1.403   .     A
C197   C199    1.412   .     A
C198   C204    1.403   .     A
C198   C200    1.412   .     A
C199   C242    1.405   .     S
C200   C241    1.405   1_455 S
C201   C246    1.391   .     S
C202   C245    1.391   1_455 S
C203   C244    1.391   .     S
C204   C243    1.391   1_455 S
C206   C37     1.189   1_565 S
O211   Cu227   1.936   .     S
O211   C219    1.273   .     A
O212   Cu228   1.936   .     S
O212   C220    1.273   .     A
O213   C220    1.273   .     A
O213   Cu227   1.936   .     S
O214   Cu228   1.936   .     S
O214   C219    1.273   .     A
H215   C243    1.084   .     S
H216   C244    1.084   .     S
H217   C245    1.084   .     S
H218   C246    1.084   .     S
C219   C247    1.407   .     S
C220   C248    1.407   .     S
O221   C225    1.280   .     A
O221   Cu227   1.974   .     S
O222   C226    1.280   .     A
O222   Cu228   1.974   .     S
O223   Cu227   1.974   .     S
O223   C226    1.280   .     A
O224   C225    1.280   .     A
O224   Cu228   1.974   .     S
C225   C236    1.464   .     S
C226   C235    1.464   .     S
Cu227  N230    1.976   .     S
Cu227  Cu228   2.630   .     S
Cu228  N229    1.976   .     S
N229   N734    1.195   1_554 S
N230   N481    1.195   .     S
C231   C235    1.407   .     A
C231   C239    1.396   .     A
C231   F249    1.361   .     S
C232   C236    1.407   .     A
C232   F250    1.361   .     S
C232   C240    1.396   .     A
C233   C237    1.396   .     A
C233   F251    1.361   .     S
C233   C235    1.407   .     A
C234   F252    1.361   .     S
C234   C236    1.407   .     A
C234   C238    1.396   .     A
C237   C243    1.403   .     A
C237   C241    1.412   .     A
C238   C244    1.403   .     A
C238   C242    1.412   .     A
C239   C245    1.403   .     A
C239   C241    1.412   .     A
C240   C246    1.403   .     A
C240   C242    1.412   .     A
C241   C200    1.405   1_655 S
C243   C204    1.391   1_655 S
C245   C202    1.391   1_655 S
C248   C79     1.189   1_565 S
O253   Cu269   1.936   .     S
O253   C261    1.273   .     A
O254   Cu270   1.936   .     S
O254   C262    1.273   .     A
O255   C262    1.273   .     A
O255   Cu269   1.936   .     S
O256   Cu270   1.936   .     S
O256   C261    1.273   .     A
H257   C285    1.084   .     S
H258   C286    1.084   .     S
H259   C287    1.084   .     S
H260   C288    1.084   .     S
C261   C289    1.407   .     S
C262   C290    1.407   .     S
O263   C267    1.280   .     A
O263   Cu269   1.974   .     S
O264   C268    1.280   .     A
O264   Cu270   1.974   .     S
O265   Cu269   1.974   .     S
O265   C268    1.280   .     A
O266   C267    1.280   .     A
O266   Cu270   1.974   .     S
C267   C278    1.464   .     S
C268   C277    1.464   .     S
Cu269  N272    1.976   .     S
Cu269  Cu270   2.630   .     S
Cu270  N271    1.976   .     S
N272   N523    1.195   .     S
C273   C277    1.407   .     A
C273   C281    1.396   .     A
C273   F291    1.361   .     S
C274   C278    1.407   .     A
C274   F292    1.361   .     S
C274   C282    1.396   .     A
C275   C279    1.396   .     A
C275   F293    1.361   .     S
C275   C277    1.407   .     A
C276   F294    1.361   .     S
C276   C278    1.407   .     A
C276   C280    1.396   .     A
C279   C285    1.403   .     A
C279   C283    1.412   .     A
C280   C286    1.403   .     A
C280   C284    1.412   .     A
C281   C287    1.403   .     A
C281   C283    1.412   .     A
C282   C288    1.403   .     A
C282   C284    1.412   .     A
C283   C326    1.405   .     S
C284   C325    1.405   1_455 S
C285   C330    1.391   .     S
C286   C329    1.391   1_455 S
C287   C328    1.391   .     S
C288   C327    1.391   1_455 S
C289   C458    1.189   1_545 S
C290   C373    1.189   .     S
O295   Cu311   1.936   .     S
O295   C303    1.273   .     A
O296   Cu312   1.936   .     S
O296   C304    1.273   .     A
O297   C304    1.273   .     A
O297   Cu311   1.936   .     S
O298   Cu312   1.936   .     S
O298   C303    1.273   .     A
H299   C327    1.084   .     S
H300   C328    1.084   .     S
H301   C329    1.084   .     S
H302   C330    1.084   .     S
C303   C331    1.407   .     S
C304   C332    1.407   .     S
O305   C309    1.280   .     A
O305   Cu311   1.974   .     S
O306   C310    1.280   .     A
O306   Cu312   1.974   .     S
O307   Cu311   1.974   .     S
O307   C310    1.280   .     A
O308   C309    1.280   .     A
O308   Cu312   1.974   .     S
C309   C320    1.464   .     S
C310   C319    1.464   .     S
Cu311  N314    1.976   .     S
Cu311  Cu312   2.630   .     S
Cu312  N313    1.976   .     S
N314   N565    1.195   .     S
C315   C319    1.407   .     A
C315   C323    1.396   .     A
C315   F333    1.361   .     S
C316   C320    1.407   .     A
C316   F334    1.361   .     S
C316   C324    1.396   .     A
C317   C321    1.396   .     A
C317   F335    1.361   .     S
C317   C319    1.407   .     A
C318   F336    1.361   .     S
C318   C320    1.407   .     A
C318   C322    1.396   .     A
C321   C327    1.403   .     A
C321   C325    1.412   .     A
C322   C328    1.403   .     A
C322   C326    1.412   .     A
C323   C329    1.403   .     A
C323   C325    1.412   .     A
C324   C330    1.403   .     A
C324   C326    1.412   .     A
C325   C284    1.405   1_655 S
C327   C288    1.391   1_655 S
C329   C286    1.391   1_655 S
C331   C500    1.189   1_545 S
C332   C415    1.189   .     S
O337   Cu353   1.936   .     S
O337   C345    1.273   .     A
O338   Cu354   1.936   .     S
O338   C346    1.273   .     A
O339   C346    1.273   .     A
O339   Cu353   1.936   .     S
O340   Cu354   1.936   .     S
O340   C345    1.273   .     A
H341   C369    1.084   .     S
H342   C370    1.084   .     S
H343   C371    1.084   .     S
H344   C372    1.084   .     S
C345   C373    1.407   .     S
C346   C374    1.407   .     S
O347   C351    1.280   .     A
O347   Cu353   1.974   .     S
O348   C352    1.280   .     A
O348   Cu354   1.974   .     S
O349   Cu353   1.974   .     S
O349   C352    1.280   .     A
O350   C351    1.280   .     A
O350   Cu354   1.974   .     S
C351   C362    1.464   .     S
C352   C361    1.464   .     S
Cu353  N356    1.976   .     S
Cu353  Cu354   2.630   .     S
Cu354  N355    1.976   .     S
N356   N607    1.195   .     S
C357   C361    1.407   .     A
C357   C365    1.396   .     A
C357   F375    1.361   .     S
C358   C362    1.407   .     A
C358   F376    1.361   .     S
C358   C366    1.396   .     A
C359   C363    1.396   .     A
C359   F377    1.361   .     S
C359   C361    1.407   .     A
C360   F378    1.361   .     S
C360   C362    1.407   .     A
C360   C364    1.396   .     A
C363   C369    1.403   .     A
C363   C367    1.412   .     A
C364   C370    1.403   .     A
C364   C368    1.412   .     A
C365   C371    1.403   .     A
C365   C367    1.412   .     A
C366   C372    1.403   .     A
C366   C368    1.412   .     A
C367   C410    1.405   .     S
C368   C409    1.405   1_455 S
C369   C414    1.391   .     S
C370   C413    1.391   1_455 S
C371   C412    1.391   .     S
C372   C411    1.391   1_455 S
C374   C457    1.189   .     S
O379   Cu395   1.936   .     S
O379   C387    1.273   .     A
O380   Cu396   1.936   .     S
O380   C388    1.273   .     A
O381   C388    1.273   .     A
O381   Cu395   1.936   .     S
O382   Cu396   1.936   .     S
O382   C387    1.273   .     A
H383   C411    1.084   .     S
H384   C412    1.084   .     S
H385   C413    1.084   .     S
H386   C414    1.084   .     S
C387   C415    1.407   .     S
C388   C416    1.407   .     S
O389   C393    1.280   .     A
O389   Cu395   1.974   .     S
O390   C394    1.280   .     A
O390   Cu396   1.974   .     S
O391   Cu395   1.974   .     S
O391   C394    1.280   .     A
O392   C393    1.280   .     A
O392   Cu396   1.974   .     S
C393   C404    1.464   .     S
C394   C403    1.464   .     S
Cu395  N398    1.976   .     S
Cu395  Cu396   2.630   .     S
Cu396  N397    1.976   .     S
N398   N649    1.195   .     S
C399   C403    1.407   .     A
C399   C407    1.396   .     A
C399   F417    1.361   .     S
C400   C404    1.407   .     A
C400   F418    1.361   .     S
C400   C408    1.396   .     A
C401   C405    1.396   .     A
C401   F419    1.361   .     S
C401   C403    1.407   .     A
C402   F420    1.361   .     S
C402   C404    1.407   .     A
C402   C406    1.396   .     A
C405   C411    1.403   .     A
C405   C409    1.412   .     A
C406   C412    1.403   .     A
C406   C410    1.412   .     A
C407   C413    1.403   .     A
C407   C409    1.412   .     A
C408   C414    1.403   .     A
C408   C410    1.412   .     A
C409   C368    1.405   1_655 S
C411   C372    1.391   1_655 S
C413   C370    1.391   1_655 S
C416   C499    1.189   .     S
O421   Cu437   1.936   .     S
O421   C429    1.273   .     A
O422   Cu438   1.936   .     S
O422   C430    1.273   .     A
O423   C430    1.273   .     A
O423   Cu437   1.936   .     S
O424   Cu438   1.936   .     S
O424   C429    1.273   .     A
H425   C453    1.084   .     S
H426   C454    1.084   .     S
H427   C455    1.084   .     S
H428   C456    1.084   .     S
C429   C457    1.407   .     S
C430   C458    1.407   .     S
O431   C435    1.280   .     A
O431   Cu437   1.974   .     S
O432   C436    1.280   .     A
O432   Cu438   1.974   .     S
O433   Cu437   1.974   .     S
O433   C436    1.280   .     A
O434   C435    1.280   .     A
O434   Cu438   1.974   .     S
C435   C446    1.464   .     S
C436   C445    1.464   .     S
Cu437  N440    1.976   .     S
Cu437  Cu438   2.630   .     S
Cu438  N439    1.976   .     S
N440   N691    1.195   .     S
C441   C445    1.407   .     A
C441   C449    1.396   .     A
C441   F459    1.361   .     S
C442   C446    1.407   .     A
C442   F460    1.361   .     S
C442   C450    1.396   .     A
C443   C447    1.396   .     A
C443   F461    1.361   .     S
C443   C445    1.407   .     A
C444   F462    1.361   .     S
C444   C446    1.407   .     A
C444   C448    1.396   .     A
C447   C453    1.403   .     A
C447   C451    1.412   .     A
C448   C454    1.403   .     A
C448   C452    1.412   .     A
C449   C455    1.403   .     A
C449   C451    1.412   .     A
C450   C456    1.403   .     A
C450   C452    1.412   .     A
C451   C494    1.405   .     S
C452   C493    1.405   1_455 S
C453   C498    1.391   .     S
C454   C497    1.391   1_455 S
C455   C496    1.391   .     S
C456   C495    1.391   1_455 S
C458   C289    1.189   1_565 S
O463   Cu479   1.936   .     S
O463   C471    1.273   .     A
O464   Cu480   1.936   .     S
O464   C472    1.273   .     A
O465   C472    1.273   .     A
O465   Cu479   1.936   .     S
O466   Cu480   1.936   .     S
O466   C471    1.273   .     A
H467   C495    1.084   .     S
H468   C496    1.084   .     S
H469   C497    1.084   .     S
H470   C498    1.084   .     S
C471   C499    1.407   .     S
C472   C500    1.407   .     S
O473   C477    1.280   .     A
O473   Cu479   1.974   .     S
O474   C478    1.280   .     A
O474   Cu480   1.974   .     S
O475   Cu479   1.974   .     S
O475   C478    1.280   .     A
O476   C477    1.280   .     A
O476   Cu480   1.974   .     S
C477   C488    1.464   .     S
C478   C487    1.464   .     S
Cu479  N482    1.976   .     S
Cu479  Cu480   2.630   .     S
Cu480  N481    1.976   .     S
N482   N733    1.195   .     S
C483   C487    1.407   .     A
C483   C491    1.396   .     A
C483   F501    1.361   .     S
C484   C488    1.407   .     A
C484   F502    1.361   .     S
C484   C492    1.396   .     A
C485   C489    1.396   .     A
C485   F503    1.361   .     S
C485   C487    1.407   .     A
C486   F504    1.361   .     S
C486   C488    1.407   .     A
C486   C490    1.396   .     A
C489   C495    1.403   .     A
C489   C493    1.412   .     A
C490   C496    1.403   .     A
C490   C494    1.412   .     A
C491   C497    1.403   .     A
C491   C493    1.412   .     A
C492   C498    1.403   .     A
C492   C494    1.412   .     A
C493   C452    1.405   1_655 S
C495   C456    1.391   1_655 S
C497   C454    1.391   1_655 S
C500   C331    1.189   1_565 S
O505   Cu521   1.936   .     S
O505   C513    1.273   .     A
O506   Cu522   1.936   .     S
O506   C514    1.273   .     A
O507   C514    1.273   .     A
O507   Cu521   1.936   .     S
O508   Cu522   1.936   .     S
O508   C513    1.273   .     A
H509   C537    1.084   .     S
H510   C538    1.084   .     S
H511   C539    1.084   .     S
H512   C540    1.084   .     S
C513   C541    1.407   .     S
C514   C542    1.407   .     S
O515   C519    1.280   .     A
O515   Cu521   1.974   .     S
O516   C520    1.280   .     A
O516   Cu522   1.974   .     S
O517   Cu521   1.974   .     S
O517   C520    1.280   .     A
O518   C519    1.280   .     A
O518   Cu522   1.974   .     S
C519   C530    1.464   .     S
C520   C529    1.464   .     S
Cu521  N524    1.976   .     S
Cu521  Cu522   2.630   .     S
Cu522  N523    1.976   .     S
N524   N19     1.195   1_556 S
C525   C529    1.407   .     A
C525   C533    1.396   .     A
C525   F543    1.361   .     S
C526   C530    1.407   .     A
C526   F544    1.361   .     S
C526   C534    1.396   .     A
C527   C531    1.396   .     A
C527   F545    1.361   .     S
C527   C529    1.407   .     A
C528   F546    1.361   .     S
C528   C530    1.407   .     A
C528   C532    1.396   .     A
C531   C537    1.403   .     A
C531   C535    1.412   .     A
C532   C538    1.403   .     A
C532   C536    1.412   .     A
C533   C539    1.403   .     A
C533   C535    1.412   .     A
C534   C540    1.403   .     A
C534   C536    1.412   .     A
C535   C578    1.405   .     S
C536   C577    1.405   1_455 S
C537   C582    1.391   .     S
C538   C581    1.391   1_455 S
C539   C580    1.391   .     S
C540   C579    1.391   1_455 S
C541   C710    1.189   1_545 S
C542   C625    1.189   .     S
O547   Cu563   1.936   .     S
O547   C555    1.273   .     A
O548   Cu564   1.936   .     S
O548   C556    1.273   .     A
O549   C556    1.273   .     A
O549   Cu563   1.936   .     S
O550   Cu564   1.936   .     S
O550   C555    1.273   .     A
H551   C579    1.084   .     S
H552   C580    1.084   .     S
H553   C581    1.084   .     S
H554   C582    1.084   .     S
C555   C583    1.407   .     S
C556   C584    1.407   .     S
O557   C561    1.280   .     A
O557   Cu563   1.974   .     S
O558   C562    1.280   .     A
O558   Cu564   1.974   .     S
O559   Cu563   1.974   .     S
O559   C562    1.280   .     A
O560   C561    1.280   .     A
O560   Cu564   1.974   .     S
C561   C572    1.464   .     S
C562   C571    1.464   .     S
Cu563  N566    1.976   .     S
Cu563  Cu564   2.630   .     S
Cu564  N565    1.976   .     S
N566   N61     1.195   1_556 S
C567   C571    1.407   .     A
C567   C575    1.396   .     A
C567   F585    1.361   .     S
C568   C572    1.407   .     A
C568   F586    1.361   .     S
C568   C576    1.396   .     A
C569   C573    1.396   .     A
C569   F587    1.361   .     S
C569   C571    1.407   .     A
C570   F588    1.361   .     S
C570   C572    1.407   .     A
C570   C574    1.396   .     A
C573   C579    1.403   .     A
C573   C577    1.412   .     A
C574   C580    1.403   .     A
C574   C578    1.412   .     A
C575   C581    1.403   .     A
C575   C577    1.412   .     A
C576   C582    1.403   .     A
C576   C578    1.412   .     A
C577   C536    1.405   1_655 S
C579   C540    1.391   1_655 S
C581   C538    1.391   1_655 S
C583   C752    1.189   1_545 S
C584   C667    1.189   .     S
O589   Cu605   1.936   .     S
O589   C597    1.273   .     A
O590   Cu606   1.936   .     S
O590   C598    1.273   .     A
O591   C598    1.273   .     A
O591   Cu605   1.936   .     S
O592   Cu606   1.936   .     S
O592   C597    1.273   .     A
H593   C621    1.084   .     S
H594   C622    1.084   .     S
H595   C623    1.084   .     S
H596   C624    1.084   .     S
C597   C625    1.407   .     S
C598   C626    1.407   .     S
O599   C603    1.280   .     A
O599   Cu605   1.974   .     S
O600   C604    1.280   .     A
O600   Cu606   1.974   .     S
O601   Cu605   1.974   .     S
O601   C604    1.280   .     A
O602   C603    1.280   .     A
O602   Cu606   1.974   .     S
C603   C614    1.464   .     S
C604   C613    1.464   .     S
Cu605  N608    1.976   .     S
Cu605  Cu606   2.630   .     S
Cu606  N607    1.976   .     S
N608   N103    1.195   1_556 S
C609   C613    1.407   .     A
C609   C617    1.396   .     A
C609   F627    1.361   .     S
C610   C614    1.407   .     A
C610   F628    1.361   .     S
C610   C618    1.396   .     A
C611   C615    1.396   .     A
C611   F629    1.361   .     S
C611   C613    1.407   .     A
C612   F630    1.361   .     S
C612   C614    1.407   .     A
C612   C616    1.396   .     A
C615   C621    1.403   .     A
C615   C619    1.412   .     A
C616   C622    1.403   .     A
C616   C620    1.412   .     A
C617   C623    1.403   .     A
C617   C619    1.412   .     A
C618   C624    1.403   .     A
C618   C620    1.412   .     A
C619   C662    1.405   .     S
C620   C661    1.405   1_455 S
C621   C666    1.391   .     S
C622   C665    1.391   1_455 S
C623   C664    1.391   .     S
C624   C663    1.391   1_455 S
C626   C709    1.189   .     S
O631   Cu647   1.936   .     S
O631   C639    1.273   .     A
O632   Cu648   1.936   .     S
O632   C640    1.273   .     A
O633   C640    1.273   .     A
O633   Cu647   1.936   .     S
O634   Cu648   1.936   .     S
O634   C639    1.273   .     A
H635   C663    1.084   .     S
H636   C664    1.084   .     S
H637   C665    1.084   .     S
H638   C666    1.084   .     S
C639   C667    1.407   .     S
C640   C668    1.407   .     S
O641   C645    1.280   .     A
O641   Cu647   1.974   .     S
O642   C646    1.280   .     A
O642   Cu648   1.974   .     S
O643   Cu647   1.974   .     S
O643   C646    1.280   .     A
O644   C645    1.280   .     A
O644   Cu648   1.974   .     S
C645   C656    1.464   .     S
C646   C655    1.464   .     S
Cu647  N650    1.976   .     S
Cu647  Cu648   2.630   .     S
Cu648  N649    1.976   .     S
N650   N145    1.195   1_556 S
C651   C655    1.407   .     A
C651   C659    1.396   .     A
C651   F669    1.361   .     S
C652   C656    1.407   .     A
C652   F670    1.361   .     S
C652   C660    1.396   .     A
C653   C657    1.396   .     A
C653   F671    1.361   .     S
C653   C655    1.407   .     A
C654   F672    1.361   .     S
C654   C656    1.407   .     A
C654   C658    1.396   .     A
C657   C663    1.403   .     A
C657   C661    1.412   .     A
C658   C664    1.403   .     A
C658   C662    1.412   .     A
C659   C665    1.403   .     A
C659   C661    1.412   .     A
C660   C666    1.403   .     A
C660   C662    1.412   .     A
C661   C620    1.405   1_655 S
C663   C624    1.391   1_655 S
C665   C622    1.391   1_655 S
C668   C751    1.189   .     S
O673   Cu689   1.936   .     S
O673   C681    1.273   .     A
O674   Cu690   1.936   .     S
O674   C682    1.273   .     A
O675   C682    1.273   .     A
O675   Cu689   1.936   .     S
O676   Cu690   1.936   .     S
O676   C681    1.273   .     A
H677   C705    1.084   .     S
H678   C706    1.084   .     S
H679   C707    1.084   .     S
H680   C708    1.084   .     S
C681   C709    1.407   .     S
C682   C710    1.407   .     S
O683   C687    1.280   .     A
O683   Cu689   1.974   .     S
O684   C688    1.280   .     A
O684   Cu690   1.974   .     S
O685   Cu689   1.974   .     S
O685   C688    1.280   .     A
O686   C687    1.280   .     A
O686   Cu690   1.974   .     S
C687   C698    1.464   .     S
C688   C697    1.464   .     S
Cu689  N692    1.976   .     S
Cu689  Cu690   2.630   .     S
Cu690  N691    1.976   .     S
N692   N187    1.195   1_556 S
C693   C697    1.407   .     A
C693   C701    1.396   .     A
C693   F711    1.361   .     S
C694   C698    1.407   .     A
C694   F712    1.361   .     S
C694   C702    1.396   .     A
C695   C699    1.396   .     A
C695   F713    1.361   .     S
C695   C697    1.407   .     A
C696   F714    1.361   .     S
C696   C698    1.407   .     A
C696   C700    1.396   .     A
C699   C705    1.403   .     A
C699   C703    1.412   .     A
C700   C706    1.403   .     A
C700   C704    1.412   .     A
C701   C707    1.403   .     A
C701   C703    1.412   .     A
C702   C708    1.403   .     A
C702   C704    1.412   .     A
C703   C746    1.405   .     S
C704   C745    1.405   1_455 S
C705   C750    1.391   .     S
C706   C749    1.391   1_455 S
C707   C748    1.391   .     S
C708   C747    1.391   1_455 S
C710   C541    1.189   1_565 S
O715   Cu731   1.936   .     S
O715   C723    1.273   .     A
O716   Cu732   1.936   .     S
O716   C724    1.273   .     A
O717   C724    1.273   .     A
O717   Cu731   1.936   .     S
O718   Cu732   1.936   .     S
O718   C723    1.273   .     A
H719   C747    1.084   .     S
H720   C748    1.084   .     S
H721   C749    1.084   .     S
H722   C750    1.084   .     S
C723   C751    1.407   .     S
C724   C752    1.407   .     S
O725   C729    1.280   .     A
O725   Cu731   1.974   .     S
O726   C730    1.280   .     A
O726   Cu732   1.974   .     S
O727   Cu731   1.974   .     S
O727   C730    1.280   .     A
O728   C729    1.280   .     A
O728   Cu732   1.974   .     S
C729   C740    1.464   .     S
C730   C739    1.464   .     S
Cu731  N734    1.976   .     S
Cu731  Cu732   2.630   .     S
Cu732  N733    1.976   .     S
N734   N229    1.195   1_556 S
C735   C739    1.407   .     A
C735   C743    1.396   .     A
C735   F753    1.361   .     S
C736   C740    1.407   .     A
C736   F754    1.361   .     S
C736   C744    1.396   .     A
C737   C741    1.396   .     A
C737   F755    1.361   .     S
C737   C739    1.407   .     A
C738   F756    1.361   .     S
C738   C740    1.407   .     A
C738   C742    1.396   .     A
C741   C747    1.403   .     A
C741   C745    1.412   .     A
C742   C748    1.403   .     A
C742   C746    1.412   .     A
C743   C749    1.403   .     A
C743   C745    1.412   .     A
C744   C750    1.403   .     A
C744   C746    1.412   .     A
C745   C704    1.405   1_655 S
C747   C708    1.391   1_655 S
C749   C706    1.391   1_655 S
C752   C583    1.189   1_565 S
