data_str_m2_o1_o18_pcu_sym.147
_audit_creation_date              2020-01-03
_audit_creation_method            'Materials Studio'
_symmetry_space_group_name_H-M    'P1'
_symmetry_Int_Tables_number       1
_symmetry_cell_setting            triclinic
loop_
_symmetry_equiv_pos_as_xyz
  x,y,z
_cell_length_a                    28.9795
_cell_length_b                    32.4742
_cell_length_c                    30.5662
_cell_angle_alpha                 86.7503
_cell_angle_beta                  75.2788
_cell_angle_gamma                 88.5522
loop_
_atom_site_label
_atom_site_type_symbol
_atom_site_fract_x
_atom_site_fract_y
_atom_site_fract_z
_atom_site_U_iso_or_equiv
_atom_site_adp_type
_atom_site_occupancy
C1     C     0.00084   0.08761   0.24848   0.00000  Uiso   1.00
C2     C     0.33248   0.24572   0.25162   0.00000  Uiso   1.00
C3     C     0.19005   0.19326   0.04425   0.00000  Uiso   1.00
C4     C     0.14046   0.15882   0.45171   0.00000  Uiso   1.00
C5     C     0.23779   0.19880   0.02209   0.00000  Uiso   1.00
C6     C     0.09280   0.15290   0.47364   0.00000  Uiso   1.00
C7     C     0.30561   0.02248   0.22500   0.00000  Uiso   1.00
C8     C     0.02772   0.31086   0.27524   0.00000  Uiso   1.00
C9     C     0.30297   0.31321   0.22985   0.00000  Uiso   1.00
C10    C     0.03033   0.02015   0.27043   0.00000  Uiso   1.00
C11    C     0.33130   0.29039   0.25349   0.00000  Uiso   1.00
C12    C     0.00202   0.04295   0.24673   0.00000  Uiso   1.00
C13    C     0.18357   0.14912   0.28514   0.00000  Uiso   1.00
C14    C     0.14975   0.18411   0.21482   0.00000  Uiso   1.00
C15    C     0.13416   0.14993   0.28667   0.00000  Uiso   1.00
C16    C     0.19911   0.18338   0.21335   0.00000  Uiso   1.00
C17    C     0.30630   0.16739   0.33620   0.00000  Uiso   1.00
C18    C     0.02706   0.16639   0.16372   0.00000  Uiso   1.00
C19    C     0.29085   0.17186   0.38560   0.00000  Uiso   1.00
C20    C     0.04249   0.16509   0.11384   0.00000  Uiso   1.00
C21    C     0.30308   0.19647   0.45502   0.00000  Uiso   1.00
C22    C     0.02900   0.14842   0.04195   0.00000  Uiso   1.00
C23    C     0.32057   0.18875   0.40937   0.00000  Uiso   1.00
C24    C     0.01239   0.15131   0.08860   0.00000  Uiso   1.00
C25    C     0.24323   0.16331   0.40812   0.00000  Uiso   1.00
C26    C     0.08986   0.17515   0.09167   0.00000  Uiso   1.00
C27    C     0.22362   0.17395   0.45322   0.00000  Uiso   1.00
C28    C     0.10824   0.17090   0.04475   0.00000  Uiso   1.00
C29    C     0.25494   0.18948   0.47696   0.00000  Uiso   1.00
C30    C     0.07658   0.15761   0.01999   0.00000  Uiso   1.00
C31    C     0.17404   0.16974   0.47527   0.00000  Uiso   1.00
C32    C     0.15725   0.17806   0.02201   0.00000  Uiso   1.00
Cu33   Cu    0.04689   0.16667   0.25000   0.00000  Uiso   1.00
Cu34   Cu    0.28645   0.16666   0.25000   0.00000  Uiso   1.00
H35    H     0.26156   0.21064   0.04040   0.00000  Uiso   1.00
H36    H     0.06851   0.14405   0.45418   0.00000  Uiso   1.00
H37    H     0.11208   0.18504   0.11228   0.00000  Uiso   1.00
H38    H     0.22211   0.14848   0.38941   0.00000  Uiso   1.00
H39    H     0.31007   0.14111   0.10478   0.00000  Uiso   1.00
H40    H     0.02334   0.19749   0.39261   0.00000  Uiso   1.00
H41    H     0.32685   0.20931   0.47282   0.00000  Uiso   1.00
H42    H     0.00499   0.13758   0.02318   0.00000  Uiso   1.00
H43    H     0.17983   0.20234   0.07861   0.00000  Uiso   1.00
H44    H     0.14980   0.15549   0.41585   0.00000  Uiso   1.00
H45    H     0.28017   0.29803   0.21314   0.00000  Uiso   1.00
H46    H     0.05311   0.03539   0.28717   0.00000  Uiso   1.00
H47    H     0.19625   0.13500   0.31287   0.00000  Uiso   1.00
H48    H     0.13707   0.19827   0.18711   0.00000  Uiso   1.00
N49    N     0.11736   0.16668   0.24999   0.00000  Uiso   1.00
N50    N     0.21597   0.16666   0.25001   0.00000  Uiso   1.00
O51    O     0.03958   0.10655   0.25000   0.00000  Uiso   1.00
O52    O     0.29375   0.22678   0.25000   0.00000  Uiso   1.00
O53    O     0.29372   0.10654   0.25000   0.00000  Uiso   1.00
O54    O     0.03961   0.22679   0.24999   0.00000  Uiso   1.00
O55    O     0.01852   0.16668   0.31491   0.00000  Uiso   1.00
O56    O     0.31481   0.16666   0.18508   0.00000  Uiso   1.00
O57    O     0.27267   0.16667   0.31492   0.00000  Uiso   1.00
O58    O     0.06067   0.16667   0.18508   0.00000  Uiso   1.00
O59    O     0.27975   0.04254   0.19784   0.00000  Uiso   1.00
H60    H     0.29654   0.06816   0.18419   0.00000  Uiso   1.00
O61    O     0.05359   0.29077   0.30237   0.00000  Uiso   1.00
H62    H     0.03690   0.26508   0.31589   0.00000  Uiso   1.00
C63    C     0.10321   0.13665   0.33322   0.00000  Uiso   1.00
C64    C     0.08036   0.09425   0.33632   0.00000  Uiso   1.00
C65    C     0.06379   0.07714   0.38531   0.00000  Uiso   1.00
H66    H     0.04701   0.04665   0.38611   0.00000  Uiso   1.00
H67    H     0.09449   0.07309   0.40081   0.00000  Uiso   1.00
H68    H     0.03700   0.09833   0.40549   0.00000  Uiso   1.00
H69    H     0.10655   0.07227   0.31667   0.00000  Uiso   1.00
H70    H     0.04849   0.09650   0.32314   0.00000  Uiso   1.00
H71    H     0.12552   0.13425   0.35780   0.00000  Uiso   1.00
H72    H     0.07872   0.16137   0.34763   0.00000  Uiso   1.00
C73    C     0.22992   0.19738   0.16705   0.00000  Uiso   1.00
C74    C     0.25211   0.23992   0.16521   0.00000  Uiso   1.00
C75    C     0.26694   0.25918   0.11705   0.00000  Uiso   1.00
H76    H     0.29432   0.23943   0.09543   0.00000  Uiso   1.00
H77    H     0.23559   0.26323   0.10249   0.00000  Uiso   1.00
H78    H     0.28262   0.28995   0.11755   0.00000  Uiso   1.00
H79    H     0.22604   0.26090   0.18659   0.00000  Uiso   1.00
H80    H     0.28477   0.23719   0.17712   0.00000  Uiso   1.00
H81    H     0.25482   0.17308   0.15253   0.00000  Uiso   1.00
H82    H     0.20789   0.19958   0.14216   0.00000  Uiso   1.00
C83    C     0.33417   0.08761   0.24848   0.00000  Uiso   1.00
C84    C     0.66582   0.24572   0.25162   0.00000  Uiso   1.00
C85    C     0.52339   0.19326   0.04425   0.00000  Uiso   1.00
C86    C     0.47379   0.15882   0.45171   0.00000  Uiso   1.00
C87    C     0.57112   0.19880   0.02209   0.00000  Uiso   1.00
C88    C     0.42613   0.15290   0.47364   0.00000  Uiso   1.00
C89    C     0.63894   0.02248   0.22500   0.00000  Uiso   1.00
C90    C     0.36105   0.31086   0.27524   0.00000  Uiso   1.00
C91    C     0.63631   0.31321   0.22985   0.00000  Uiso   1.00
C92    C     0.36366   0.02015   0.27043   0.00000  Uiso   1.00
C93    C     0.66463   0.29039   0.25349   0.00000  Uiso   1.00
C94    C     0.33536   0.04295   0.24673   0.00000  Uiso   1.00
C95    C     0.51690   0.14912   0.28514   0.00000  Uiso   1.00
C96    C     0.48308   0.18411   0.21482   0.00000  Uiso   1.00
C97    C     0.46749   0.14993   0.28667   0.00000  Uiso   1.00
C98    C     0.53244   0.18338   0.21335   0.00000  Uiso   1.00
C99    C     0.63963   0.16739   0.33620   0.00000  Uiso   1.00
C100   C     0.36039   0.16639   0.16372   0.00000  Uiso   1.00
C101   C     0.62418   0.17186   0.38560   0.00000  Uiso   1.00
C102   C     0.37582   0.16509   0.11384   0.00000  Uiso   1.00
C103   C     0.63641   0.19647   0.45502   0.00000  Uiso   1.00
C104   C     0.36234   0.14842   0.04195   0.00000  Uiso   1.00
C105   C     0.65390   0.18875   0.40937   0.00000  Uiso   1.00
C106   C     0.34573   0.15131   0.08860   0.00000  Uiso   1.00
C107   C     0.57656   0.16331   0.40812   0.00000  Uiso   1.00
C108   C     0.42320   0.17515   0.09167   0.00000  Uiso   1.00
C109   C     0.55696   0.17395   0.45322   0.00000  Uiso   1.00
C110   C     0.44157   0.17090   0.04475   0.00000  Uiso   1.00
C111   C     0.58827   0.18948   0.47696   0.00000  Uiso   1.00
C112   C     0.40992   0.15761   0.01999   0.00000  Uiso   1.00
C113   C     0.50737   0.16974   0.47527   0.00000  Uiso   1.00
C114   C     0.49058   0.17806   0.02201   0.00000  Uiso   1.00
Cu115  Cu    0.38022   0.16667   0.25000   0.00000  Uiso   1.00
Cu116  Cu    0.61978   0.16666   0.25000   0.00000  Uiso   1.00
H117   H     0.59489   0.21064   0.04040   0.00000  Uiso   1.00
H118   H     0.40185   0.14405   0.45418   0.00000  Uiso   1.00
H119   H     0.44541   0.18504   0.11228   0.00000  Uiso   1.00
H120   H     0.55544   0.14848   0.38941   0.00000  Uiso   1.00
H121   H     0.64340   0.14111   0.10478   0.00000  Uiso   1.00
H122   H     0.35667   0.19749   0.39261   0.00000  Uiso   1.00
H123   H     0.66018   0.20931   0.47282   0.00000  Uiso   1.00
H124   H     0.33833   0.13758   0.02318   0.00000  Uiso   1.00
H125   H     0.51316   0.20234   0.07861   0.00000  Uiso   1.00
H126   H     0.48314   0.15549   0.41585   0.00000  Uiso   1.00
H127   H     0.61350   0.29803   0.21314   0.00000  Uiso   1.00
H128   H     0.38644   0.03539   0.28717   0.00000  Uiso   1.00
H129   H     0.52958   0.13500   0.31287   0.00000  Uiso   1.00
H130   H     0.47040   0.19827   0.18711   0.00000  Uiso   1.00
N131   N     0.45069   0.16668   0.24999   0.00000  Uiso   1.00
N132   N     0.54931   0.16666   0.25001   0.00000  Uiso   1.00
O133   O     0.37291   0.10655   0.25000   0.00000  Uiso   1.00
O134   O     0.62709   0.22678   0.25000   0.00000  Uiso   1.00
O135   O     0.62706   0.10654   0.25000   0.00000  Uiso   1.00
O136   O     0.37294   0.22679   0.24999   0.00000  Uiso   1.00
O137   O     0.35186   0.16668   0.31491   0.00000  Uiso   1.00
O138   O     0.64814   0.16666   0.18508   0.00000  Uiso   1.00
O139   O     0.60600   0.16667   0.31492   0.00000  Uiso   1.00
O140   O     0.39400   0.16667   0.18508   0.00000  Uiso   1.00
O141   O     0.61308   0.04254   0.19784   0.00000  Uiso   1.00
H142   H     0.62987   0.06816   0.18419   0.00000  Uiso   1.00
O143   O     0.38693   0.29077   0.30237   0.00000  Uiso   1.00
H144   H     0.37023   0.26508   0.31589   0.00000  Uiso   1.00
C145   C     0.43654   0.13665   0.33322   0.00000  Uiso   1.00
C146   C     0.41370   0.09425   0.33632   0.00000  Uiso   1.00
C147   C     0.39712   0.07714   0.38531   0.00000  Uiso   1.00
H148   H     0.38034   0.04665   0.38611   0.00000  Uiso   1.00
H149   H     0.42782   0.07309   0.40081   0.00000  Uiso   1.00
H150   H     0.37033   0.09833   0.40549   0.00000  Uiso   1.00
H151   H     0.43988   0.07227   0.31667   0.00000  Uiso   1.00
H152   H     0.38182   0.09650   0.32314   0.00000  Uiso   1.00
H153   H     0.45885   0.13425   0.35780   0.00000  Uiso   1.00
H154   H     0.41206   0.16137   0.34763   0.00000  Uiso   1.00
C155   C     0.56326   0.19738   0.16705   0.00000  Uiso   1.00
C156   C     0.58544   0.23992   0.16521   0.00000  Uiso   1.00
C157   C     0.60028   0.25918   0.11705   0.00000  Uiso   1.00
H158   H     0.62765   0.23943   0.09543   0.00000  Uiso   1.00
H159   H     0.56893   0.26323   0.10249   0.00000  Uiso   1.00
H160   H     0.61596   0.28995   0.11755   0.00000  Uiso   1.00
H161   H     0.55937   0.26090   0.18659   0.00000  Uiso   1.00
H162   H     0.61811   0.23719   0.17712   0.00000  Uiso   1.00
H163   H     0.58815   0.17308   0.15253   0.00000  Uiso   1.00
H164   H     0.54122   0.19958   0.14216   0.00000  Uiso   1.00
C165   C     0.66750   0.08761   0.24848   0.00000  Uiso   1.00
C166   C     0.99915   0.24572   0.25162   0.00000  Uiso   1.00
C167   C     0.85672   0.19326   0.04425   0.00000  Uiso   1.00
C168   C     0.80713   0.15882   0.45171   0.00000  Uiso   1.00
C169   C     0.90445   0.19880   0.02209   0.00000  Uiso   1.00
C170   C     0.75946   0.15290   0.47364   0.00000  Uiso   1.00
C171   C     0.97228   0.02248   0.22500   0.00000  Uiso   1.00
C172   C     0.69439   0.31086   0.27524   0.00000  Uiso   1.00
C173   C     0.96964   0.31321   0.22985   0.00000  Uiso   1.00
C174   C     0.69700   0.02015   0.27043   0.00000  Uiso   1.00
C175   C     0.99796   0.29039   0.25349   0.00000  Uiso   1.00
C176   C     0.66869   0.04295   0.24673   0.00000  Uiso   1.00
C177   C     0.85024   0.14912   0.28514   0.00000  Uiso   1.00
C178   C     0.81642   0.18411   0.21482   0.00000  Uiso   1.00
C179   C     0.80082   0.14993   0.28667   0.00000  Uiso   1.00
C180   C     0.86578   0.18338   0.21335   0.00000  Uiso   1.00
C181   C     0.97297   0.16739   0.33620   0.00000  Uiso   1.00
C182   C     0.69373   0.16639   0.16372   0.00000  Uiso   1.00
C183   C     0.95751   0.17186   0.38560   0.00000  Uiso   1.00
C184   C     0.70916   0.16509   0.11384   0.00000  Uiso   1.00
C185   C     0.96974   0.19647   0.45502   0.00000  Uiso   1.00
C186   C     0.69567   0.14842   0.04195   0.00000  Uiso   1.00
C187   C     0.98724   0.18875   0.40937   0.00000  Uiso   1.00
C188   C     0.67906   0.15131   0.08860   0.00000  Uiso   1.00
C189   C     0.90989   0.16331   0.40812   0.00000  Uiso   1.00
C190   C     0.75653   0.17515   0.09167   0.00000  Uiso   1.00
C191   C     0.89029   0.17395   0.45322   0.00000  Uiso   1.00
C192   C     0.77491   0.17090   0.04475   0.00000  Uiso   1.00
C193   C     0.92160   0.18948   0.47696   0.00000  Uiso   1.00
C194   C     0.74325   0.15761   0.01999   0.00000  Uiso   1.00
C195   C     0.84070   0.16974   0.47527   0.00000  Uiso   1.00
C196   C     0.82392   0.17806   0.02201   0.00000  Uiso   1.00
Cu197  Cu    0.71355   0.16667   0.25000   0.00000  Uiso   1.00
Cu198  Cu    0.95311   0.16666   0.25000   0.00000  Uiso   1.00
H199   H     0.92823   0.21064   0.04040   0.00000  Uiso   1.00
H200   H     0.73518   0.14405   0.45418   0.00000  Uiso   1.00
H201   H     0.77875   0.18504   0.11228   0.00000  Uiso   1.00
H202   H     0.88877   0.14848   0.38941   0.00000  Uiso   1.00
H203   H     0.97674   0.14111   0.10478   0.00000  Uiso   1.00
H204   H     0.69000   0.19749   0.39261   0.00000  Uiso   1.00
H205   H     0.99351   0.20931   0.47282   0.00000  Uiso   1.00
H206   H     0.67166   0.13758   0.02318   0.00000  Uiso   1.00
H207   H     0.84650   0.20234   0.07861   0.00000  Uiso   1.00
H208   H     0.81647   0.15549   0.41585   0.00000  Uiso   1.00
H209   H     0.94684   0.29803   0.21314   0.00000  Uiso   1.00
H210   H     0.71978   0.03539   0.28717   0.00000  Uiso   1.00
H211   H     0.86291   0.13500   0.31287   0.00000  Uiso   1.00
H212   H     0.80373   0.19827   0.18711   0.00000  Uiso   1.00
N213   N     0.78403   0.16668   0.24999   0.00000  Uiso   1.00
N214   N     0.88264   0.16666   0.25001   0.00000  Uiso   1.00
O215   O     0.70625   0.10655   0.25000   0.00000  Uiso   1.00
O216   O     0.96042   0.22678   0.25000   0.00000  Uiso   1.00
O217   O     0.96039   0.10654   0.25000   0.00000  Uiso   1.00
O218   O     0.70628   0.22679   0.24999   0.00000  Uiso   1.00
O219   O     0.68519   0.16668   0.31491   0.00000  Uiso   1.00
O220   O     0.98148   0.16666   0.18508   0.00000  Uiso   1.00
O221   O     0.93933   0.16667   0.31492   0.00000  Uiso   1.00
O222   O     0.72733   0.16667   0.18508   0.00000  Uiso   1.00
O223   O     0.94641   0.04254   0.19784   0.00000  Uiso   1.00
H224   H     0.96320   0.06816   0.18419   0.00000  Uiso   1.00
O225   O     0.72026   0.29077   0.30237   0.00000  Uiso   1.00
H226   H     0.70356   0.26508   0.31589   0.00000  Uiso   1.00
C227   C     0.76988   0.13665   0.33322   0.00000  Uiso   1.00
C228   C     0.74703   0.09425   0.33632   0.00000  Uiso   1.00
C229   C     0.73045   0.07714   0.38531   0.00000  Uiso   1.00
H230   H     0.71367   0.04665   0.38611   0.00000  Uiso   1.00
H231   H     0.76115   0.07309   0.40081   0.00000  Uiso   1.00
H232   H     0.70366   0.09833   0.40549   0.00000  Uiso   1.00
H233   H     0.77321   0.07227   0.31667   0.00000  Uiso   1.00
H234   H     0.71516   0.09650   0.32314   0.00000  Uiso   1.00
H235   H     0.79219   0.13425   0.35780   0.00000  Uiso   1.00
H236   H     0.74539   0.16137   0.34763   0.00000  Uiso   1.00
C237   C     0.89659   0.19738   0.16705   0.00000  Uiso   1.00
C238   C     0.91877   0.23992   0.16521   0.00000  Uiso   1.00
C239   C     0.93361   0.25918   0.11705   0.00000  Uiso   1.00
H240   H     0.96098   0.23943   0.09543   0.00000  Uiso   1.00
H241   H     0.90226   0.26323   0.10249   0.00000  Uiso   1.00
H242   H     0.94929   0.28995   0.11755   0.00000  Uiso   1.00
H243   H     0.89271   0.26090   0.18659   0.00000  Uiso   1.00
H244   H     0.95144   0.23719   0.17712   0.00000  Uiso   1.00
H245   H     0.92148   0.17308   0.15253   0.00000  Uiso   1.00
H246   H     0.87455   0.19958   0.14216   0.00000  Uiso   1.00
C247   C     0.00084   0.42095   0.24848   0.00000  Uiso   1.00
C248   C     0.33248   0.57905   0.25162   0.00000  Uiso   1.00
C249   C     0.19005   0.52659   0.04425   0.00000  Uiso   1.00
C250   C     0.14046   0.49215   0.45171   0.00000  Uiso   1.00
C251   C     0.23779   0.53213   0.02209   0.00000  Uiso   1.00
C252   C     0.09280   0.48623   0.47364   0.00000  Uiso   1.00
C253   C     0.30561   0.35581   0.22500   0.00000  Uiso   1.00
C254   C     0.02772   0.64420   0.27524   0.00000  Uiso   1.00
C255   C     0.30297   0.64655   0.22985   0.00000  Uiso   1.00
C256   C     0.03033   0.35349   0.27043   0.00000  Uiso   1.00
C257   C     0.33130   0.62372   0.25349   0.00000  Uiso   1.00
C258   C     0.00202   0.37629   0.24673   0.00000  Uiso   1.00
C259   C     0.18357   0.48245   0.28514   0.00000  Uiso   1.00
C260   C     0.14975   0.51744   0.21482   0.00000  Uiso   1.00
C261   C     0.13416   0.48326   0.28667   0.00000  Uiso   1.00
C262   C     0.19911   0.51672   0.21335   0.00000  Uiso   1.00
C263   C     0.30630   0.50072   0.33620   0.00000  Uiso   1.00
C264   C     0.02706   0.49972   0.16372   0.00000  Uiso   1.00
C265   C     0.29085   0.50520   0.38560   0.00000  Uiso   1.00
C266   C     0.04249   0.49843   0.11384   0.00000  Uiso   1.00
C267   C     0.30308   0.52981   0.45502   0.00000  Uiso   1.00
C268   C     0.02900   0.48175   0.04195   0.00000  Uiso   1.00
C269   C     0.32057   0.52209   0.40937   0.00000  Uiso   1.00
C270   C     0.01239   0.48464   0.08860   0.00000  Uiso   1.00
C271   C     0.24323   0.49665   0.40812   0.00000  Uiso   1.00
C272   C     0.08986   0.50849   0.09167   0.00000  Uiso   1.00
C273   C     0.22362   0.50728   0.45322   0.00000  Uiso   1.00
C274   C     0.10824   0.50423   0.04475   0.00000  Uiso   1.00
C275   C     0.25494   0.52281   0.47696   0.00000  Uiso   1.00
C276   C     0.07658   0.49094   0.01999   0.00000  Uiso   1.00
C277   C     0.17404   0.50308   0.47527   0.00000  Uiso   1.00
C278   C     0.15725   0.51139   0.02201   0.00000  Uiso   1.00
Cu279  Cu    0.04689   0.50001   0.25000   0.00000  Uiso   1.00
Cu280  Cu    0.28645   0.49999   0.25000   0.00000  Uiso   1.00
H281   H     0.26156   0.54398   0.04040   0.00000  Uiso   1.00
H282   H     0.06851   0.47738   0.45418   0.00000  Uiso   1.00
H283   H     0.11208   0.51837   0.11228   0.00000  Uiso   1.00
H284   H     0.22211   0.48182   0.38941   0.00000  Uiso   1.00
H285   H     0.31007   0.47444   0.10478   0.00000  Uiso   1.00
H286   H     0.02334   0.53082   0.39261   0.00000  Uiso   1.00
H287   H     0.32685   0.54265   0.47282   0.00000  Uiso   1.00
H288   H     0.00499   0.47091   0.02318   0.00000  Uiso   1.00
H289   H     0.17983   0.53567   0.07861   0.00000  Uiso   1.00
H290   H     0.14980   0.48882   0.41585   0.00000  Uiso   1.00
H291   H     0.28017   0.63136   0.21314   0.00000  Uiso   1.00
H292   H     0.05311   0.36873   0.28717   0.00000  Uiso   1.00
H293   H     0.19625   0.46833   0.31287   0.00000  Uiso   1.00
H294   H     0.13707   0.53160   0.18711   0.00000  Uiso   1.00
N295   N     0.11736   0.50001   0.24999   0.00000  Uiso   1.00
N296   N     0.21597   0.49999   0.25001   0.00000  Uiso   1.00
O297   O     0.03958   0.43989   0.25000   0.00000  Uiso   1.00
O298   O     0.29375   0.56011   0.25000   0.00000  Uiso   1.00
O299   O     0.29372   0.43988   0.25000   0.00000  Uiso   1.00
O300   O     0.03961   0.56012   0.24999   0.00000  Uiso   1.00
O301   O     0.01852   0.50001   0.31491   0.00000  Uiso   1.00
O302   O     0.31481   0.49999   0.18508   0.00000  Uiso   1.00
O303   O     0.27267   0.50000   0.31492   0.00000  Uiso   1.00
O304   O     0.06067   0.50000   0.18508   0.00000  Uiso   1.00
O305   O     0.27975   0.37588   0.19784   0.00000  Uiso   1.00
H306   H     0.29654   0.40149   0.18419   0.00000  Uiso   1.00
O307   O     0.05359   0.62411   0.30237   0.00000  Uiso   1.00
H308   H     0.03690   0.59841   0.31589   0.00000  Uiso   1.00
C309   C     0.10321   0.46998   0.33322   0.00000  Uiso   1.00
C310   C     0.08036   0.42758   0.33632   0.00000  Uiso   1.00
C311   C     0.06379   0.41048   0.38531   0.00000  Uiso   1.00
H312   H     0.04701   0.37998   0.38611   0.00000  Uiso   1.00
H313   H     0.09449   0.40643   0.40081   0.00000  Uiso   1.00
H314   H     0.03700   0.43166   0.40549   0.00000  Uiso   1.00
H315   H     0.10655   0.40561   0.31667   0.00000  Uiso   1.00
H316   H     0.04849   0.42984   0.32314   0.00000  Uiso   1.00
H317   H     0.12552   0.46758   0.35780   0.00000  Uiso   1.00
H318   H     0.07872   0.49471   0.34763   0.00000  Uiso   1.00
C319   C     0.22992   0.53071   0.16705   0.00000  Uiso   1.00
C320   C     0.25211   0.57326   0.16521   0.00000  Uiso   1.00
C321   C     0.26694   0.59251   0.11705   0.00000  Uiso   1.00
H322   H     0.29432   0.57276   0.09543   0.00000  Uiso   1.00
H323   H     0.23559   0.59656   0.10249   0.00000  Uiso   1.00
H324   H     0.28262   0.62328   0.11755   0.00000  Uiso   1.00
H325   H     0.22604   0.59424   0.18659   0.00000  Uiso   1.00
H326   H     0.28477   0.57053   0.17712   0.00000  Uiso   1.00
H327   H     0.25482   0.50641   0.15253   0.00000  Uiso   1.00
H328   H     0.20789   0.53291   0.14216   0.00000  Uiso   1.00
C329   C     0.33417   0.42095   0.24848   0.00000  Uiso   1.00
C330   C     0.66582   0.57905   0.25162   0.00000  Uiso   1.00
C331   C     0.52339   0.52659   0.04425   0.00000  Uiso   1.00
C332   C     0.47379   0.49215   0.45171   0.00000  Uiso   1.00
C333   C     0.57112   0.53213   0.02209   0.00000  Uiso   1.00
C334   C     0.42613   0.48623   0.47364   0.00000  Uiso   1.00
C335   C     0.63894   0.35581   0.22500   0.00000  Uiso   1.00
C336   C     0.36105   0.64420   0.27524   0.00000  Uiso   1.00
C337   C     0.63631   0.64655   0.22985   0.00000  Uiso   1.00
C338   C     0.36366   0.35349   0.27043   0.00000  Uiso   1.00
C339   C     0.66463   0.62372   0.25349   0.00000  Uiso   1.00
C340   C     0.33536   0.37629   0.24673   0.00000  Uiso   1.00
C341   C     0.51690   0.48245   0.28514   0.00000  Uiso   1.00
C342   C     0.48308   0.51744   0.21482   0.00000  Uiso   1.00
C343   C     0.46749   0.48326   0.28667   0.00000  Uiso   1.00
C344   C     0.53244   0.51672   0.21335   0.00000  Uiso   1.00
C345   C     0.63963   0.50072   0.33620   0.00000  Uiso   1.00
C346   C     0.36039   0.49972   0.16372   0.00000  Uiso   1.00
C347   C     0.62418   0.50520   0.38560   0.00000  Uiso   1.00
C348   C     0.37582   0.49843   0.11384   0.00000  Uiso   1.00
C349   C     0.63641   0.52981   0.45502   0.00000  Uiso   1.00
C350   C     0.36234   0.48175   0.04195   0.00000  Uiso   1.00
C351   C     0.65390   0.52209   0.40937   0.00000  Uiso   1.00
C352   C     0.34573   0.48464   0.08860   0.00000  Uiso   1.00
C353   C     0.57656   0.49665   0.40812   0.00000  Uiso   1.00
C354   C     0.42320   0.50849   0.09167   0.00000  Uiso   1.00
C355   C     0.55696   0.50728   0.45322   0.00000  Uiso   1.00
C356   C     0.44157   0.50423   0.04475   0.00000  Uiso   1.00
C357   C     0.58827   0.52281   0.47696   0.00000  Uiso   1.00
C358   C     0.40992   0.49094   0.01999   0.00000  Uiso   1.00
C359   C     0.50737   0.50308   0.47527   0.00000  Uiso   1.00
C360   C     0.49058   0.51139   0.02201   0.00000  Uiso   1.00
Cu361  Cu    0.38022   0.50001   0.25000   0.00000  Uiso   1.00
Cu362  Cu    0.61978   0.49999   0.25000   0.00000  Uiso   1.00
H363   H     0.59489   0.54398   0.04040   0.00000  Uiso   1.00
H364   H     0.40185   0.47738   0.45418   0.00000  Uiso   1.00
H365   H     0.44541   0.51837   0.11228   0.00000  Uiso   1.00
H366   H     0.55544   0.48182   0.38941   0.00000  Uiso   1.00
H367   H     0.64340   0.47444   0.10478   0.00000  Uiso   1.00
H368   H     0.35667   0.53082   0.39261   0.00000  Uiso   1.00
H369   H     0.66018   0.54265   0.47282   0.00000  Uiso   1.00
H370   H     0.33833   0.47091   0.02318   0.00000  Uiso   1.00
H371   H     0.51316   0.53567   0.07861   0.00000  Uiso   1.00
H372   H     0.48314   0.48882   0.41585   0.00000  Uiso   1.00
H373   H     0.61350   0.63136   0.21314   0.00000  Uiso   1.00
H374   H     0.38644   0.36873   0.28717   0.00000  Uiso   1.00
H375   H     0.52958   0.46833   0.31287   0.00000  Uiso   1.00
H376   H     0.47040   0.53160   0.18711   0.00000  Uiso   1.00
N377   N     0.45069   0.50001   0.24999   0.00000  Uiso   1.00
N378   N     0.54931   0.49999   0.25001   0.00000  Uiso   1.00
O379   O     0.37291   0.43989   0.25000   0.00000  Uiso   1.00
O380   O     0.62709   0.56011   0.25000   0.00000  Uiso   1.00
O381   O     0.62706   0.43988   0.25000   0.00000  Uiso   1.00
O382   O     0.37294   0.56012   0.24999   0.00000  Uiso   1.00
O383   O     0.35186   0.50001   0.31491   0.00000  Uiso   1.00
O384   O     0.64814   0.49999   0.18508   0.00000  Uiso   1.00
O385   O     0.60600   0.50000   0.31492   0.00000  Uiso   1.00
O386   O     0.39400   0.50000   0.18508   0.00000  Uiso   1.00
O387   O     0.61308   0.37588   0.19784   0.00000  Uiso   1.00
H388   H     0.62987   0.40149   0.18419   0.00000  Uiso   1.00
O389   O     0.38693   0.62411   0.30237   0.00000  Uiso   1.00
H390   H     0.37023   0.59841   0.31589   0.00000  Uiso   1.00
C391   C     0.43654   0.46998   0.33322   0.00000  Uiso   1.00
C392   C     0.41370   0.42758   0.33632   0.00000  Uiso   1.00
C393   C     0.39712   0.41048   0.38531   0.00000  Uiso   1.00
H394   H     0.38034   0.37998   0.38611   0.00000  Uiso   1.00
H395   H     0.42782   0.40643   0.40081   0.00000  Uiso   1.00
H396   H     0.37033   0.43166   0.40549   0.00000  Uiso   1.00
H397   H     0.43988   0.40561   0.31667   0.00000  Uiso   1.00
H398   H     0.38182   0.42984   0.32314   0.00000  Uiso   1.00
H399   H     0.45885   0.46758   0.35780   0.00000  Uiso   1.00
H400   H     0.41206   0.49471   0.34763   0.00000  Uiso   1.00
C401   C     0.56326   0.53071   0.16705   0.00000  Uiso   1.00
C402   C     0.58544   0.57326   0.16521   0.00000  Uiso   1.00
C403   C     0.60028   0.59251   0.11705   0.00000  Uiso   1.00
H404   H     0.62765   0.57276   0.09543   0.00000  Uiso   1.00
H405   H     0.56893   0.59656   0.10249   0.00000  Uiso   1.00
H406   H     0.61596   0.62328   0.11755   0.00000  Uiso   1.00
H407   H     0.55937   0.59424   0.18659   0.00000  Uiso   1.00
H408   H     0.61811   0.57053   0.17712   0.00000  Uiso   1.00
H409   H     0.58815   0.50641   0.15253   0.00000  Uiso   1.00
H410   H     0.54122   0.53291   0.14216   0.00000  Uiso   1.00
C411   C     0.66750   0.42095   0.24848   0.00000  Uiso   1.00
C412   C     0.99915   0.57905   0.25162   0.00000  Uiso   1.00
C413   C     0.85672   0.52659   0.04425   0.00000  Uiso   1.00
C414   C     0.80713   0.49215   0.45171   0.00000  Uiso   1.00
C415   C     0.90445   0.53213   0.02209   0.00000  Uiso   1.00
C416   C     0.75946   0.48623   0.47364   0.00000  Uiso   1.00
C417   C     0.97228   0.35581   0.22500   0.00000  Uiso   1.00
C418   C     0.69439   0.64420   0.27524   0.00000  Uiso   1.00
C419   C     0.96964   0.64655   0.22985   0.00000  Uiso   1.00
C420   C     0.69700   0.35349   0.27043   0.00000  Uiso   1.00
C421   C     0.99796   0.62372   0.25349   0.00000  Uiso   1.00
C422   C     0.66869   0.37629   0.24673   0.00000  Uiso   1.00
C423   C     0.85024   0.48245   0.28514   0.00000  Uiso   1.00
C424   C     0.81642   0.51744   0.21482   0.00000  Uiso   1.00
C425   C     0.80082   0.48326   0.28667   0.00000  Uiso   1.00
C426   C     0.86578   0.51672   0.21335   0.00000  Uiso   1.00
C427   C     0.97297   0.50072   0.33620   0.00000  Uiso   1.00
C428   C     0.69373   0.49972   0.16372   0.00000  Uiso   1.00
C429   C     0.95751   0.50520   0.38560   0.00000  Uiso   1.00
C430   C     0.70916   0.49843   0.11384   0.00000  Uiso   1.00
C431   C     0.96974   0.52981   0.45502   0.00000  Uiso   1.00
C432   C     0.69567   0.48175   0.04195   0.00000  Uiso   1.00
C433   C     0.98724   0.52209   0.40937   0.00000  Uiso   1.00
C434   C     0.67906   0.48464   0.08860   0.00000  Uiso   1.00
C435   C     0.90989   0.49665   0.40812   0.00000  Uiso   1.00
C436   C     0.75653   0.50849   0.09167   0.00000  Uiso   1.00
C437   C     0.89029   0.50728   0.45322   0.00000  Uiso   1.00
C438   C     0.77491   0.50423   0.04475   0.00000  Uiso   1.00
C439   C     0.92160   0.52281   0.47696   0.00000  Uiso   1.00
C440   C     0.74325   0.49094   0.01999   0.00000  Uiso   1.00
C441   C     0.84070   0.50308   0.47527   0.00000  Uiso   1.00
C442   C     0.82392   0.51139   0.02201   0.00000  Uiso   1.00
Cu443  Cu    0.71355   0.50001   0.25000   0.00000  Uiso   1.00
Cu444  Cu    0.95311   0.49999   0.25000   0.00000  Uiso   1.00
H445   H     0.92823   0.54398   0.04040   0.00000  Uiso   1.00
H446   H     0.73518   0.47738   0.45418   0.00000  Uiso   1.00
H447   H     0.77875   0.51837   0.11228   0.00000  Uiso   1.00
H448   H     0.88877   0.48182   0.38941   0.00000  Uiso   1.00
H449   H     0.97674   0.47444   0.10478   0.00000  Uiso   1.00
H450   H     0.69000   0.53082   0.39261   0.00000  Uiso   1.00
H451   H     0.99351   0.54265   0.47282   0.00000  Uiso   1.00
H452   H     0.67166   0.47091   0.02318   0.00000  Uiso   1.00
H453   H     0.84650   0.53567   0.07861   0.00000  Uiso   1.00
H454   H     0.81647   0.48882   0.41585   0.00000  Uiso   1.00
H455   H     0.94684   0.63136   0.21314   0.00000  Uiso   1.00
H456   H     0.71978   0.36873   0.28717   0.00000  Uiso   1.00
H457   H     0.86291   0.46833   0.31287   0.00000  Uiso   1.00
H458   H     0.80373   0.53160   0.18711   0.00000  Uiso   1.00
N459   N     0.78403   0.50001   0.24999   0.00000  Uiso   1.00
N460   N     0.88264   0.49999   0.25001   0.00000  Uiso   1.00
O461   O     0.70625   0.43989   0.25000   0.00000  Uiso   1.00
O462   O     0.96042   0.56011   0.25000   0.00000  Uiso   1.00
O463   O     0.96039   0.43988   0.25000   0.00000  Uiso   1.00
O464   O     0.70628   0.56012   0.24999   0.00000  Uiso   1.00
O465   O     0.68519   0.50001   0.31491   0.00000  Uiso   1.00
O466   O     0.98148   0.49999   0.18508   0.00000  Uiso   1.00
O467   O     0.93933   0.50000   0.31492   0.00000  Uiso   1.00
O468   O     0.72733   0.50000   0.18508   0.00000  Uiso   1.00
O469   O     0.94641   0.37588   0.19784   0.00000  Uiso   1.00
H470   H     0.96320   0.40149   0.18419   0.00000  Uiso   1.00
O471   O     0.72026   0.62411   0.30237   0.00000  Uiso   1.00
H472   H     0.70356   0.59841   0.31589   0.00000  Uiso   1.00
C473   C     0.76988   0.46998   0.33322   0.00000  Uiso   1.00
C474   C     0.74703   0.42758   0.33632   0.00000  Uiso   1.00
C475   C     0.73045   0.41048   0.38531   0.00000  Uiso   1.00
H476   H     0.71367   0.37998   0.38611   0.00000  Uiso   1.00
H477   H     0.76115   0.40643   0.40081   0.00000  Uiso   1.00
H478   H     0.70366   0.43166   0.40549   0.00000  Uiso   1.00
H479   H     0.77321   0.40561   0.31667   0.00000  Uiso   1.00
H480   H     0.71516   0.42984   0.32314   0.00000  Uiso   1.00
H481   H     0.79219   0.46758   0.35780   0.00000  Uiso   1.00
H482   H     0.74539   0.49471   0.34763   0.00000  Uiso   1.00
C483   C     0.89659   0.53071   0.16705   0.00000  Uiso   1.00
C484   C     0.91877   0.57326   0.16521   0.00000  Uiso   1.00
C485   C     0.93361   0.59251   0.11705   0.00000  Uiso   1.00
H486   H     0.96098   0.57276   0.09543   0.00000  Uiso   1.00
H487   H     0.90226   0.59656   0.10249   0.00000  Uiso   1.00
H488   H     0.94929   0.62328   0.11755   0.00000  Uiso   1.00
H489   H     0.89271   0.59424   0.18659   0.00000  Uiso   1.00
H490   H     0.95144   0.57053   0.17712   0.00000  Uiso   1.00
H491   H     0.92148   0.50641   0.15253   0.00000  Uiso   1.00
H492   H     0.87455   0.53291   0.14216   0.00000  Uiso   1.00
C493   C     0.00084   0.75428   0.24848   0.00000  Uiso   1.00
C494   C     0.33248   0.91239   0.25162   0.00000  Uiso   1.00
C495   C     0.19005   0.85993   0.04425   0.00000  Uiso   1.00
C496   C     0.14046   0.82549   0.45171   0.00000  Uiso   1.00
C497   C     0.23779   0.86546   0.02209   0.00000  Uiso   1.00
C498   C     0.09280   0.81956   0.47364   0.00000  Uiso   1.00
C499   C     0.30561   0.68914   0.22500   0.00000  Uiso   1.00
C500   C     0.02772   0.97753   0.27524   0.00000  Uiso   1.00
C501   C     0.30297   0.97988   0.22985   0.00000  Uiso   1.00
C502   C     0.03033   0.68682   0.27043   0.00000  Uiso   1.00
C503   C     0.33130   0.95706   0.25349   0.00000  Uiso   1.00
C504   C     0.00202   0.70962   0.24673   0.00000  Uiso   1.00
C505   C     0.18357   0.81579   0.28514   0.00000  Uiso   1.00
C506   C     0.14975   0.85077   0.21482   0.00000  Uiso   1.00
C507   C     0.13416   0.81659   0.28667   0.00000  Uiso   1.00
C508   C     0.19911   0.85005   0.21335   0.00000  Uiso   1.00
C509   C     0.30630   0.83406   0.33620   0.00000  Uiso   1.00
C510   C     0.02706   0.83306   0.16372   0.00000  Uiso   1.00
C511   C     0.29085   0.83853   0.38560   0.00000  Uiso   1.00
C512   C     0.04249   0.83176   0.11384   0.00000  Uiso   1.00
C513   C     0.30308   0.86314   0.45502   0.00000  Uiso   1.00
C514   C     0.02900   0.81508   0.04195   0.00000  Uiso   1.00
C515   C     0.32057   0.85542   0.40937   0.00000  Uiso   1.00
C516   C     0.01239   0.81798   0.08860   0.00000  Uiso   1.00
C517   C     0.24323   0.82998   0.40812   0.00000  Uiso   1.00
C518   C     0.08986   0.84182   0.09167   0.00000  Uiso   1.00
C519   C     0.22362   0.84061   0.45322   0.00000  Uiso   1.00
C520   C     0.10824   0.83757   0.04475   0.00000  Uiso   1.00
C521   C     0.25494   0.85615   0.47696   0.00000  Uiso   1.00
C522   C     0.07658   0.82428   0.01999   0.00000  Uiso   1.00
C523   C     0.17404   0.83641   0.47527   0.00000  Uiso   1.00
C524   C     0.15725   0.84473   0.02201   0.00000  Uiso   1.00
Cu525  Cu    0.04689   0.83334   0.25000   0.00000  Uiso   1.00
Cu526  Cu    0.28645   0.83333   0.25000   0.00000  Uiso   1.00
H527   H     0.26156   0.87731   0.04040   0.00000  Uiso   1.00
H528   H     0.06851   0.81071   0.45418   0.00000  Uiso   1.00
H529   H     0.11208   0.85170   0.11228   0.00000  Uiso   1.00
H530   H     0.22211   0.81515   0.38941   0.00000  Uiso   1.00
H531   H     0.31007   0.80777   0.10478   0.00000  Uiso   1.00
H532   H     0.02334   0.86416   0.39261   0.00000  Uiso   1.00
H533   H     0.32685   0.87598   0.47282   0.00000  Uiso   1.00
H534   H     0.00499   0.80425   0.02318   0.00000  Uiso   1.00
H535   H     0.17983   0.86901   0.07861   0.00000  Uiso   1.00
H536   H     0.14980   0.82216   0.41585   0.00000  Uiso   1.00
H537   H     0.28017   0.96470   0.21314   0.00000  Uiso   1.00
H538   H     0.05311   0.70206   0.28717   0.00000  Uiso   1.00
H539   H     0.19625   0.80167   0.31287   0.00000  Uiso   1.00
H540   H     0.13707   0.86493   0.18711   0.00000  Uiso   1.00
N541   N     0.11736   0.83334   0.24999   0.00000  Uiso   1.00
N542   N     0.21597   0.83332   0.25001   0.00000  Uiso   1.00
O543   O     0.03958   0.77322   0.25000   0.00000  Uiso   1.00
O544   O     0.29375   0.89345   0.25000   0.00000  Uiso   1.00
O545   O     0.29372   0.77321   0.25000   0.00000  Uiso   1.00
O546   O     0.03961   0.89346   0.24999   0.00000  Uiso   1.00
O547   O     0.01852   0.83334   0.31491   0.00000  Uiso   1.00
O548   O     0.31481   0.83332   0.18508   0.00000  Uiso   1.00
O549   O     0.27267   0.83333   0.31492   0.00000  Uiso   1.00
O550   O     0.06067   0.83333   0.18508   0.00000  Uiso   1.00
O551   O     0.27975   0.70921   0.19784   0.00000  Uiso   1.00
H552   H     0.29654   0.73482   0.18419   0.00000  Uiso   1.00
O553   O     0.05359   0.95744   0.30237   0.00000  Uiso   1.00
H554   H     0.03690   0.93175   0.31589   0.00000  Uiso   1.00
C555   C     0.10321   0.80332   0.33322   0.00000  Uiso   1.00
C556   C     0.08036   0.76091   0.33632   0.00000  Uiso   1.00
C557   C     0.06379   0.74381   0.38531   0.00000  Uiso   1.00
H558   H     0.04701   0.71331   0.38611   0.00000  Uiso   1.00
H559   H     0.09449   0.73976   0.40081   0.00000  Uiso   1.00
H560   H     0.03700   0.76499   0.40549   0.00000  Uiso   1.00
H561   H     0.10655   0.73894   0.31667   0.00000  Uiso   1.00
H562   H     0.04849   0.76317   0.32314   0.00000  Uiso   1.00
H563   H     0.12552   0.80092   0.35780   0.00000  Uiso   1.00
H564   H     0.07872   0.82804   0.34763   0.00000  Uiso   1.00
C565   C     0.22992   0.86405   0.16705   0.00000  Uiso   1.00
C566   C     0.25211   0.90659   0.16521   0.00000  Uiso   1.00
C567   C     0.26694   0.92584   0.11705   0.00000  Uiso   1.00
H568   H     0.29432   0.90609   0.09543   0.00000  Uiso   1.00
H569   H     0.23559   0.92990   0.10249   0.00000  Uiso   1.00
H570   H     0.28262   0.95661   0.11755   0.00000  Uiso   1.00
H571   H     0.22604   0.92757   0.18659   0.00000  Uiso   1.00
H572   H     0.28477   0.90386   0.17712   0.00000  Uiso   1.00
H573   H     0.25482   0.83974   0.15253   0.00000  Uiso   1.00
H574   H     0.20789   0.86625   0.14216   0.00000  Uiso   1.00
C575   C     0.33417   0.75428   0.24848   0.00000  Uiso   1.00
C576   C     0.66582   0.91239   0.25162   0.00000  Uiso   1.00
C577   C     0.52339   0.85993   0.04425   0.00000  Uiso   1.00
C578   C     0.47379   0.82549   0.45171   0.00000  Uiso   1.00
C579   C     0.57112   0.86546   0.02209   0.00000  Uiso   1.00
C580   C     0.42613   0.81956   0.47364   0.00000  Uiso   1.00
C581   C     0.63894   0.68914   0.22500   0.00000  Uiso   1.00
C582   C     0.36105   0.97753   0.27524   0.00000  Uiso   1.00
C583   C     0.63631   0.97988   0.22985   0.00000  Uiso   1.00
C584   C     0.36366   0.68682   0.27043   0.00000  Uiso   1.00
C585   C     0.66463   0.95706   0.25349   0.00000  Uiso   1.00
C586   C     0.33536   0.70962   0.24673   0.00000  Uiso   1.00
C587   C     0.51690   0.81579   0.28514   0.00000  Uiso   1.00
C588   C     0.48308   0.85077   0.21482   0.00000  Uiso   1.00
C589   C     0.46749   0.81659   0.28667   0.00000  Uiso   1.00
C590   C     0.53244   0.85005   0.21335   0.00000  Uiso   1.00
C591   C     0.63963   0.83406   0.33620   0.00000  Uiso   1.00
C592   C     0.36039   0.83306   0.16372   0.00000  Uiso   1.00
C593   C     0.62418   0.83853   0.38560   0.00000  Uiso   1.00
C594   C     0.37582   0.83176   0.11384   0.00000  Uiso   1.00
C595   C     0.63641   0.86314   0.45502   0.00000  Uiso   1.00
C596   C     0.36234   0.81508   0.04195   0.00000  Uiso   1.00
C597   C     0.65390   0.85542   0.40937   0.00000  Uiso   1.00
C598   C     0.34573   0.81798   0.08860   0.00000  Uiso   1.00
C599   C     0.57656   0.82998   0.40812   0.00000  Uiso   1.00
C600   C     0.42320   0.84182   0.09167   0.00000  Uiso   1.00
C601   C     0.55696   0.84061   0.45322   0.00000  Uiso   1.00
C602   C     0.44157   0.83757   0.04475   0.00000  Uiso   1.00
C603   C     0.58827   0.85615   0.47696   0.00000  Uiso   1.00
C604   C     0.40992   0.82428   0.01999   0.00000  Uiso   1.00
C605   C     0.50737   0.83641   0.47527   0.00000  Uiso   1.00
C606   C     0.49058   0.84473   0.02201   0.00000  Uiso   1.00
Cu607  Cu    0.38022   0.83334   0.25000   0.00000  Uiso   1.00
Cu608  Cu    0.61978   0.83333   0.25000   0.00000  Uiso   1.00
H609   H     0.59489   0.87731   0.04040   0.00000  Uiso   1.00
H610   H     0.40185   0.81071   0.45418   0.00000  Uiso   1.00
H611   H     0.44541   0.85170   0.11228   0.00000  Uiso   1.00
H612   H     0.55544   0.81515   0.38941   0.00000  Uiso   1.00
H613   H     0.64340   0.80777   0.10478   0.00000  Uiso   1.00
H614   H     0.35667   0.86416   0.39261   0.00000  Uiso   1.00
H615   H     0.66018   0.87598   0.47282   0.00000  Uiso   1.00
H616   H     0.33833   0.80425   0.02318   0.00000  Uiso   1.00
H617   H     0.51316   0.86901   0.07861   0.00000  Uiso   1.00
H618   H     0.48314   0.82216   0.41585   0.00000  Uiso   1.00
H619   H     0.61350   0.96470   0.21314   0.00000  Uiso   1.00
H620   H     0.38644   0.70206   0.28717   0.00000  Uiso   1.00
H621   H     0.52958   0.80167   0.31287   0.00000  Uiso   1.00
H622   H     0.47040   0.86493   0.18711   0.00000  Uiso   1.00
N623   N     0.45069   0.83334   0.24999   0.00000  Uiso   1.00
N624   N     0.54931   0.83332   0.25001   0.00000  Uiso   1.00
O625   O     0.37291   0.77322   0.25000   0.00000  Uiso   1.00
O626   O     0.62709   0.89345   0.25000   0.00000  Uiso   1.00
O627   O     0.62706   0.77321   0.25000   0.00000  Uiso   1.00
O628   O     0.37294   0.89346   0.24999   0.00000  Uiso   1.00
O629   O     0.35186   0.83334   0.31491   0.00000  Uiso   1.00
O630   O     0.64814   0.83332   0.18508   0.00000  Uiso   1.00
O631   O     0.60600   0.83333   0.31492   0.00000  Uiso   1.00
O632   O     0.39400   0.83333   0.18508   0.00000  Uiso   1.00
O633   O     0.61308   0.70921   0.19784   0.00000  Uiso   1.00
H634   H     0.62987   0.73482   0.18419   0.00000  Uiso   1.00
O635   O     0.38693   0.95744   0.30237   0.00000  Uiso   1.00
H636   H     0.37023   0.93175   0.31589   0.00000  Uiso   1.00
C637   C     0.43654   0.80332   0.33322   0.00000  Uiso   1.00
C638   C     0.41370   0.76091   0.33632   0.00000  Uiso   1.00
C639   C     0.39712   0.74381   0.38531   0.00000  Uiso   1.00
H640   H     0.38034   0.71331   0.38611   0.00000  Uiso   1.00
H641   H     0.42782   0.73976   0.40081   0.00000  Uiso   1.00
H642   H     0.37033   0.76499   0.40549   0.00000  Uiso   1.00
H643   H     0.43988   0.73894   0.31667   0.00000  Uiso   1.00
H644   H     0.38182   0.76317   0.32314   0.00000  Uiso   1.00
H645   H     0.45885   0.80092   0.35780   0.00000  Uiso   1.00
H646   H     0.41206   0.82804   0.34763   0.00000  Uiso   1.00
C647   C     0.56326   0.86405   0.16705   0.00000  Uiso   1.00
C648   C     0.58544   0.90659   0.16521   0.00000  Uiso   1.00
C649   C     0.60028   0.92584   0.11705   0.00000  Uiso   1.00
H650   H     0.62765   0.90609   0.09543   0.00000  Uiso   1.00
H651   H     0.56893   0.92990   0.10249   0.00000  Uiso   1.00
H652   H     0.61596   0.95661   0.11755   0.00000  Uiso   1.00
H653   H     0.55937   0.92757   0.18659   0.00000  Uiso   1.00
H654   H     0.61811   0.90386   0.17712   0.00000  Uiso   1.00
H655   H     0.58815   0.83974   0.15253   0.00000  Uiso   1.00
H656   H     0.54122   0.86625   0.14216   0.00000  Uiso   1.00
C657   C     0.66750   0.75428   0.24848   0.00000  Uiso   1.00
C658   C     0.99915   0.91239   0.25162   0.00000  Uiso   1.00
C659   C     0.85672   0.85993   0.04425   0.00000  Uiso   1.00
C660   C     0.80713   0.82549   0.45171   0.00000  Uiso   1.00
C661   C     0.90445   0.86546   0.02209   0.00000  Uiso   1.00
C662   C     0.75946   0.81956   0.47364   0.00000  Uiso   1.00
C663   C     0.97228   0.68914   0.22500   0.00000  Uiso   1.00
C664   C     0.69439   0.97753   0.27524   0.00000  Uiso   1.00
C665   C     0.96964   0.97988   0.22985   0.00000  Uiso   1.00
C666   C     0.69700   0.68682   0.27043   0.00000  Uiso   1.00
C667   C     0.99796   0.95706   0.25349   0.00000  Uiso   1.00
C668   C     0.66869   0.70962   0.24673   0.00000  Uiso   1.00
C669   C     0.85024   0.81579   0.28514   0.00000  Uiso   1.00
C670   C     0.81642   0.85077   0.21482   0.00000  Uiso   1.00
C671   C     0.80082   0.81659   0.28667   0.00000  Uiso   1.00
C672   C     0.86578   0.85005   0.21335   0.00000  Uiso   1.00
C673   C     0.97297   0.83406   0.33620   0.00000  Uiso   1.00
C674   C     0.69373   0.83306   0.16372   0.00000  Uiso   1.00
C675   C     0.95751   0.83853   0.38560   0.00000  Uiso   1.00
C676   C     0.70916   0.83176   0.11384   0.00000  Uiso   1.00
C677   C     0.96974   0.86314   0.45502   0.00000  Uiso   1.00
C678   C     0.69567   0.81508   0.04195   0.00000  Uiso   1.00
C679   C     0.98724   0.85542   0.40937   0.00000  Uiso   1.00
C680   C     0.67906   0.81798   0.08860   0.00000  Uiso   1.00
C681   C     0.90989   0.82998   0.40812   0.00000  Uiso   1.00
C682   C     0.75653   0.84182   0.09167   0.00000  Uiso   1.00
C683   C     0.89029   0.84061   0.45322   0.00000  Uiso   1.00
C684   C     0.77491   0.83757   0.04475   0.00000  Uiso   1.00
C685   C     0.92160   0.85615   0.47696   0.00000  Uiso   1.00
C686   C     0.74325   0.82428   0.01999   0.00000  Uiso   1.00
C687   C     0.84070   0.83641   0.47527   0.00000  Uiso   1.00
C688   C     0.82392   0.84473   0.02201   0.00000  Uiso   1.00
Cu689  Cu    0.71355   0.83334   0.25000   0.00000  Uiso   1.00
Cu690  Cu    0.95311   0.83333   0.25000   0.00000  Uiso   1.00
H691   H     0.92823   0.87731   0.04040   0.00000  Uiso   1.00
H692   H     0.73518   0.81071   0.45418   0.00000  Uiso   1.00
H693   H     0.77875   0.85170   0.11228   0.00000  Uiso   1.00
H694   H     0.88877   0.81515   0.38941   0.00000  Uiso   1.00
H695   H     0.97674   0.80777   0.10478   0.00000  Uiso   1.00
H696   H     0.69000   0.86416   0.39261   0.00000  Uiso   1.00
H697   H     0.99351   0.87598   0.47282   0.00000  Uiso   1.00
H698   H     0.67166   0.80425   0.02318   0.00000  Uiso   1.00
H699   H     0.84650   0.86901   0.07861   0.00000  Uiso   1.00
H700   H     0.81647   0.82216   0.41585   0.00000  Uiso   1.00
H701   H     0.94684   0.96470   0.21314   0.00000  Uiso   1.00
H702   H     0.71978   0.70206   0.28717   0.00000  Uiso   1.00
H703   H     0.86291   0.80167   0.31287   0.00000  Uiso   1.00
H704   H     0.80373   0.86493   0.18711   0.00000  Uiso   1.00
N705   N     0.78403   0.83334   0.24999   0.00000  Uiso   1.00
N706   N     0.88264   0.83332   0.25001   0.00000  Uiso   1.00
O707   O     0.70625   0.77322   0.25000   0.00000  Uiso   1.00
O708   O     0.96042   0.89345   0.25000   0.00000  Uiso   1.00
O709   O     0.96039   0.77321   0.25000   0.00000  Uiso   1.00
O710   O     0.70628   0.89346   0.24999   0.00000  Uiso   1.00
O711   O     0.68519   0.83334   0.31491   0.00000  Uiso   1.00
O712   O     0.98148   0.83332   0.18508   0.00000  Uiso   1.00
O713   O     0.93933   0.83333   0.31492   0.00000  Uiso   1.00
O714   O     0.72733   0.83333   0.18508   0.00000  Uiso   1.00
O715   O     0.94641   0.70921   0.19784   0.00000  Uiso   1.00
H716   H     0.96320   0.73482   0.18419   0.00000  Uiso   1.00
O717   O     0.72026   0.95744   0.30237   0.00000  Uiso   1.00
H718   H     0.70356   0.93175   0.31589   0.00000  Uiso   1.00
C719   C     0.76988   0.80332   0.33322   0.00000  Uiso   1.00
C720   C     0.74703   0.76091   0.33632   0.00000  Uiso   1.00
C721   C     0.73045   0.74381   0.38531   0.00000  Uiso   1.00
H722   H     0.71367   0.71331   0.38611   0.00000  Uiso   1.00
H723   H     0.76115   0.73976   0.40081   0.00000  Uiso   1.00
H724   H     0.70366   0.76499   0.40549   0.00000  Uiso   1.00
H725   H     0.77321   0.73894   0.31667   0.00000  Uiso   1.00
H726   H     0.71516   0.76317   0.32314   0.00000  Uiso   1.00
H727   H     0.79219   0.80092   0.35780   0.00000  Uiso   1.00
H728   H     0.74539   0.82804   0.34763   0.00000  Uiso   1.00
C729   C     0.89659   0.86405   0.16705   0.00000  Uiso   1.00
C730   C     0.91877   0.90659   0.16521   0.00000  Uiso   1.00
C731   C     0.93361   0.92584   0.11705   0.00000  Uiso   1.00
H732   H     0.96098   0.90609   0.09543   0.00000  Uiso   1.00
H733   H     0.90226   0.92990   0.10249   0.00000  Uiso   1.00
H734   H     0.94929   0.95661   0.11755   0.00000  Uiso   1.00
H735   H     0.89271   0.92757   0.18659   0.00000  Uiso   1.00
H736   H     0.95144   0.90386   0.17712   0.00000  Uiso   1.00
H737   H     0.92148   0.83974   0.15253   0.00000  Uiso   1.00
H738   H     0.87455   0.86625   0.14216   0.00000  Uiso   1.00
C739   C     0.00084   0.08761   0.74848   0.00000  Uiso   1.00
C740   C     0.33248   0.24572   0.75162   0.00000  Uiso   1.00
C741   C     0.19005   0.19326   0.54425   0.00000  Uiso   1.00
C742   C     0.14046   0.15882   0.95171   0.00000  Uiso   1.00
C743   C     0.23779   0.19880   0.52209   0.00000  Uiso   1.00
C744   C     0.09280   0.15290   0.97364   0.00000  Uiso   1.00
C745   C     0.30561   0.02248   0.72500   0.00000  Uiso   1.00
C746   C     0.02772   0.31086   0.77524   0.00000  Uiso   1.00
C747   C     0.30297   0.31321   0.72985   0.00000  Uiso   1.00
C748   C     0.03033   0.02015   0.77043   0.00000  Uiso   1.00
C749   C     0.33130   0.29039   0.75349   0.00000  Uiso   1.00
C750   C     0.00202   0.04295   0.74673   0.00000  Uiso   1.00
C751   C     0.18357   0.14912   0.78514   0.00000  Uiso   1.00
C752   C     0.14975   0.18411   0.71482   0.00000  Uiso   1.00
C753   C     0.13416   0.14993   0.78667   0.00000  Uiso   1.00
C754   C     0.19911   0.18338   0.71335   0.00000  Uiso   1.00
C755   C     0.30630   0.16739   0.83620   0.00000  Uiso   1.00
C756   C     0.02706   0.16639   0.66372   0.00000  Uiso   1.00
C757   C     0.29085   0.17186   0.88560   0.00000  Uiso   1.00
C758   C     0.04249   0.16509   0.61384   0.00000  Uiso   1.00
C759   C     0.30308   0.19647   0.95502   0.00000  Uiso   1.00
C760   C     0.02900   0.14842   0.54195   0.00000  Uiso   1.00
C761   C     0.32057   0.18875   0.90937   0.00000  Uiso   1.00
C762   C     0.01239   0.15131   0.58860   0.00000  Uiso   1.00
C763   C     0.24323   0.16331   0.90812   0.00000  Uiso   1.00
C764   C     0.08986   0.17515   0.59167   0.00000  Uiso   1.00
C765   C     0.22362   0.17395   0.95322   0.00000  Uiso   1.00
C766   C     0.10824   0.17090   0.54475   0.00000  Uiso   1.00
C767   C     0.25494   0.18948   0.97696   0.00000  Uiso   1.00
C768   C     0.07658   0.15761   0.51999   0.00000  Uiso   1.00
C769   C     0.17404   0.16974   0.97527   0.00000  Uiso   1.00
C770   C     0.15725   0.17806   0.52201   0.00000  Uiso   1.00
Cu771  Cu    0.04689   0.16667   0.75000   0.00000  Uiso   1.00
Cu772  Cu    0.28645   0.16666   0.75000   0.00000  Uiso   1.00
H773   H     0.26156   0.21064   0.54040   0.00000  Uiso   1.00
H774   H     0.06851   0.14405   0.95418   0.00000  Uiso   1.00
H775   H     0.11208   0.18504   0.61228   0.00000  Uiso   1.00
H776   H     0.22211   0.14848   0.88941   0.00000  Uiso   1.00
H777   H     0.31007   0.14111   0.60478   0.00000  Uiso   1.00
H778   H     0.02334   0.19749   0.89261   0.00000  Uiso   1.00
H779   H     0.32685   0.20931   0.97282   0.00000  Uiso   1.00
H780   H     0.00499   0.13758   0.52318   0.00000  Uiso   1.00
H781   H     0.17983   0.20234   0.57861   0.00000  Uiso   1.00
H782   H     0.14980   0.15549   0.91585   0.00000  Uiso   1.00
H783   H     0.28017   0.29803   0.71314   0.00000  Uiso   1.00
H784   H     0.05311   0.03539   0.78717   0.00000  Uiso   1.00
H785   H     0.19625   0.13500   0.81287   0.00000  Uiso   1.00
H786   H     0.13707   0.19827   0.68711   0.00000  Uiso   1.00
N787   N     0.11736   0.16668   0.74999   0.00000  Uiso   1.00
N788   N     0.21597   0.16666   0.75001   0.00000  Uiso   1.00
O789   O     0.03958   0.10655   0.75000   0.00000  Uiso   1.00
O790   O     0.29375   0.22678   0.75000   0.00000  Uiso   1.00
O791   O     0.29372   0.10654   0.75000   0.00000  Uiso   1.00
O792   O     0.03961   0.22679   0.74999   0.00000  Uiso   1.00
O793   O     0.01852   0.16668   0.81491   0.00000  Uiso   1.00
O794   O     0.31481   0.16666   0.68508   0.00000  Uiso   1.00
O795   O     0.27267   0.16667   0.81492   0.00000  Uiso   1.00
O796   O     0.06067   0.16667   0.68508   0.00000  Uiso   1.00
O797   O     0.27975   0.04254   0.69784   0.00000  Uiso   1.00
H798   H     0.29654   0.06816   0.68419   0.00000  Uiso   1.00
O799   O     0.05359   0.29077   0.80237   0.00000  Uiso   1.00
H800   H     0.03690   0.26508   0.81589   0.00000  Uiso   1.00
C801   C     0.10321   0.13665   0.83322   0.00000  Uiso   1.00
C802   C     0.08036   0.09425   0.83632   0.00000  Uiso   1.00
C803   C     0.06379   0.07714   0.88531   0.00000  Uiso   1.00
H804   H     0.04701   0.04665   0.88611   0.00000  Uiso   1.00
H805   H     0.09449   0.07309   0.90081   0.00000  Uiso   1.00
H806   H     0.03700   0.09833   0.90549   0.00000  Uiso   1.00
H807   H     0.10655   0.07227   0.81667   0.00000  Uiso   1.00
H808   H     0.04849   0.09650   0.82314   0.00000  Uiso   1.00
H809   H     0.12552   0.13425   0.85780   0.00000  Uiso   1.00
H810   H     0.07872   0.16137   0.84763   0.00000  Uiso   1.00
C811   C     0.22992   0.19738   0.66705   0.00000  Uiso   1.00
C812   C     0.25211   0.23992   0.66521   0.00000  Uiso   1.00
C813   C     0.26694   0.25918   0.61705   0.00000  Uiso   1.00
H814   H     0.29432   0.23943   0.59543   0.00000  Uiso   1.00
H815   H     0.23559   0.26323   0.60249   0.00000  Uiso   1.00
H816   H     0.28262   0.28995   0.61755   0.00000  Uiso   1.00
H817   H     0.22604   0.26090   0.68659   0.00000  Uiso   1.00
H818   H     0.28477   0.23719   0.67712   0.00000  Uiso   1.00
H819   H     0.25482   0.17308   0.65253   0.00000  Uiso   1.00
H820   H     0.20789   0.19958   0.64216   0.00000  Uiso   1.00
C821   C     0.33417   0.08761   0.74848   0.00000  Uiso   1.00
C822   C     0.66582   0.24572   0.75162   0.00000  Uiso   1.00
C823   C     0.52339   0.19326   0.54425   0.00000  Uiso   1.00
C824   C     0.47379   0.15882   0.95171   0.00000  Uiso   1.00
C825   C     0.57112   0.19880   0.52209   0.00000  Uiso   1.00
C826   C     0.42613   0.15290   0.97364   0.00000  Uiso   1.00
C827   C     0.63894   0.02248   0.72500   0.00000  Uiso   1.00
C828   C     0.36105   0.31086   0.77524   0.00000  Uiso   1.00
C829   C     0.63631   0.31321   0.72985   0.00000  Uiso   1.00
C830   C     0.36366   0.02015   0.77043   0.00000  Uiso   1.00
C831   C     0.66463   0.29039   0.75349   0.00000  Uiso   1.00
C832   C     0.33536   0.04295   0.74673   0.00000  Uiso   1.00
C833   C     0.51690   0.14912   0.78514   0.00000  Uiso   1.00
C834   C     0.48308   0.18411   0.71482   0.00000  Uiso   1.00
C835   C     0.46749   0.14993   0.78667   0.00000  Uiso   1.00
C836   C     0.53244   0.18338   0.71335   0.00000  Uiso   1.00
C837   C     0.63963   0.16739   0.83620   0.00000  Uiso   1.00
C838   C     0.36039   0.16639   0.66372   0.00000  Uiso   1.00
C839   C     0.62418   0.17186   0.88560   0.00000  Uiso   1.00
C840   C     0.37582   0.16509   0.61384   0.00000  Uiso   1.00
C841   C     0.63641   0.19647   0.95502   0.00000  Uiso   1.00
C842   C     0.36234   0.14842   0.54195   0.00000  Uiso   1.00
C843   C     0.65390   0.18875   0.90937   0.00000  Uiso   1.00
C844   C     0.34573   0.15131   0.58860   0.00000  Uiso   1.00
C845   C     0.57656   0.16331   0.90812   0.00000  Uiso   1.00
C846   C     0.42320   0.17515   0.59167   0.00000  Uiso   1.00
C847   C     0.55696   0.17395   0.95322   0.00000  Uiso   1.00
C848   C     0.44157   0.17090   0.54475   0.00000  Uiso   1.00
C849   C     0.58827   0.18948   0.97696   0.00000  Uiso   1.00
C850   C     0.40992   0.15761   0.51999   0.00000  Uiso   1.00
C851   C     0.50737   0.16974   0.97527   0.00000  Uiso   1.00
C852   C     0.49058   0.17806   0.52201   0.00000  Uiso   1.00
Cu853  Cu    0.38022   0.16667   0.75000   0.00000  Uiso   1.00
Cu854  Cu    0.61978   0.16666   0.75000   0.00000  Uiso   1.00
H855   H     0.59489   0.21064   0.54040   0.00000  Uiso   1.00
H856   H     0.40185   0.14405   0.95418   0.00000  Uiso   1.00
H857   H     0.44541   0.18504   0.61228   0.00000  Uiso   1.00
H858   H     0.55544   0.14848   0.88941   0.00000  Uiso   1.00
H859   H     0.64340   0.14111   0.60478   0.00000  Uiso   1.00
H860   H     0.35667   0.19749   0.89261   0.00000  Uiso   1.00
H861   H     0.66018   0.20931   0.97282   0.00000  Uiso   1.00
H862   H     0.33833   0.13758   0.52318   0.00000  Uiso   1.00
H863   H     0.51316   0.20234   0.57861   0.00000  Uiso   1.00
H864   H     0.48314   0.15549   0.91585   0.00000  Uiso   1.00
H865   H     0.61350   0.29803   0.71314   0.00000  Uiso   1.00
H866   H     0.38644   0.03539   0.78717   0.00000  Uiso   1.00
H867   H     0.52958   0.13500   0.81287   0.00000  Uiso   1.00
H868   H     0.47040   0.19827   0.68711   0.00000  Uiso   1.00
N869   N     0.45069   0.16668   0.74999   0.00000  Uiso   1.00
N870   N     0.54931   0.16666   0.75001   0.00000  Uiso   1.00
O871   O     0.37291   0.10655   0.75000   0.00000  Uiso   1.00
O872   O     0.62709   0.22678   0.75000   0.00000  Uiso   1.00
O873   O     0.62706   0.10654   0.75000   0.00000  Uiso   1.00
O874   O     0.37294   0.22679   0.74999   0.00000  Uiso   1.00
O875   O     0.35186   0.16668   0.81491   0.00000  Uiso   1.00
O876   O     0.64814   0.16666   0.68508   0.00000  Uiso   1.00
O877   O     0.60600   0.16667   0.81492   0.00000  Uiso   1.00
O878   O     0.39400   0.16667   0.68508   0.00000  Uiso   1.00
O879   O     0.61308   0.04254   0.69784   0.00000  Uiso   1.00
H880   H     0.62987   0.06816   0.68419   0.00000  Uiso   1.00
O881   O     0.38693   0.29077   0.80237   0.00000  Uiso   1.00
H882   H     0.37023   0.26508   0.81589   0.00000  Uiso   1.00
C883   C     0.43654   0.13665   0.83322   0.00000  Uiso   1.00
C884   C     0.41370   0.09425   0.83632   0.00000  Uiso   1.00
C885   C     0.39712   0.07714   0.88531   0.00000  Uiso   1.00
H886   H     0.38034   0.04665   0.88611   0.00000  Uiso   1.00
H887   H     0.42782   0.07309   0.90081   0.00000  Uiso   1.00
H888   H     0.37033   0.09833   0.90549   0.00000  Uiso   1.00
H889   H     0.43988   0.07227   0.81667   0.00000  Uiso   1.00
H890   H     0.38182   0.09650   0.82314   0.00000  Uiso   1.00
H891   H     0.45885   0.13425   0.85780   0.00000  Uiso   1.00
H892   H     0.41206   0.16137   0.84763   0.00000  Uiso   1.00
C893   C     0.56326   0.19738   0.66705   0.00000  Uiso   1.00
C894   C     0.58544   0.23992   0.66521   0.00000  Uiso   1.00
C895   C     0.60028   0.25918   0.61705   0.00000  Uiso   1.00
H896   H     0.62765   0.23943   0.59543   0.00000  Uiso   1.00
H897   H     0.56893   0.26323   0.60249   0.00000  Uiso   1.00
H898   H     0.61596   0.28995   0.61755   0.00000  Uiso   1.00
H899   H     0.55937   0.26090   0.68659   0.00000  Uiso   1.00
H900   H     0.61811   0.23719   0.67712   0.00000  Uiso   1.00
H901   H     0.58815   0.17308   0.65253   0.00000  Uiso   1.00
H902   H     0.54122   0.19958   0.64216   0.00000  Uiso   1.00
C903   C     0.66750   0.08761   0.74848   0.00000  Uiso   1.00
C904   C     0.99915   0.24572   0.75162   0.00000  Uiso   1.00
C905   C     0.85672   0.19326   0.54425   0.00000  Uiso   1.00
C906   C     0.80713   0.15882   0.95171   0.00000  Uiso   1.00
C907   C     0.90445   0.19880   0.52209   0.00000  Uiso   1.00
C908   C     0.75946   0.15290   0.97364   0.00000  Uiso   1.00
C909   C     0.97228   0.02248   0.72500   0.00000  Uiso   1.00
C910   C     0.69439   0.31086   0.77524   0.00000  Uiso   1.00
C911   C     0.96964   0.31321   0.72985   0.00000  Uiso   1.00
C912   C     0.69700   0.02015   0.77043   0.00000  Uiso   1.00
C913   C     0.99796   0.29039   0.75349   0.00000  Uiso   1.00
C914   C     0.66869   0.04295   0.74673   0.00000  Uiso   1.00
C915   C     0.85024   0.14912   0.78514   0.00000  Uiso   1.00
C916   C     0.81642   0.18411   0.71482   0.00000  Uiso   1.00
C917   C     0.80082   0.14993   0.78667   0.00000  Uiso   1.00
C918   C     0.86578   0.18338   0.71335   0.00000  Uiso   1.00
C919   C     0.97297   0.16739   0.83620   0.00000  Uiso   1.00
C920   C     0.69373   0.16639   0.66372   0.00000  Uiso   1.00
C921   C     0.95751   0.17186   0.88560   0.00000  Uiso   1.00
C922   C     0.70916   0.16509   0.61384   0.00000  Uiso   1.00
C923   C     0.96974   0.19647   0.95502   0.00000  Uiso   1.00
C924   C     0.69567   0.14842   0.54195   0.00000  Uiso   1.00
C925   C     0.98724   0.18875   0.90937   0.00000  Uiso   1.00
C926   C     0.67906   0.15131   0.58860   0.00000  Uiso   1.00
C927   C     0.90989   0.16331   0.90812   0.00000  Uiso   1.00
C928   C     0.75653   0.17515   0.59167   0.00000  Uiso   1.00
C929   C     0.89029   0.17395   0.95322   0.00000  Uiso   1.00
C930   C     0.77491   0.17090   0.54475   0.00000  Uiso   1.00
C931   C     0.92160   0.18948   0.97696   0.00000  Uiso   1.00
C932   C     0.74325   0.15761   0.51999   0.00000  Uiso   1.00
C933   C     0.84070   0.16974   0.97527   0.00000  Uiso   1.00
C934   C     0.82392   0.17806   0.52201   0.00000  Uiso   1.00
Cu935  Cu    0.71355   0.16667   0.75000   0.00000  Uiso   1.00
Cu936  Cu    0.95311   0.16666   0.75000   0.00000  Uiso   1.00
H937   H     0.92823   0.21064   0.54040   0.00000  Uiso   1.00
H938   H     0.73518   0.14405   0.95418   0.00000  Uiso   1.00
H939   H     0.77875   0.18504   0.61228   0.00000  Uiso   1.00
H940   H     0.88877   0.14848   0.88941   0.00000  Uiso   1.00
H941   H     0.97674   0.14111   0.60478   0.00000  Uiso   1.00
H942   H     0.69000   0.19749   0.89261   0.00000  Uiso   1.00
H943   H     0.99351   0.20931   0.97282   0.00000  Uiso   1.00
H944   H     0.67166   0.13758   0.52318   0.00000  Uiso   1.00
H945   H     0.84650   0.20234   0.57861   0.00000  Uiso   1.00
H946   H     0.81647   0.15549   0.91585   0.00000  Uiso   1.00
H947   H     0.94684   0.29803   0.71314   0.00000  Uiso   1.00
H948   H     0.71978   0.03539   0.78717   0.00000  Uiso   1.00
H949   H     0.86291   0.13500   0.81287   0.00000  Uiso   1.00
H950   H     0.80373   0.19827   0.68711   0.00000  Uiso   1.00
N951   N     0.78403   0.16668   0.74999   0.00000  Uiso   1.00
N952   N     0.88264   0.16666   0.75001   0.00000  Uiso   1.00
O953   O     0.70625   0.10655   0.75000   0.00000  Uiso   1.00
O954   O     0.96042   0.22678   0.75000   0.00000  Uiso   1.00
O955   O     0.96039   0.10654   0.75000   0.00000  Uiso   1.00
O956   O     0.70628   0.22679   0.74999   0.00000  Uiso   1.00
O957   O     0.68519   0.16668   0.81491   0.00000  Uiso   1.00
O958   O     0.98148   0.16666   0.68508   0.00000  Uiso   1.00
O959   O     0.93933   0.16667   0.81492   0.00000  Uiso   1.00
O960   O     0.72733   0.16667   0.68508   0.00000  Uiso   1.00
O961   O     0.94641   0.04254   0.69784   0.00000  Uiso   1.00
H962   H     0.96320   0.06816   0.68419   0.00000  Uiso   1.00
O963   O     0.72026   0.29077   0.80237   0.00000  Uiso   1.00
H964   H     0.70356   0.26508   0.81589   0.00000  Uiso   1.00
C965   C     0.76988   0.13665   0.83322   0.00000  Uiso   1.00
C966   C     0.74703   0.09425   0.83632   0.00000  Uiso   1.00
C967   C     0.73045   0.07714   0.88531   0.00000  Uiso   1.00
H968   H     0.71367   0.04665   0.88611   0.00000  Uiso   1.00
H969   H     0.76115   0.07309   0.90081   0.00000  Uiso   1.00
H970   H     0.70366   0.09833   0.90549   0.00000  Uiso   1.00
H971   H     0.77321   0.07227   0.81667   0.00000  Uiso   1.00
H972   H     0.71516   0.09650   0.82314   0.00000  Uiso   1.00
H973   H     0.79219   0.13425   0.85780   0.00000  Uiso   1.00
H974   H     0.74539   0.16137   0.84763   0.00000  Uiso   1.00
C975   C     0.89659   0.19738   0.66705   0.00000  Uiso   1.00
C976   C     0.91877   0.23992   0.66521   0.00000  Uiso   1.00
C977   C     0.93361   0.25918   0.61705   0.00000  Uiso   1.00
H978   H     0.96098   0.23943   0.59543   0.00000  Uiso   1.00
H979   H     0.90226   0.26323   0.60249   0.00000  Uiso   1.00
H980   H     0.94929   0.28995   0.61755   0.00000  Uiso   1.00
H981   H     0.89271   0.26090   0.68659   0.00000  Uiso   1.00
H982   H     0.95144   0.23719   0.67712   0.00000  Uiso   1.00
H983   H     0.92148   0.17308   0.65253   0.00000  Uiso   1.00
H984   H     0.87455   0.19958   0.64216   0.00000  Uiso   1.00
C985   C     0.00084   0.42095   0.74848   0.00000  Uiso   1.00
C986   C     0.33248   0.57905   0.75162   0.00000  Uiso   1.00
C987   C     0.19005   0.52659   0.54425   0.00000  Uiso   1.00
C988   C     0.14046   0.49215   0.95171   0.00000  Uiso   1.00
C989   C     0.23779   0.53213   0.52209   0.00000  Uiso   1.00
C990   C     0.09280   0.48623   0.97364   0.00000  Uiso   1.00
C991   C     0.30561   0.35581   0.72500   0.00000  Uiso   1.00
C992   C     0.02772   0.64420   0.77524   0.00000  Uiso   1.00
C993   C     0.30297   0.64655   0.72985   0.00000  Uiso   1.00
C994   C     0.03033   0.35349   0.77043   0.00000  Uiso   1.00
C995   C     0.33130   0.62372   0.75349   0.00000  Uiso   1.00
C996   C     0.00202   0.37629   0.74673   0.00000  Uiso   1.00
C997   C     0.18357   0.48245   0.78514   0.00000  Uiso   1.00
C998   C     0.14975   0.51744   0.71482   0.00000  Uiso   1.00
C999   C     0.13416   0.48326   0.78667   0.00000  Uiso   1.00
C1000  C     0.19911   0.51672   0.71335   0.00000  Uiso   1.00
C1001  C     0.30630   0.50072   0.83620   0.00000  Uiso   1.00
C1002  C     0.02706   0.49972   0.66372   0.00000  Uiso   1.00
C1003  C     0.29085   0.50520   0.88560   0.00000  Uiso   1.00
C1004  C     0.04249   0.49843   0.61384   0.00000  Uiso   1.00
C1005  C     0.30308   0.52981   0.95502   0.00000  Uiso   1.00
C1006  C     0.02900   0.48175   0.54195   0.00000  Uiso   1.00
C1007  C     0.32057   0.52209   0.90937   0.00000  Uiso   1.00
C1008  C     0.01239   0.48464   0.58860   0.00000  Uiso   1.00
C1009  C     0.24323   0.49665   0.90812   0.00000  Uiso   1.00
C1010  C     0.08986   0.50849   0.59167   0.00000  Uiso   1.00
C1011  C     0.22362   0.50728   0.95322   0.00000  Uiso   1.00
C1012  C     0.10824   0.50423   0.54475   0.00000  Uiso   1.00
C1013  C     0.25494   0.52281   0.97696   0.00000  Uiso   1.00
C1014  C     0.07658   0.49094   0.51999   0.00000  Uiso   1.00
C1015  C     0.17404   0.50308   0.97527   0.00000  Uiso   1.00
C1016  C     0.15725   0.51139   0.52201   0.00000  Uiso   1.00
Cu1017 Cu    0.04689   0.50001   0.75000   0.00000  Uiso   1.00
Cu1018 Cu    0.28645   0.49999   0.75000   0.00000  Uiso   1.00
H1019  H     0.26156   0.54398   0.54040   0.00000  Uiso   1.00
H1020  H     0.06851   0.47738   0.95418   0.00000  Uiso   1.00
H1021  H     0.11208   0.51837   0.61228   0.00000  Uiso   1.00
H1022  H     0.22211   0.48182   0.88941   0.00000  Uiso   1.00
H1023  H     0.31007   0.47444   0.60478   0.00000  Uiso   1.00
H1024  H     0.02334   0.53082   0.89261   0.00000  Uiso   1.00
H1025  H     0.32685   0.54265   0.97282   0.00000  Uiso   1.00
H1026  H     0.00499   0.47091   0.52318   0.00000  Uiso   1.00
H1027  H     0.17983   0.53567   0.57861   0.00000  Uiso   1.00
H1028  H     0.14980   0.48882   0.91585   0.00000  Uiso   1.00
H1029  H     0.28017   0.63136   0.71314   0.00000  Uiso   1.00
H1030  H     0.05311   0.36873   0.78717   0.00000  Uiso   1.00
H1031  H     0.19625   0.46833   0.81287   0.00000  Uiso   1.00
H1032  H     0.13707   0.53160   0.68711   0.00000  Uiso   1.00
N1033  N     0.11736   0.50001   0.74999   0.00000  Uiso   1.00
N1034  N     0.21597   0.49999   0.75001   0.00000  Uiso   1.00
O1035  O     0.03958   0.43989   0.75000   0.00000  Uiso   1.00
O1036  O     0.29375   0.56011   0.75000   0.00000  Uiso   1.00
O1037  O     0.29372   0.43988   0.75000   0.00000  Uiso   1.00
O1038  O     0.03961   0.56012   0.74999   0.00000  Uiso   1.00
O1039  O     0.01852   0.50001   0.81491   0.00000  Uiso   1.00
O1040  O     0.31481   0.49999   0.68508   0.00000  Uiso   1.00
O1041  O     0.27267   0.50000   0.81492   0.00000  Uiso   1.00
O1042  O     0.06067   0.50000   0.68508   0.00000  Uiso   1.00
O1043  O     0.27975   0.37588   0.69784   0.00000  Uiso   1.00
H1044  H     0.29654   0.40149   0.68419   0.00000  Uiso   1.00
O1045  O     0.05359   0.62411   0.80237   0.00000  Uiso   1.00
H1046  H     0.03690   0.59841   0.81589   0.00000  Uiso   1.00
C1047  C     0.10321   0.46998   0.83322   0.00000  Uiso   1.00
C1048  C     0.08036   0.42758   0.83632   0.00000  Uiso   1.00
C1049  C     0.06379   0.41048   0.88531   0.00000  Uiso   1.00
H1050  H     0.04701   0.37998   0.88611   0.00000  Uiso   1.00
H1051  H     0.09449   0.40643   0.90081   0.00000  Uiso   1.00
H1052  H     0.03700   0.43166   0.90549   0.00000  Uiso   1.00
H1053  H     0.10655   0.40561   0.81667   0.00000  Uiso   1.00
H1054  H     0.04849   0.42984   0.82314   0.00000  Uiso   1.00
H1055  H     0.12552   0.46758   0.85780   0.00000  Uiso   1.00
H1056  H     0.07872   0.49471   0.84763   0.00000  Uiso   1.00
C1057  C     0.22992   0.53071   0.66705   0.00000  Uiso   1.00
C1058  C     0.25211   0.57326   0.66521   0.00000  Uiso   1.00
C1059  C     0.26694   0.59251   0.61705   0.00000  Uiso   1.00
H1060  H     0.29432   0.57276   0.59543   0.00000  Uiso   1.00
H1061  H     0.23559   0.59656   0.60249   0.00000  Uiso   1.00
H1062  H     0.28262   0.62328   0.61755   0.00000  Uiso   1.00
H1063  H     0.22604   0.59424   0.68659   0.00000  Uiso   1.00
H1064  H     0.28477   0.57053   0.67712   0.00000  Uiso   1.00
H1065  H     0.25482   0.50641   0.65253   0.00000  Uiso   1.00
H1066  H     0.20789   0.53291   0.64216   0.00000  Uiso   1.00
C1067  C     0.33417   0.42095   0.74848   0.00000  Uiso   1.00
C1068  C     0.66582   0.57905   0.75162   0.00000  Uiso   1.00
C1069  C     0.52339   0.52659   0.54425   0.00000  Uiso   1.00
C1070  C     0.47379   0.49215   0.95171   0.00000  Uiso   1.00
C1071  C     0.57112   0.53213   0.52209   0.00000  Uiso   1.00
C1072  C     0.42613   0.48623   0.97364   0.00000  Uiso   1.00
C1073  C     0.63894   0.35581   0.72500   0.00000  Uiso   1.00
C1074  C     0.36105   0.64420   0.77524   0.00000  Uiso   1.00
C1075  C     0.63631   0.64655   0.72985   0.00000  Uiso   1.00
C1076  C     0.36366   0.35349   0.77043   0.00000  Uiso   1.00
C1077  C     0.66463   0.62372   0.75349   0.00000  Uiso   1.00
C1078  C     0.33536   0.37629   0.74673   0.00000  Uiso   1.00
C1079  C     0.51690   0.48245   0.78514   0.00000  Uiso   1.00
C1080  C     0.48308   0.51744   0.71482   0.00000  Uiso   1.00
C1081  C     0.46749   0.48326   0.78667   0.00000  Uiso   1.00
C1082  C     0.53244   0.51672   0.71335   0.00000  Uiso   1.00
C1083  C     0.63963   0.50072   0.83620   0.00000  Uiso   1.00
C1084  C     0.36039   0.49972   0.66372   0.00000  Uiso   1.00
C1085  C     0.62418   0.50520   0.88560   0.00000  Uiso   1.00
C1086  C     0.37582   0.49843   0.61384   0.00000  Uiso   1.00
C1087  C     0.63641   0.52981   0.95502   0.00000  Uiso   1.00
C1088  C     0.36234   0.48175   0.54195   0.00000  Uiso   1.00
C1089  C     0.65390   0.52209   0.90937   0.00000  Uiso   1.00
C1090  C     0.34573   0.48464   0.58860   0.00000  Uiso   1.00
C1091  C     0.57656   0.49665   0.90812   0.00000  Uiso   1.00
C1092  C     0.42320   0.50849   0.59167   0.00000  Uiso   1.00
C1093  C     0.55696   0.50728   0.95322   0.00000  Uiso   1.00
C1094  C     0.44157   0.50423   0.54475   0.00000  Uiso   1.00
C1095  C     0.58827   0.52281   0.97696   0.00000  Uiso   1.00
C1096  C     0.40992   0.49094   0.51999   0.00000  Uiso   1.00
C1097  C     0.50737   0.50308   0.97527   0.00000  Uiso   1.00
C1098  C     0.49058   0.51139   0.52201   0.00000  Uiso   1.00
Cu1099 Cu    0.38022   0.50001   0.75000   0.00000  Uiso   1.00
Cu1100 Cu    0.61978   0.49999   0.75000   0.00000  Uiso   1.00
H1101  H     0.59489   0.54398   0.54040   0.00000  Uiso   1.00
H1102  H     0.40185   0.47738   0.95418   0.00000  Uiso   1.00
H1103  H     0.44541   0.51837   0.61228   0.00000  Uiso   1.00
H1104  H     0.55544   0.48182   0.88941   0.00000  Uiso   1.00
H1105  H     0.64340   0.47444   0.60478   0.00000  Uiso   1.00
H1106  H     0.35667   0.53082   0.89261   0.00000  Uiso   1.00
H1107  H     0.66018   0.54265   0.97282   0.00000  Uiso   1.00
H1108  H     0.33833   0.47091   0.52318   0.00000  Uiso   1.00
H1109  H     0.51316   0.53567   0.57861   0.00000  Uiso   1.00
H1110  H     0.48314   0.48882   0.91585   0.00000  Uiso   1.00
H1111  H     0.61350   0.63136   0.71314   0.00000  Uiso   1.00
H1112  H     0.38644   0.36873   0.78717   0.00000  Uiso   1.00
H1113  H     0.52958   0.46833   0.81287   0.00000  Uiso   1.00
H1114  H     0.47040   0.53160   0.68711   0.00000  Uiso   1.00
N1115  N     0.45069   0.50001   0.74999   0.00000  Uiso   1.00
N1116  N     0.54931   0.49999   0.75001   0.00000  Uiso   1.00
O1117  O     0.37291   0.43989   0.75000   0.00000  Uiso   1.00
O1118  O     0.62709   0.56011   0.75000   0.00000  Uiso   1.00
O1119  O     0.62706   0.43988   0.75000   0.00000  Uiso   1.00
O1120  O     0.37294   0.56012   0.74999   0.00000  Uiso   1.00
O1121  O     0.35186   0.50001   0.81491   0.00000  Uiso   1.00
O1122  O     0.64814   0.49999   0.68508   0.00000  Uiso   1.00
O1123  O     0.60600   0.50000   0.81492   0.00000  Uiso   1.00
O1124  O     0.39400   0.50000   0.68508   0.00000  Uiso   1.00
O1125  O     0.61308   0.37588   0.69784   0.00000  Uiso   1.00
H1126  H     0.62987   0.40149   0.68419   0.00000  Uiso   1.00
O1127  O     0.38693   0.62411   0.80237   0.00000  Uiso   1.00
H1128  H     0.37023   0.59841   0.81589   0.00000  Uiso   1.00
C1129  C     0.43654   0.46998   0.83322   0.00000  Uiso   1.00
C1130  C     0.41370   0.42758   0.83632   0.00000  Uiso   1.00
C1131  C     0.39712   0.41048   0.88531   0.00000  Uiso   1.00
H1132  H     0.38034   0.37998   0.88611   0.00000  Uiso   1.00
H1133  H     0.42782   0.40643   0.90081   0.00000  Uiso   1.00
H1134  H     0.37033   0.43166   0.90549   0.00000  Uiso   1.00
H1135  H     0.43988   0.40561   0.81667   0.00000  Uiso   1.00
H1136  H     0.38182   0.42984   0.82314   0.00000  Uiso   1.00
H1137  H     0.45885   0.46758   0.85780   0.00000  Uiso   1.00
H1138  H     0.41206   0.49471   0.84763   0.00000  Uiso   1.00
C1139  C     0.56326   0.53071   0.66705   0.00000  Uiso   1.00
C1140  C     0.58544   0.57326   0.66521   0.00000  Uiso   1.00
C1141  C     0.60028   0.59251   0.61705   0.00000  Uiso   1.00
H1142  H     0.62765   0.57276   0.59543   0.00000  Uiso   1.00
H1143  H     0.56893   0.59656   0.60249   0.00000  Uiso   1.00
H1144  H     0.61596   0.62328   0.61755   0.00000  Uiso   1.00
H1145  H     0.55937   0.59424   0.68659   0.00000  Uiso   1.00
H1146  H     0.61811   0.57053   0.67712   0.00000  Uiso   1.00
H1147  H     0.58815   0.50641   0.65253   0.00000  Uiso   1.00
H1148  H     0.54122   0.53291   0.64216   0.00000  Uiso   1.00
C1149  C     0.66750   0.42095   0.74848   0.00000  Uiso   1.00
C1150  C     0.99915   0.57905   0.75162   0.00000  Uiso   1.00
C1151  C     0.85672   0.52659   0.54425   0.00000  Uiso   1.00
C1152  C     0.80713   0.49215   0.95171   0.00000  Uiso   1.00
C1153  C     0.90445   0.53213   0.52209   0.00000  Uiso   1.00
C1154  C     0.75946   0.48623   0.97364   0.00000  Uiso   1.00
C1155  C     0.97228   0.35581   0.72500   0.00000  Uiso   1.00
C1156  C     0.69439   0.64420   0.77524   0.00000  Uiso   1.00
C1157  C     0.96964   0.64655   0.72985   0.00000  Uiso   1.00
C1158  C     0.69700   0.35349   0.77043   0.00000  Uiso   1.00
C1159  C     0.99796   0.62372   0.75349   0.00000  Uiso   1.00
C1160  C     0.66869   0.37629   0.74673   0.00000  Uiso   1.00
C1161  C     0.85024   0.48245   0.78514   0.00000  Uiso   1.00
C1162  C     0.81642   0.51744   0.71482   0.00000  Uiso   1.00
C1163  C     0.80082   0.48326   0.78667   0.00000  Uiso   1.00
C1164  C     0.86578   0.51672   0.71335   0.00000  Uiso   1.00
C1165  C     0.97297   0.50072   0.83620   0.00000  Uiso   1.00
C1166  C     0.69373   0.49972   0.66372   0.00000  Uiso   1.00
C1167  C     0.95751   0.50520   0.88560   0.00000  Uiso   1.00
C1168  C     0.70916   0.49843   0.61384   0.00000  Uiso   1.00
C1169  C     0.96974   0.52981   0.95502   0.00000  Uiso   1.00
C1170  C     0.69567   0.48175   0.54195   0.00000  Uiso   1.00
C1171  C     0.98724   0.52209   0.90937   0.00000  Uiso   1.00
C1172  C     0.67906   0.48464   0.58860   0.00000  Uiso   1.00
C1173  C     0.90989   0.49665   0.90812   0.00000  Uiso   1.00
C1174  C     0.75653   0.50849   0.59167   0.00000  Uiso   1.00
C1175  C     0.89029   0.50728   0.95322   0.00000  Uiso   1.00
C1176  C     0.77491   0.50423   0.54475   0.00000  Uiso   1.00
C1177  C     0.92160   0.52281   0.97696   0.00000  Uiso   1.00
C1178  C     0.74325   0.49094   0.51999   0.00000  Uiso   1.00
C1179  C     0.84070   0.50308   0.97527   0.00000  Uiso   1.00
C1180  C     0.82392   0.51139   0.52201   0.00000  Uiso   1.00
Cu1181 Cu    0.71355   0.50001   0.75000   0.00000  Uiso   1.00
Cu1182 Cu    0.95311   0.49999   0.75000   0.00000  Uiso   1.00
H1183  H     0.92823   0.54398   0.54040   0.00000  Uiso   1.00
H1184  H     0.73518   0.47738   0.95418   0.00000  Uiso   1.00
H1185  H     0.77875   0.51837   0.61228   0.00000  Uiso   1.00
H1186  H     0.88877   0.48182   0.88941   0.00000  Uiso   1.00
H1187  H     0.97674   0.47444   0.60478   0.00000  Uiso   1.00
H1188  H     0.69000   0.53082   0.89261   0.00000  Uiso   1.00
H1189  H     0.99351   0.54265   0.97282   0.00000  Uiso   1.00
H1190  H     0.67166   0.47091   0.52318   0.00000  Uiso   1.00
H1191  H     0.84650   0.53567   0.57861   0.00000  Uiso   1.00
H1192  H     0.81647   0.48882   0.91585   0.00000  Uiso   1.00
H1193  H     0.94684   0.63136   0.71314   0.00000  Uiso   1.00
H1194  H     0.71978   0.36873   0.78717   0.00000  Uiso   1.00
H1195  H     0.86291   0.46833   0.81287   0.00000  Uiso   1.00
H1196  H     0.80373   0.53160   0.68711   0.00000  Uiso   1.00
N1197  N     0.78403   0.50001   0.74999   0.00000  Uiso   1.00
N1198  N     0.88264   0.49999   0.75001   0.00000  Uiso   1.00
O1199  O     0.70625   0.43989   0.75000   0.00000  Uiso   1.00
O1200  O     0.96042   0.56011   0.75000   0.00000  Uiso   1.00
O1201  O     0.96039   0.43988   0.75000   0.00000  Uiso   1.00
O1202  O     0.70628   0.56012   0.74999   0.00000  Uiso   1.00
O1203  O     0.68519   0.50001   0.81491   0.00000  Uiso   1.00
O1204  O     0.98148   0.49999   0.68508   0.00000  Uiso   1.00
O1205  O     0.93933   0.50000   0.81492   0.00000  Uiso   1.00
O1206  O     0.72733   0.50000   0.68508   0.00000  Uiso   1.00
O1207  O     0.94641   0.37588   0.69784   0.00000  Uiso   1.00
H1208  H     0.96320   0.40149   0.68419   0.00000  Uiso   1.00
O1209  O     0.72026   0.62411   0.80237   0.00000  Uiso   1.00
H1210  H     0.70356   0.59841   0.81589   0.00000  Uiso   1.00
C1211  C     0.76988   0.46998   0.83322   0.00000  Uiso   1.00
C1212  C     0.74703   0.42758   0.83632   0.00000  Uiso   1.00
C1213  C     0.73045   0.41048   0.88531   0.00000  Uiso   1.00
H1214  H     0.71367   0.37998   0.88611   0.00000  Uiso   1.00
H1215  H     0.76115   0.40643   0.90081   0.00000  Uiso   1.00
H1216  H     0.70366   0.43166   0.90549   0.00000  Uiso   1.00
H1217  H     0.77321   0.40561   0.81667   0.00000  Uiso   1.00
H1218  H     0.71516   0.42984   0.82314   0.00000  Uiso   1.00
H1219  H     0.79219   0.46758   0.85780   0.00000  Uiso   1.00
H1220  H     0.74539   0.49471   0.84763   0.00000  Uiso   1.00
C1221  C     0.89659   0.53071   0.66705   0.00000  Uiso   1.00
C1222  C     0.91877   0.57326   0.66521   0.00000  Uiso   1.00
C1223  C     0.93361   0.59251   0.61705   0.00000  Uiso   1.00
H1224  H     0.96098   0.57276   0.59543   0.00000  Uiso   1.00
H1225  H     0.90226   0.59656   0.60249   0.00000  Uiso   1.00
H1226  H     0.94929   0.62328   0.61755   0.00000  Uiso   1.00
H1227  H     0.89271   0.59424   0.68659   0.00000  Uiso   1.00
H1228  H     0.95144   0.57053   0.67712   0.00000  Uiso   1.00
H1229  H     0.92148   0.50641   0.65253   0.00000  Uiso   1.00
H1230  H     0.87455   0.53291   0.64216   0.00000  Uiso   1.00
C1231  C     0.00084   0.75428   0.74848   0.00000  Uiso   1.00
C1232  C     0.33248   0.91239   0.75162   0.00000  Uiso   1.00
C1233  C     0.19005   0.85993   0.54425   0.00000  Uiso   1.00
C1234  C     0.14046   0.82549   0.95171   0.00000  Uiso   1.00
C1235  C     0.23779   0.86546   0.52209   0.00000  Uiso   1.00
C1236  C     0.09280   0.81956   0.97364   0.00000  Uiso   1.00
C1237  C     0.30561   0.68914   0.72500   0.00000  Uiso   1.00
C1238  C     0.02772   0.97753   0.77524   0.00000  Uiso   1.00
C1239  C     0.30297   0.97988   0.72985   0.00000  Uiso   1.00
C1240  C     0.03033   0.68682   0.77043   0.00000  Uiso   1.00
C1241  C     0.33130   0.95706   0.75349   0.00000  Uiso   1.00
C1242  C     0.00202   0.70962   0.74673   0.00000  Uiso   1.00
C1243  C     0.18357   0.81579   0.78514   0.00000  Uiso   1.00
C1244  C     0.14975   0.85077   0.71482   0.00000  Uiso   1.00
C1245  C     0.13416   0.81659   0.78667   0.00000  Uiso   1.00
C1246  C     0.19911   0.85005   0.71335   0.00000  Uiso   1.00
C1247  C     0.30630   0.83406   0.83620   0.00000  Uiso   1.00
C1248  C     0.02706   0.83306   0.66372   0.00000  Uiso   1.00
C1249  C     0.29085   0.83853   0.88560   0.00000  Uiso   1.00
C1250  C     0.04249   0.83176   0.61384   0.00000  Uiso   1.00
C1251  C     0.30308   0.86314   0.95502   0.00000  Uiso   1.00
C1252  C     0.02900   0.81508   0.54195   0.00000  Uiso   1.00
C1253  C     0.32057   0.85542   0.90937   0.00000  Uiso   1.00
C1254  C     0.01239   0.81798   0.58860   0.00000  Uiso   1.00
C1255  C     0.24323   0.82998   0.90812   0.00000  Uiso   1.00
C1256  C     0.08986   0.84182   0.59167   0.00000  Uiso   1.00
C1257  C     0.22362   0.84061   0.95322   0.00000  Uiso   1.00
C1258  C     0.10824   0.83757   0.54475   0.00000  Uiso   1.00
C1259  C     0.25494   0.85615   0.97696   0.00000  Uiso   1.00
C1260  C     0.07658   0.82428   0.51999   0.00000  Uiso   1.00
C1261  C     0.17404   0.83641   0.97527   0.00000  Uiso   1.00
C1262  C     0.15725   0.84473   0.52201   0.00000  Uiso   1.00
Cu1263 Cu    0.04689   0.83334   0.75000   0.00000  Uiso   1.00
Cu1264 Cu    0.28645   0.83333   0.75000   0.00000  Uiso   1.00
H1265  H     0.26156   0.87731   0.54040   0.00000  Uiso   1.00
H1266  H     0.06851   0.81071   0.95418   0.00000  Uiso   1.00
H1267  H     0.11208   0.85170   0.61228   0.00000  Uiso   1.00
H1268  H     0.22211   0.81515   0.88941   0.00000  Uiso   1.00
H1269  H     0.31007   0.80777   0.60478   0.00000  Uiso   1.00
H1270  H     0.02334   0.86416   0.89261   0.00000  Uiso   1.00
H1271  H     0.32685   0.87598   0.97282   0.00000  Uiso   1.00
H1272  H     0.00499   0.80425   0.52318   0.00000  Uiso   1.00
H1273  H     0.17983   0.86901   0.57861   0.00000  Uiso   1.00
H1274  H     0.14980   0.82216   0.91585   0.00000  Uiso   1.00
H1275  H     0.28017   0.96470   0.71314   0.00000  Uiso   1.00
H1276  H     0.05311   0.70206   0.78717   0.00000  Uiso   1.00
H1277  H     0.19625   0.80167   0.81287   0.00000  Uiso   1.00
H1278  H     0.13707   0.86493   0.68711   0.00000  Uiso   1.00
N1279  N     0.11736   0.83334   0.74999   0.00000  Uiso   1.00
N1280  N     0.21597   0.83332   0.75001   0.00000  Uiso   1.00
O1281  O     0.03958   0.77322   0.75000   0.00000  Uiso   1.00
O1282  O     0.29375   0.89345   0.75000   0.00000  Uiso   1.00
O1283  O     0.29372   0.77321   0.75000   0.00000  Uiso   1.00
O1284  O     0.03961   0.89346   0.74999   0.00000  Uiso   1.00
O1285  O     0.01852   0.83334   0.81491   0.00000  Uiso   1.00
O1286  O     0.31481   0.83332   0.68508   0.00000  Uiso   1.00
O1287  O     0.27267   0.83333   0.81492   0.00000  Uiso   1.00
O1288  O     0.06067   0.83333   0.68508   0.00000  Uiso   1.00
O1289  O     0.27975   0.70921   0.69784   0.00000  Uiso   1.00
H1290  H     0.29654   0.73482   0.68419   0.00000  Uiso   1.00
O1291  O     0.05359   0.95744   0.80237   0.00000  Uiso   1.00
H1292  H     0.03690   0.93175   0.81589   0.00000  Uiso   1.00
C1293  C     0.10321   0.80332   0.83322   0.00000  Uiso   1.00
C1294  C     0.08036   0.76091   0.83632   0.00000  Uiso   1.00
C1295  C     0.06379   0.74381   0.88531   0.00000  Uiso   1.00
H1296  H     0.04701   0.71331   0.88611   0.00000  Uiso   1.00
H1297  H     0.09449   0.73976   0.90081   0.00000  Uiso   1.00
H1298  H     0.03700   0.76499   0.90549   0.00000  Uiso   1.00
H1299  H     0.10655   0.73894   0.81667   0.00000  Uiso   1.00
H1300  H     0.04849   0.76317   0.82314   0.00000  Uiso   1.00
H1301  H     0.12552   0.80092   0.85780   0.00000  Uiso   1.00
H1302  H     0.07872   0.82804   0.84763   0.00000  Uiso   1.00
C1303  C     0.22992   0.86405   0.66705   0.00000  Uiso   1.00
C1304  C     0.25211   0.90659   0.66521   0.00000  Uiso   1.00
C1305  C     0.26694   0.92584   0.61705   0.00000  Uiso   1.00
H1306  H     0.29432   0.90609   0.59543   0.00000  Uiso   1.00
H1307  H     0.23559   0.92990   0.60249   0.00000  Uiso   1.00
H1308  H     0.28262   0.95661   0.61755   0.00000  Uiso   1.00
H1309  H     0.22604   0.92757   0.68659   0.00000  Uiso   1.00
H1310  H     0.28477   0.90386   0.67712   0.00000  Uiso   1.00
H1311  H     0.25482   0.83974   0.65253   0.00000  Uiso   1.00
H1312  H     0.20789   0.86625   0.64216   0.00000  Uiso   1.00
C1313  C     0.33417   0.75428   0.74848   0.00000  Uiso   1.00
C1314  C     0.66582   0.91239   0.75162   0.00000  Uiso   1.00
C1315  C     0.52339   0.85993   0.54425   0.00000  Uiso   1.00
C1316  C     0.47379   0.82549   0.95171   0.00000  Uiso   1.00
C1317  C     0.57112   0.86546   0.52209   0.00000  Uiso   1.00
C1318  C     0.42613   0.81956   0.97364   0.00000  Uiso   1.00
C1319  C     0.63894   0.68914   0.72500   0.00000  Uiso   1.00
C1320  C     0.36105   0.97753   0.77524   0.00000  Uiso   1.00
C1321  C     0.63631   0.97988   0.72985   0.00000  Uiso   1.00
C1322  C     0.36366   0.68682   0.77043   0.00000  Uiso   1.00
C1323  C     0.66463   0.95706   0.75349   0.00000  Uiso   1.00
C1324  C     0.33536   0.70962   0.74673   0.00000  Uiso   1.00
C1325  C     0.51690   0.81579   0.78514   0.00000  Uiso   1.00
C1326  C     0.48308   0.85077   0.71482   0.00000  Uiso   1.00
C1327  C     0.46749   0.81659   0.78667   0.00000  Uiso   1.00
C1328  C     0.53244   0.85005   0.71335   0.00000  Uiso   1.00
C1329  C     0.63963   0.83406   0.83620   0.00000  Uiso   1.00
C1330  C     0.36039   0.83306   0.66372   0.00000  Uiso   1.00
C1331  C     0.62418   0.83853   0.88560   0.00000  Uiso   1.00
C1332  C     0.37582   0.83176   0.61384   0.00000  Uiso   1.00
C1333  C     0.63641   0.86314   0.95502   0.00000  Uiso   1.00
C1334  C     0.36234   0.81508   0.54195   0.00000  Uiso   1.00
C1335  C     0.65390   0.85542   0.90937   0.00000  Uiso   1.00
C1336  C     0.34573   0.81798   0.58860   0.00000  Uiso   1.00
C1337  C     0.57656   0.82998   0.90812   0.00000  Uiso   1.00
C1338  C     0.42320   0.84182   0.59167   0.00000  Uiso   1.00
C1339  C     0.55696   0.84061   0.95322   0.00000  Uiso   1.00
C1340  C     0.44157   0.83757   0.54475   0.00000  Uiso   1.00
C1341  C     0.58827   0.85615   0.97696   0.00000  Uiso   1.00
C1342  C     0.40992   0.82428   0.51999   0.00000  Uiso   1.00
C1343  C     0.50737   0.83641   0.97527   0.00000  Uiso   1.00
C1344  C     0.49058   0.84473   0.52201   0.00000  Uiso   1.00
Cu1345 Cu    0.38022   0.83334   0.75000   0.00000  Uiso   1.00
Cu1346 Cu    0.61978   0.83333   0.75000   0.00000  Uiso   1.00
H1347  H     0.59489   0.87731   0.54040   0.00000  Uiso   1.00
H1348  H     0.40185   0.81071   0.95418   0.00000  Uiso   1.00
H1349  H     0.44541   0.85170   0.61228   0.00000  Uiso   1.00
H1350  H     0.55544   0.81515   0.88941   0.00000  Uiso   1.00
H1351  H     0.64340   0.80777   0.60478   0.00000  Uiso   1.00
H1352  H     0.35667   0.86416   0.89261   0.00000  Uiso   1.00
H1353  H     0.66018   0.87598   0.97282   0.00000  Uiso   1.00
H1354  H     0.33833   0.80425   0.52318   0.00000  Uiso   1.00
H1355  H     0.51316   0.86901   0.57861   0.00000  Uiso   1.00
H1356  H     0.48314   0.82216   0.91585   0.00000  Uiso   1.00
H1357  H     0.61350   0.96470   0.71314   0.00000  Uiso   1.00
H1358  H     0.38644   0.70206   0.78717   0.00000  Uiso   1.00
H1359  H     0.52958   0.80167   0.81287   0.00000  Uiso   1.00
H1360  H     0.47040   0.86493   0.68711   0.00000  Uiso   1.00
N1361  N     0.45069   0.83334   0.74999   0.00000  Uiso   1.00
N1362  N     0.54931   0.83332   0.75001   0.00000  Uiso   1.00
O1363  O     0.37291   0.77322   0.75000   0.00000  Uiso   1.00
O1364  O     0.62709   0.89345   0.75000   0.00000  Uiso   1.00
O1365  O     0.62706   0.77321   0.75000   0.00000  Uiso   1.00
O1366  O     0.37294   0.89346   0.74999   0.00000  Uiso   1.00
O1367  O     0.35186   0.83334   0.81491   0.00000  Uiso   1.00
O1368  O     0.64814   0.83332   0.68508   0.00000  Uiso   1.00
O1369  O     0.60600   0.83333   0.81492   0.00000  Uiso   1.00
O1370  O     0.39400   0.83333   0.68508   0.00000  Uiso   1.00
O1371  O     0.61308   0.70921   0.69784   0.00000  Uiso   1.00
H1372  H     0.62987   0.73482   0.68419   0.00000  Uiso   1.00
O1373  O     0.38693   0.95744   0.80237   0.00000  Uiso   1.00
H1374  H     0.37023   0.93175   0.81589   0.00000  Uiso   1.00
C1375  C     0.43654   0.80332   0.83322   0.00000  Uiso   1.00
C1376  C     0.41370   0.76091   0.83632   0.00000  Uiso   1.00
C1377  C     0.39712   0.74381   0.88531   0.00000  Uiso   1.00
H1378  H     0.38034   0.71331   0.88611   0.00000  Uiso   1.00
H1379  H     0.42782   0.73976   0.90081   0.00000  Uiso   1.00
H1380  H     0.37033   0.76499   0.90549   0.00000  Uiso   1.00
H1381  H     0.43988   0.73894   0.81667   0.00000  Uiso   1.00
H1382  H     0.38182   0.76317   0.82314   0.00000  Uiso   1.00
H1383  H     0.45885   0.80092   0.85780   0.00000  Uiso   1.00
H1384  H     0.41206   0.82804   0.84763   0.00000  Uiso   1.00
C1385  C     0.56326   0.86405   0.66705   0.00000  Uiso   1.00
C1386  C     0.58544   0.90659   0.66521   0.00000  Uiso   1.00
C1387  C     0.60028   0.92584   0.61705   0.00000  Uiso   1.00
H1388  H     0.62765   0.90609   0.59543   0.00000  Uiso   1.00
H1389  H     0.56893   0.92990   0.60249   0.00000  Uiso   1.00
H1390  H     0.61596   0.95661   0.61755   0.00000  Uiso   1.00
H1391  H     0.55937   0.92757   0.68659   0.00000  Uiso   1.00
H1392  H     0.61811   0.90386   0.67712   0.00000  Uiso   1.00
H1393  H     0.58815   0.83974   0.65253   0.00000  Uiso   1.00
H1394  H     0.54122   0.86625   0.64216   0.00000  Uiso   1.00
C1395  C     0.66750   0.75428   0.74848   0.00000  Uiso   1.00
C1396  C     0.99915   0.91239   0.75162   0.00000  Uiso   1.00
C1397  C     0.85672   0.85993   0.54425   0.00000  Uiso   1.00
C1398  C     0.80713   0.82549   0.95171   0.00000  Uiso   1.00
C1399  C     0.90445   0.86546   0.52209   0.00000  Uiso   1.00
C1400  C     0.75946   0.81956   0.97364   0.00000  Uiso   1.00
C1401  C     0.97228   0.68914   0.72500   0.00000  Uiso   1.00
C1402  C     0.69439   0.97753   0.77524   0.00000  Uiso   1.00
C1403  C     0.96964   0.97988   0.72985   0.00000  Uiso   1.00
C1404  C     0.69700   0.68682   0.77043   0.00000  Uiso   1.00
C1405  C     0.99796   0.95706   0.75349   0.00000  Uiso   1.00
C1406  C     0.66869   0.70962   0.74673   0.00000  Uiso   1.00
C1407  C     0.85024   0.81579   0.78514   0.00000  Uiso   1.00
C1408  C     0.81642   0.85077   0.71482   0.00000  Uiso   1.00
C1409  C     0.80082   0.81659   0.78667   0.00000  Uiso   1.00
C1410  C     0.86578   0.85005   0.71335   0.00000  Uiso   1.00
C1411  C     0.97297   0.83406   0.83620   0.00000  Uiso   1.00
C1412  C     0.69373   0.83306   0.66372   0.00000  Uiso   1.00
C1413  C     0.95751   0.83853   0.88560   0.00000  Uiso   1.00
C1414  C     0.70916   0.83176   0.61384   0.00000  Uiso   1.00
C1415  C     0.96974   0.86314   0.95502   0.00000  Uiso   1.00
C1416  C     0.69567   0.81508   0.54195   0.00000  Uiso   1.00
C1417  C     0.98724   0.85542   0.90937   0.00000  Uiso   1.00
C1418  C     0.67906   0.81798   0.58860   0.00000  Uiso   1.00
C1419  C     0.90989   0.82998   0.90812   0.00000  Uiso   1.00
C1420  C     0.75653   0.84182   0.59167   0.00000  Uiso   1.00
C1421  C     0.89029   0.84061   0.95322   0.00000  Uiso   1.00
C1422  C     0.77491   0.83757   0.54475   0.00000  Uiso   1.00
C1423  C     0.92160   0.85615   0.97696   0.00000  Uiso   1.00
C1424  C     0.74325   0.82428   0.51999   0.00000  Uiso   1.00
C1425  C     0.84070   0.83641   0.97527   0.00000  Uiso   1.00
C1426  C     0.82392   0.84473   0.52201   0.00000  Uiso   1.00
Cu1427 Cu    0.71355   0.83334   0.75000   0.00000  Uiso   1.00
Cu1428 Cu    0.95311   0.83333   0.75000   0.00000  Uiso   1.00
H1429  H     0.92823   0.87731   0.54040   0.00000  Uiso   1.00
H1430  H     0.73518   0.81071   0.95418   0.00000  Uiso   1.00
H1431  H     0.77875   0.85170   0.61228   0.00000  Uiso   1.00
H1432  H     0.88877   0.81515   0.88941   0.00000  Uiso   1.00
H1433  H     0.97674   0.80777   0.60478   0.00000  Uiso   1.00
H1434  H     0.69000   0.86416   0.89261   0.00000  Uiso   1.00
H1435  H     0.99351   0.87598   0.97282   0.00000  Uiso   1.00
H1436  H     0.67166   0.80425   0.52318   0.00000  Uiso   1.00
H1437  H     0.84650   0.86901   0.57861   0.00000  Uiso   1.00
H1438  H     0.81647   0.82216   0.91585   0.00000  Uiso   1.00
H1439  H     0.94684   0.96470   0.71314   0.00000  Uiso   1.00
H1440  H     0.71978   0.70206   0.78717   0.00000  Uiso   1.00
H1441  H     0.86291   0.80167   0.81287   0.00000  Uiso   1.00
H1442  H     0.80373   0.86493   0.68711   0.00000  Uiso   1.00
N1443  N     0.78403   0.83334   0.74999   0.00000  Uiso   1.00
N1444  N     0.88264   0.83332   0.75001   0.00000  Uiso   1.00
O1445  O     0.70625   0.77322   0.75000   0.00000  Uiso   1.00
O1446  O     0.96042   0.89345   0.75000   0.00000  Uiso   1.00
O1447  O     0.96039   0.77321   0.75000   0.00000  Uiso   1.00
O1448  O     0.70628   0.89346   0.74999   0.00000  Uiso   1.00
O1449  O     0.68519   0.83334   0.81491   0.00000  Uiso   1.00
O1450  O     0.98148   0.83332   0.68508   0.00000  Uiso   1.00
O1451  O     0.93933   0.83333   0.81492   0.00000  Uiso   1.00
O1452  O     0.72733   0.83333   0.68508   0.00000  Uiso   1.00
O1453  O     0.94641   0.70921   0.69784   0.00000  Uiso   1.00
H1454  H     0.96320   0.73482   0.68419   0.00000  Uiso   1.00
O1455  O     0.72026   0.95744   0.80237   0.00000  Uiso   1.00
H1456  H     0.70356   0.93175   0.81589   0.00000  Uiso   1.00
C1457  C     0.76988   0.80332   0.83322   0.00000  Uiso   1.00
C1458  C     0.74703   0.76091   0.83632   0.00000  Uiso   1.00
C1459  C     0.73045   0.74381   0.88531   0.00000  Uiso   1.00
H1460  H     0.71367   0.71331   0.88611   0.00000  Uiso   1.00
H1461  H     0.76115   0.73976   0.90081   0.00000  Uiso   1.00
H1462  H     0.70366   0.76499   0.90549   0.00000  Uiso   1.00
H1463  H     0.77321   0.73894   0.81667   0.00000  Uiso   1.00
H1464  H     0.71516   0.76317   0.82314   0.00000  Uiso   1.00
H1465  H     0.79219   0.80092   0.85780   0.00000  Uiso   1.00
H1466  H     0.74539   0.82804   0.84763   0.00000  Uiso   1.00
C1467  C     0.89659   0.86405   0.66705   0.00000  Uiso   1.00
C1468  C     0.91877   0.90659   0.66521   0.00000  Uiso   1.00
C1469  C     0.93361   0.92584   0.61705   0.00000  Uiso   1.00
H1470  H     0.96098   0.90609   0.59543   0.00000  Uiso   1.00
H1471  H     0.90226   0.92990   0.60249   0.00000  Uiso   1.00
H1472  H     0.94929   0.95661   0.61755   0.00000  Uiso   1.00
H1473  H     0.89271   0.92757   0.68659   0.00000  Uiso   1.00
H1474  H     0.95144   0.90386   0.67712   0.00000  Uiso   1.00
H1475  H     0.92148   0.83974   0.65253   0.00000  Uiso   1.00
H1476  H     0.87455   0.86625   0.64216   0.00000  Uiso   1.00
loop_
_geom_bond_atom_site_label_1
_geom_bond_atom_site_label_2
_geom_bond_distance
_geom_bond_site_symmetry_2
_ccdc_geom_bond_type
C1     C12     1.454   .     S
C1     O51     1.306   .     A
C1     O217    1.301   1_455 S
C2     C11     1.454   .     S
C2     O52     1.306   .     A
C2     O136    1.301   .     S
C3     H43     1.073   .     S
C3     C32     1.414   .     A
C3     C5      1.388   .     A
C4     C6      1.387   .     A
C4     H44     1.071   .     S
C4     C31     1.412   .     A
C5     H35     1.081   .     S
C5     C767    1.390   1_554 S
C6     H36     1.084   .     S
C6     C768    1.391   .     S
C7     O59     1.380   .     S
C7     C501    1.385   1_545 S
C7     C94     1.413   .     S
C8     O61     1.380   .     S
C8     C256    1.386   .     S
C8     C175    1.414   1_455 S
C9     H45     1.076   .     S
C9     C11     1.398   .     A
C9     C253    1.385   .     S
C10    H46     1.077   .     S
C10    C12     1.399   .     A
C10    C500    1.386   1_545 S
C11    C90     1.414   .     S
C12    C171    1.413   1_455 S
C13    H47     1.081   .     S
C13    N50     1.343   .     A
C13    C15     1.420   .     A
C14    N49     1.342   .     A
C14    C16     1.419   .     A
C14    H48     1.081   .     S
C15    N49     1.409   .     A
C15    C63     1.522   .     S
C16    N50     1.409   .     A
C16    C73     1.521   .     S
C17    C19     1.476   .     S
C17    O57     1.303   .     A
C17    O137    1.315   .     S
C18    O58     1.304   .     A
C18    C20     1.479   .     S
C18    O220    1.316   1_455 S
C19    C23     1.399   .     A
C19    C25     1.404   .     A
C20    C24     1.399   .     A
C20    C26     1.405   .     A
C21    C29     1.404   .     A
C21    H41     1.084   .     S
C21    C23     1.393   .     A
C22    C24     1.392   .     A
C22    C30     1.403   .     A
C22    H42     1.084   .     S
C23    H122    1.079   .     S
C24    H203    1.078   1_455 S
C25    H38     1.076   .     S
C25    C27     1.410   .     A
C26    H37     1.074   .     S
C26    C28     1.411   .     A
C27    C29     1.416   .     A
C27    C31     1.430   .     A
C28    C32     1.432   .     A
C28    C30     1.418   .     A
C29    C743    1.390   .     S
C30    C744    1.391   1_554 S
C31    C770    1.426   .     S
C32    C769    1.426   1_554 S
Cu33   O55     1.945   .     S
Cu33   O58     1.922   .     S
Cu33   N49     2.042   .     S
Cu33   O51     1.969   .     S
Cu33   O54     1.958   .     S
Cu33   Cu198   2.718   1_455 S
Cu34   O56     1.945   .     S
Cu34   O57     1.922   .     S
Cu34   N50     2.042   .     S
Cu34   O52     1.969   .     S
Cu34   O53     1.958   .     S
Cu34   Cu115   2.718   .     S
H39    C106    1.078   .     S
H40    C187    1.079   1_455 S
O53    C83     1.301   .     S
O54    C166    1.301   1_455 S
O55    C181    1.315   1_455 S
O56    C100    1.316   .     S
O59    H60     0.990   .     S
O61    H62     0.990   .     S
C63    H71     1.107   .     S
C63    C64     1.531   .     S
C63    H72     1.093   .     S
C64    H70     1.097   .     S
C64    H69     1.111   .     S
C64    C65     1.528   .     S
C65    H67     1.111   .     S
C65    H68     1.111   .     S
C65    H66     1.111   .     S
C73    C74     1.531   .     S
C73    H81     1.090   .     S
C73    H82     1.109   .     S
C74    H80     1.097   .     S
C74    C75     1.526   .     S
C74    H79     1.112   .     S
C75    H77     1.111   .     S
C75    H76     1.111   .     S
C75    H78     1.111   .     S
C83    C94     1.454   .     S
C83    O133    1.306   .     A
C84    C93     1.454   .     S
C84    O134    1.306   .     A
C84    O218    1.301   .     S
C85    H125    1.073   .     S
C85    C114    1.414   .     A
C85    C87     1.388   .     A
C86    C88     1.387   .     A
C86    H126    1.071   .     S
C86    C113    1.412   .     A
C87    H117    1.081   .     S
C87    C849    1.390   1_554 S
C88    H118    1.084   .     S
C88    C850    1.391   .     S
C89    O141    1.380   .     S
C89    C583    1.385   1_545 S
C89    C176    1.413   .     S
C90    O143    1.380   .     S
C90    C338    1.386   .     S
C91    H127    1.076   .     S
C91    C93     1.398   .     A
C91    C335    1.385   .     S
C92    H128    1.077   .     S
C92    C94     1.399   .     A
C92    C582    1.386   1_545 S
C93    C172    1.414   .     S
C95    H129    1.081   .     S
C95    N132    1.343   .     A
C95    C97     1.420   .     A
C96    N131    1.342   .     A
C96    C98     1.419   .     A
C96    H130    1.081   .     S
C97    N131    1.409   .     A
C97    C145    1.522   .     S
C98    N132    1.409   .     A
C98    C155    1.521   .     S
C99    C101    1.476   .     S
C99    O139    1.303   .     A
C99    O219    1.315   .     S
C100   O140    1.304   .     A
C100   C102    1.479   .     S
C101   C105    1.399   .     A
C101   C107    1.404   .     A
C102   C106    1.399   .     A
C102   C108    1.405   .     A
C103   C111    1.404   .     A
C103   H123    1.084   .     S
C103   C105    1.393   .     A
C104   C106    1.392   .     A
C104   C112    1.403   .     A
C104   H124    1.084   .     S
C105   H204    1.079   .     S
C107   H120    1.076   .     S
C107   C109    1.410   .     A
C108   H119    1.074   .     S
C108   C110    1.411   .     A
C109   C111    1.416   .     A
C109   C113    1.430   .     A
C110   C114    1.432   .     A
C110   C112    1.418   .     A
C111   C825    1.390   .     S
C112   C826    1.391   1_554 S
C113   C852    1.426   .     S
C114   C851    1.426   1_554 S
Cu115  O137    1.945   .     S
Cu115  O140    1.922   .     S
Cu115  N131    2.042   .     S
Cu115  O133    1.969   .     S
Cu115  O136    1.958   .     S
Cu116  O138    1.945   .     S
Cu116  O139    1.922   .     S
Cu116  N132    2.042   .     S
Cu116  O134    1.969   .     S
Cu116  O135    1.958   .     S
Cu116  Cu197   2.718   .     S
H121   C188    1.078   .     S
O135   C165    1.301   .     S
O138   C182    1.316   .     S
O141   H142    0.990   .     S
O143   H144    0.990   .     S
C145   H153    1.107   .     S
C145   C146    1.531   .     S
C145   H154    1.093   .     S
C146   H152    1.097   .     S
C146   H151    1.111   .     S
C146   C147    1.528   .     S
C147   H149    1.111   .     S
C147   H150    1.111   .     S
C147   H148    1.111   .     S
C155   C156    1.531   .     S
C155   H163    1.090   .     S
C155   H164    1.109   .     S
C156   H162    1.097   .     S
C156   C157    1.526   .     S
C156   H161    1.112   .     S
C157   H159    1.111   .     S
C157   H158    1.111   .     S
C157   H160    1.111   .     S
C165   C176    1.454   .     S
C165   O215    1.306   .     A
C166   C175    1.454   .     S
C166   O216    1.306   .     A
C166   O54     1.301   1_655 S
C167   H207    1.073   .     S
C167   C196    1.414   .     A
C167   C169    1.388   .     A
C168   C170    1.387   .     A
C168   H208    1.071   .     S
C168   C195    1.412   .     A
C169   H199    1.081   .     S
C169   C931    1.390   1_554 S
C170   H200    1.084   .     S
C170   C932    1.391   .     S
C171   O223    1.380   .     S
C171   C665    1.385   1_545 S
C171   C12     1.413   1_655 S
C172   O225    1.380   .     S
C172   C420    1.386   .     S
C173   H209    1.076   .     S
C173   C175    1.398   .     A
C173   C417    1.385   .     S
C174   H210    1.077   .     S
C174   C176    1.399   .     A
C174   C664    1.386   1_545 S
C175   C8      1.414   1_655 S
C177   H211    1.081   .     S
C177   N214    1.343   .     A
C177   C179    1.420   .     A
C178   N213    1.342   .     A
C178   C180    1.419   .     A
C178   H212    1.081   .     S
C179   N213    1.409   .     A
C179   C227    1.522   .     S
C180   N214    1.409   .     A
C180   C237    1.521   .     S
C181   C183    1.476   .     S
C181   O221    1.303   .     A
C181   O55     1.315   1_655 S
C182   O222    1.304   .     A
C182   C184    1.479   .     S
C183   C187    1.399   .     A
C183   C189    1.404   .     A
C184   C188    1.399   .     A
C184   C190    1.405   .     A
C185   C193    1.404   .     A
C185   H205    1.084   .     S
C185   C187    1.393   .     A
C186   C188    1.392   .     A
C186   C194    1.403   .     A
C186   H206    1.084   .     S
C187   H40     1.079   1_655 S
C189   H202    1.076   .     S
C189   C191    1.410   .     A
C190   H201    1.074   .     S
C190   C192    1.411   .     A
C191   C193    1.416   .     A
C191   C195    1.430   .     A
C192   C196    1.432   .     A
C192   C194    1.418   .     A
C193   C907    1.390   .     S
C194   C908    1.391   1_554 S
C195   C934    1.426   .     S
C196   C933    1.426   1_554 S
Cu197  O219    1.945   .     S
Cu197  O222    1.922   .     S
Cu197  N213    2.042   .     S
Cu197  O215    1.969   .     S
Cu197  O218    1.958   .     S
Cu198  O220    1.945   .     S
Cu198  O221    1.922   .     S
Cu198  N214    2.042   .     S
Cu198  O216    1.969   .     S
Cu198  O217    1.958   .     S
Cu198  Cu33    2.718   1_655 S
H203   C24     1.078   1_655 S
O217   C1      1.301   1_655 S
O220   C18     1.316   1_655 S
O223   H224    0.990   .     S
O225   H226    0.990   .     S
C227   H235    1.107   .     S
C227   C228    1.531   .     S
C227   H236    1.093   .     S
C228   H234    1.097   .     S
C228   H233    1.111   .     S
C228   C229    1.528   .     S
C229   H231    1.111   .     S
C229   H232    1.111   .     S
C229   H230    1.111   .     S
C237   C238    1.531   .     S
C237   H245    1.090   .     S
C237   H246    1.109   .     S
C238   H244    1.097   .     S
C238   C239    1.526   .     S
C238   H243    1.112   .     S
C239   H241    1.111   .     S
C239   H240    1.111   .     S
C239   H242    1.111   .     S
C247   C258    1.454   .     S
C247   O297    1.306   .     A
C247   O463    1.301   1_455 S
C248   C257    1.454   .     S
C248   O298    1.306   .     A
C248   O382    1.301   .     S
C249   H289    1.073   .     S
C249   C278    1.414   .     A
C249   C251    1.388   .     A
C250   C252    1.387   .     A
C250   H290    1.071   .     S
C250   C277    1.412   .     A
C251   H281    1.081   .     S
C251   C1013   1.390   1_554 S
C252   H282    1.084   .     S
C252   C1014   1.391   .     S
C253   O305    1.380   .     S
C253   C340    1.413   .     S
C254   O307    1.380   .     S
C254   C502    1.386   .     S
C254   C421    1.414   1_455 S
C255   H291    1.076   .     S
C255   C257    1.398   .     A
C255   C499    1.385   .     S
C256   H292    1.077   .     S
C256   C258    1.399   .     A
C257   C336    1.414   .     S
C258   C417    1.413   1_455 S
C259   H293    1.081   .     S
C259   N296    1.343   .     A
C259   C261    1.420   .     A
C260   N295    1.342   .     A
C260   C262    1.419   .     A
C260   H294    1.081   .     S
C261   N295    1.409   .     A
C261   C309    1.522   .     S
C262   N296    1.409   .     A
C262   C319    1.521   .     S
C263   C265    1.476   .     S
C263   O303    1.303   .     A
C263   O383    1.315   .     S
C264   O304    1.304   .     A
C264   C266    1.479   .     S
C264   O466    1.316   1_455 S
C265   C269    1.399   .     A
C265   C271    1.404   .     A
C266   C270    1.399   .     A
C266   C272    1.405   .     A
C267   C275    1.404   .     A
C267   H287    1.084   .     S
C267   C269    1.393   .     A
C268   C270    1.392   .     A
C268   C276    1.403   .     A
C268   H288    1.084   .     S
C269   H368    1.079   .     S
C270   H449    1.078   1_455 S
C271   H284    1.076   .     S
C271   C273    1.410   .     A
C272   H283    1.074   .     S
C272   C274    1.411   .     A
C273   C275    1.416   .     A
C273   C277    1.430   .     A
C274   C278    1.432   .     A
C274   C276    1.418   .     A
C275   C989    1.390   .     S
C276   C990    1.391   1_554 S
C277   C1016   1.426   .     S
C278   C1015   1.426   1_554 S
Cu279  O301    1.945   .     S
Cu279  O304    1.922   .     S
Cu279  N295    2.042   .     S
Cu279  O297    1.969   .     S
Cu279  O300    1.958   .     S
Cu279  Cu444   2.718   1_455 S
Cu280  O302    1.945   .     S
Cu280  O303    1.922   .     S
Cu280  N296    2.042   .     S
Cu280  O298    1.969   .     S
Cu280  O299    1.958   .     S
Cu280  Cu361   2.718   .     S
H285   C352    1.078   .     S
H286   C433    1.079   1_455 S
O299   C329    1.301   .     S
O300   C412    1.301   1_455 S
O301   C427    1.315   1_455 S
O302   C346    1.316   .     S
O305   H306    0.990   .     S
O307   H308    0.990   .     S
C309   H317    1.107   .     S
C309   C310    1.531   .     S
C309   H318    1.093   .     S
C310   H316    1.097   .     S
C310   H315    1.111   .     S
C310   C311    1.528   .     S
C311   H313    1.111   .     S
C311   H314    1.111   .     S
C311   H312    1.111   .     S
C319   C320    1.531   .     S
C319   H327    1.090   .     S
C319   H328    1.109   .     S
C320   H326    1.097   .     S
C320   C321    1.526   .     S
C320   H325    1.112   .     S
C321   H323    1.111   .     S
C321   H322    1.111   .     S
C321   H324    1.111   .     S
C329   C340    1.454   .     S
C329   O379    1.306   .     A
C330   C339    1.454   .     S
C330   O380    1.306   .     A
C330   O464    1.301   .     S
C331   H371    1.073   .     S
C331   C360    1.414   .     A
C331   C333    1.388   .     A
C332   C334    1.387   .     A
C332   H372    1.071   .     S
C332   C359    1.412   .     A
C333   H363    1.081   .     S
C333   C1095   1.390   1_554 S
C334   H364    1.084   .     S
C334   C1096   1.391   .     S
C335   O387    1.380   .     S
C335   C422    1.413   .     S
C336   O389    1.380   .     S
C336   C584    1.386   .     S
C337   H373    1.076   .     S
C337   C339    1.398   .     A
C337   C581    1.385   .     S
C338   H374    1.077   .     S
C338   C340    1.399   .     A
C339   C418    1.414   .     S
C341   H375    1.081   .     S
C341   N378    1.343   .     A
C341   C343    1.420   .     A
C342   N377    1.342   .     A
C342   C344    1.419   .     A
C342   H376    1.081   .     S
C343   N377    1.409   .     A
C343   C391    1.522   .     S
C344   N378    1.409   .     A
C344   C401    1.521   .     S
C345   C347    1.476   .     S
C345   O385    1.303   .     A
C345   O465    1.315   .     S
C346   O386    1.304   .     A
C346   C348    1.479   .     S
C347   C351    1.399   .     A
C347   C353    1.404   .     A
C348   C352    1.399   .     A
C348   C354    1.405   .     A
C349   C357    1.404   .     A
C349   H369    1.084   .     S
C349   C351    1.393   .     A
C350   C352    1.392   .     A
C350   C358    1.403   .     A
C350   H370    1.084   .     S
C351   H450    1.079   .     S
C353   H366    1.076   .     S
C353   C355    1.410   .     A
C354   H365    1.074   .     S
C354   C356    1.411   .     A
C355   C357    1.416   .     A
C355   C359    1.430   .     A
C356   C360    1.432   .     A
C356   C358    1.418   .     A
C357   C1071   1.390   .     S
C358   C1072   1.391   1_554 S
C359   C1098   1.426   .     S
C360   C1097   1.426   1_554 S
Cu361  O383    1.945   .     S
Cu361  O386    1.922   .     S
Cu361  N377    2.042   .     S
Cu361  O379    1.969   .     S
Cu361  O382    1.958   .     S
Cu362  O384    1.945   .     S
Cu362  O385    1.922   .     S
Cu362  N378    2.042   .     S
Cu362  O380    1.969   .     S
Cu362  O381    1.958   .     S
Cu362  Cu443   2.718   .     S
H367   C434    1.078   .     S
O381   C411    1.301   .     S
O384   C428    1.316   .     S
O387   H388    0.990   .     S
O389   H390    0.990   .     S
C391   H399    1.107   .     S
C391   C392    1.531   .     S
C391   H400    1.093   .     S
C392   H398    1.097   .     S
C392   H397    1.111   .     S
C392   C393    1.528   .     S
C393   H395    1.111   .     S
C393   H396    1.111   .     S
C393   H394    1.111   .     S
C401   C402    1.531   .     S
C401   H409    1.090   .     S
C401   H410    1.109   .     S
C402   H408    1.097   .     S
C402   C403    1.526   .     S
C402   H407    1.112   .     S
C403   H405    1.111   .     S
C403   H404    1.111   .     S
C403   H406    1.111   .     S
C411   C422    1.454   .     S
C411   O461    1.306   .     A
C412   C421    1.454   .     S
C412   O462    1.306   .     A
C412   O300    1.301   1_655 S
C413   H453    1.073   .     S
C413   C442    1.414   .     A
C413   C415    1.388   .     A
C414   C416    1.387   .     A
C414   H454    1.071   .     S
C414   C441    1.412   .     A
C415   H445    1.081   .     S
C415   C1177   1.390   1_554 S
C416   H446    1.084   .     S
C416   C1178   1.391   .     S
C417   O469    1.380   .     S
C417   C258    1.413   1_655 S
C418   O471    1.380   .     S
C418   C666    1.386   .     S
C419   H455    1.076   .     S
C419   C421    1.398   .     A
C419   C663    1.385   .     S
C420   H456    1.077   .     S
C420   C422    1.399   .     A
C421   C254    1.414   1_655 S
C423   H457    1.081   .     S
C423   N460    1.343   .     A
C423   C425    1.420   .     A
C424   N459    1.342   .     A
C424   C426    1.419   .     A
C424   H458    1.081   .     S
C425   N459    1.409   .     A
C425   C473    1.522   .     S
C426   N460    1.409   .     A
C426   C483    1.521   .     S
C427   C429    1.476   .     S
C427   O467    1.303   .     A
C427   O301    1.315   1_655 S
C428   O468    1.304   .     A
C428   C430    1.479   .     S
C429   C433    1.399   .     A
C429   C435    1.404   .     A
C430   C434    1.399   .     A
C430   C436    1.405   .     A
C431   C439    1.404   .     A
C431   H451    1.084   .     S
C431   C433    1.393   .     A
C432   C434    1.392   .     A
C432   C440    1.403   .     A
C432   H452    1.084   .     S
C433   H286    1.079   1_655 S
C435   H448    1.076   .     S
C435   C437    1.410   .     A
C436   H447    1.074   .     S
C436   C438    1.411   .     A
C437   C439    1.416   .     A
C437   C441    1.430   .     A
C438   C442    1.432   .     A
C438   C440    1.418   .     A
C439   C1153   1.390   .     S
C440   C1154   1.391   1_554 S
C441   C1180   1.426   .     S
C442   C1179   1.426   1_554 S
Cu443  O465    1.945   .     S
Cu443  O468    1.922   .     S
Cu443  N459    2.042   .     S
Cu443  O461    1.969   .     S
Cu443  O464    1.958   .     S
Cu444  O466    1.945   .     S
Cu444  O467    1.922   .     S
Cu444  N460    2.042   .     S
Cu444  O462    1.969   .     S
Cu444  O463    1.958   .     S
Cu444  Cu279   2.718   1_655 S
H449   C270    1.078   1_655 S
O463   C247    1.301   1_655 S
O466   C264    1.316   1_655 S
O469   H470    0.990   .     S
O471   H472    0.990   .     S
C473   H481    1.107   .     S
C473   C474    1.531   .     S
C473   H482    1.093   .     S
C474   H480    1.097   .     S
C474   H479    1.111   .     S
C474   C475    1.528   .     S
C475   H477    1.111   .     S
C475   H478    1.111   .     S
C475   H476    1.111   .     S
C483   C484    1.531   .     S
C483   H491    1.090   .     S
C483   H492    1.109   .     S
C484   H490    1.097   .     S
C484   C485    1.526   .     S
C484   H489    1.112   .     S
C485   H487    1.111   .     S
C485   H486    1.111   .     S
C485   H488    1.111   .     S
C493   C504    1.454   .     S
C493   O543    1.306   .     A
C493   O709    1.301   1_455 S
C494   C503    1.454   .     S
C494   O544    1.306   .     A
C494   O628    1.301   .     S
C495   H535    1.073   .     S
C495   C524    1.414   .     A
C495   C497    1.388   .     A
C496   C498    1.387   .     A
C496   H536    1.071   .     S
C496   C523    1.412   .     A
C497   H527    1.081   .     S
C497   C1259   1.390   1_554 S
C498   H528    1.084   .     S
C498   C1260   1.391   .     S
C499   O551    1.380   .     S
C499   C586    1.413   .     S
C500   O553    1.380   .     S
C500   C10     1.386   1_565 S
C500   C667    1.414   1_455 S
C501   H537    1.076   .     S
C501   C503    1.398   .     A
C501   C7      1.385   1_565 S
C502   H538    1.077   .     S
C502   C504    1.399   .     A
C503   C582    1.414   .     S
C504   C663    1.413   1_455 S
C505   H539    1.081   .     S
C505   N542    1.343   .     A
C505   C507    1.420   .     A
C506   N541    1.342   .     A
C506   C508    1.419   .     A
C506   H540    1.081   .     S
C507   N541    1.409   .     A
C507   C555    1.522   .     S
C508   N542    1.409   .     A
C508   C565    1.521   .     S
C509   C511    1.476   .     S
C509   O549    1.303   .     A
C509   O629    1.315   .     S
C510   O550    1.304   .     A
C510   C512    1.479   .     S
C510   O712    1.316   1_455 S
C511   C515    1.399   .     A
C511   C517    1.404   .     A
C512   C516    1.399   .     A
C512   C518    1.405   .     A
C513   C521    1.404   .     A
C513   H533    1.084   .     S
C513   C515    1.393   .     A
C514   C516    1.392   .     A
C514   C522    1.403   .     A
C514   H534    1.084   .     S
C515   H614    1.079   .     S
C516   H695    1.078   1_455 S
C517   H530    1.076   .     S
C517   C519    1.410   .     A
C518   H529    1.074   .     S
C518   C520    1.411   .     A
C519   C521    1.416   .     A
C519   C523    1.430   .     A
C520   C524    1.432   .     A
C520   C522    1.418   .     A
C521   C1235   1.390   .     S
C522   C1236   1.391   1_554 S
C523   C1262   1.426   .     S
C524   C1261   1.426   1_554 S
Cu525  O547    1.945   .     S
Cu525  O550    1.922   .     S
Cu525  N541    2.042   .     S
Cu525  O543    1.969   .     S
Cu525  O546    1.958   .     S
Cu525  Cu690   2.718   1_455 S
Cu526  O548    1.945   .     S
Cu526  O549    1.922   .     S
Cu526  N542    2.042   .     S
Cu526  O544    1.969   .     S
Cu526  O545    1.958   .     S
Cu526  Cu607   2.718   .     S
H531   C598    1.078   .     S
H532   C679    1.079   1_455 S
O545   C575    1.301   .     S
O546   C658    1.301   1_455 S
O547   C673    1.315   1_455 S
O548   C592    1.316   .     S
O551   H552    0.990   .     S
O553   H554    0.990   .     S
C555   H563    1.107   .     S
C555   C556    1.531   .     S
C555   H564    1.093   .     S
C556   H562    1.097   .     S
C556   H561    1.111   .     S
C556   C557    1.528   .     S
C557   H559    1.111   .     S
C557   H560    1.111   .     S
C557   H558    1.111   .     S
C565   C566    1.531   .     S
C565   H573    1.090   .     S
C565   H574    1.109   .     S
C566   H572    1.097   .     S
C566   C567    1.526   .     S
C566   H571    1.112   .     S
C567   H569    1.111   .     S
C567   H568    1.111   .     S
C567   H570    1.111   .     S
C575   C586    1.454   .     S
C575   O625    1.306   .     A
C576   C585    1.454   .     S
C576   O626    1.306   .     A
C576   O710    1.301   .     S
C577   H617    1.073   .     S
C577   C606    1.414   .     A
C577   C579    1.388   .     A
C578   C580    1.387   .     A
C578   H618    1.071   .     S
C578   C605    1.412   .     A
C579   H609    1.081   .     S
C579   C1341   1.390   1_554 S
C580   H610    1.084   .     S
C580   C1342   1.391   .     S
C581   O633    1.380   .     S
C581   C668    1.413   .     S
C582   O635    1.380   .     S
C582   C92     1.386   1_565 S
C583   H619    1.076   .     S
C583   C585    1.398   .     A
C583   C89     1.385   1_565 S
C584   H620    1.077   .     S
C584   C586    1.399   .     A
C585   C664    1.414   .     S
C587   H621    1.081   .     S
C587   N624    1.343   .     A
C587   C589    1.420   .     A
C588   N623    1.342   .     A
C588   C590    1.419   .     A
C588   H622    1.081   .     S
C589   N623    1.409   .     A
C589   C637    1.522   .     S
C590   N624    1.409   .     A
C590   C647    1.521   .     S
C591   C593    1.476   .     S
C591   O631    1.303   .     A
C591   O711    1.315   .     S
C592   O632    1.304   .     A
C592   C594    1.479   .     S
C593   C597    1.399   .     A
C593   C599    1.404   .     A
C594   C598    1.399   .     A
C594   C600    1.405   .     A
C595   C603    1.404   .     A
C595   H615    1.084   .     S
C595   C597    1.393   .     A
C596   C598    1.392   .     A
C596   C604    1.403   .     A
C596   H616    1.084   .     S
C597   H696    1.079   .     S
C599   H612    1.076   .     S
C599   C601    1.410   .     A
C600   H611    1.074   .     S
C600   C602    1.411   .     A
C601   C603    1.416   .     A
C601   C605    1.430   .     A
C602   C606    1.432   .     A
C602   C604    1.418   .     A
C603   C1317   1.390   .     S
C604   C1318   1.391   1_554 S
C605   C1344   1.426   .     S
C606   C1343   1.426   1_554 S
Cu607  O629    1.945   .     S
Cu607  O632    1.922   .     S
Cu607  N623    2.042   .     S
Cu607  O625    1.969   .     S
Cu607  O628    1.958   .     S
Cu608  O630    1.945   .     S
Cu608  O631    1.922   .     S
Cu608  N624    2.042   .     S
Cu608  O626    1.969   .     S
Cu608  O627    1.958   .     S
Cu608  Cu689   2.718   .     S
H613   C680    1.078   .     S
O627   C657    1.301   .     S
O630   C674    1.316   .     S
O633   H634    0.990   .     S
O635   H636    0.990   .     S
C637   H645    1.107   .     S
C637   C638    1.531   .     S
C637   H646    1.093   .     S
C638   H644    1.097   .     S
C638   H643    1.111   .     S
C638   C639    1.528   .     S
C639   H641    1.111   .     S
C639   H642    1.111   .     S
C639   H640    1.111   .     S
C647   C648    1.531   .     S
C647   H655    1.090   .     S
C647   H656    1.109   .     S
C648   H654    1.097   .     S
C648   C649    1.526   .     S
C648   H653    1.112   .     S
C649   H651    1.111   .     S
C649   H650    1.111   .     S
C649   H652    1.111   .     S
C657   C668    1.454   .     S
C657   O707    1.306   .     A
C658   C667    1.454   .     S
C658   O708    1.306   .     A
C658   O546    1.301   1_655 S
C659   H699    1.073   .     S
C659   C688    1.414   .     A
C659   C661    1.388   .     A
C660   C662    1.387   .     A
C660   H700    1.071   .     S
C660   C687    1.412   .     A
C661   H691    1.081   .     S
C661   C1423   1.390   1_554 S
C662   H692    1.084   .     S
C662   C1424   1.391   .     S
C663   O715    1.380   .     S
C663   C504    1.413   1_655 S
C664   O717    1.380   .     S
C664   C174    1.386   1_565 S
C665   H701    1.076   .     S
C665   C667    1.398   .     A
C665   C171    1.385   1_565 S
C666   H702    1.077   .     S
C666   C668    1.399   .     A
C667   C500    1.414   1_655 S
C669   H703    1.081   .     S
C669   N706    1.343   .     A
C669   C671    1.420   .     A
C670   N705    1.342   .     A
C670   C672    1.419   .     A
C670   H704    1.081   .     S
C671   N705    1.409   .     A
C671   C719    1.522   .     S
C672   N706    1.409   .     A
C672   C729    1.521   .     S
C673   C675    1.476   .     S
C673   O713    1.303   .     A
C673   O547    1.315   1_655 S
C674   O714    1.304   .     A
C674   C676    1.479   .     S
C675   C679    1.399   .     A
C675   C681    1.404   .     A
C676   C680    1.399   .     A
C676   C682    1.405   .     A
C677   C685    1.404   .     A
C677   H697    1.084   .     S
C677   C679    1.393   .     A
C678   C680    1.392   .     A
C678   C686    1.403   .     A
C678   H698    1.084   .     S
C679   H532    1.079   1_655 S
C681   H694    1.076   .     S
C681   C683    1.410   .     A
C682   H693    1.074   .     S
C682   C684    1.411   .     A
C683   C685    1.416   .     A
C683   C687    1.430   .     A
C684   C688    1.432   .     A
C684   C686    1.418   .     A
C685   C1399   1.390   .     S
C686   C1400   1.391   1_554 S
C687   C1426   1.426   .     S
C688   C1425   1.426   1_554 S
Cu689  O711    1.945   .     S
Cu689  O714    1.922   .     S
Cu689  N705    2.042   .     S
Cu689  O707    1.969   .     S
Cu689  O710    1.958   .     S
Cu690  O712    1.945   .     S
Cu690  O713    1.922   .     S
Cu690  N706    2.042   .     S
Cu690  O708    1.969   .     S
Cu690  O709    1.958   .     S
Cu690  Cu525   2.718   1_655 S
H695   C516    1.078   1_655 S
O709   C493    1.301   1_655 S
O712   C510    1.316   1_655 S
O715   H716    0.990   .     S
O717   H718    0.990   .     S
C719   H727    1.107   .     S
C719   C720    1.531   .     S
C719   H728    1.093   .     S
C720   H726    1.097   .     S
C720   H725    1.111   .     S
C720   C721    1.528   .     S
C721   H723    1.111   .     S
C721   H724    1.111   .     S
C721   H722    1.111   .     S
C729   C730    1.531   .     S
C729   H737    1.090   .     S
C729   H738    1.109   .     S
C730   H736    1.097   .     S
C730   C731    1.526   .     S
C730   H735    1.112   .     S
C731   H733    1.111   .     S
C731   H732    1.111   .     S
C731   H734    1.111   .     S
C739   C750    1.454   .     S
C739   O789    1.306   .     A
C739   O955    1.301   1_455 S
C740   C749    1.454   .     S
C740   O790    1.306   .     A
C740   O874    1.301   .     S
C741   H781    1.073   .     S
C741   C770    1.414   .     A
C741   C743    1.388   .     A
C742   C744    1.387   .     A
C742   H782    1.071   .     S
C742   C769    1.412   .     A
C743   H773    1.081   .     S
C744   H774    1.084   .     S
C744   C30     1.391   1_556 S
C745   O797    1.380   .     S
C745   C1239   1.385   1_545 S
C745   C832    1.413   .     S
C746   O799    1.380   .     S
C746   C994    1.386   .     S
C746   C913    1.414   1_455 S
C747   H783    1.076   .     S
C747   C749    1.398   .     A
C747   C991    1.385   .     S
C748   H784    1.077   .     S
C748   C750    1.399   .     A
C748   C1238   1.386   1_545 S
C749   C828    1.414   .     S
C750   C909    1.413   1_455 S
C751   H785    1.081   .     S
C751   N788    1.343   .     A
C751   C753    1.420   .     A
C752   N787    1.342   .     A
C752   C754    1.419   .     A
C752   H786    1.081   .     S
C753   N787    1.409   .     A
C753   C801    1.522   .     S
C754   N788    1.409   .     A
C754   C811    1.521   .     S
C755   C757    1.476   .     S
C755   O795    1.303   .     A
C755   O875    1.315   .     S
C756   O796    1.304   .     A
C756   C758    1.479   .     S
C756   O958    1.316   1_455 S
C757   C761    1.399   .     A
C757   C763    1.404   .     A
C758   C762    1.399   .     A
C758   C764    1.405   .     A
C759   C767    1.404   .     A
C759   H779    1.084   .     S
C759   C761    1.393   .     A
C760   C762    1.392   .     A
C760   C768    1.403   .     A
C760   H780    1.084   .     S
C761   H860    1.079   .     S
C762   H941    1.078   1_455 S
C763   H776    1.076   .     S
C763   C765    1.410   .     A
C764   H775    1.074   .     S
C764   C766    1.411   .     A
C765   C767    1.416   .     A
C765   C769    1.430   .     A
C766   C770    1.432   .     A
C766   C768    1.418   .     A
C767   C5      1.390   1_556 S
C769   C32     1.426   1_556 S
Cu771  O793    1.945   .     S
Cu771  O796    1.922   .     S
Cu771  N787    2.042   .     S
Cu771  O789    1.969   .     S
Cu771  O792    1.958   .     S
Cu771  Cu936   2.718   1_455 S
Cu772  O794    1.945   .     S
Cu772  O795    1.922   .     S
Cu772  N788    2.042   .     S
Cu772  O790    1.969   .     S
Cu772  O791    1.958   .     S
Cu772  Cu853   2.718   .     S
H777   C844    1.078   .     S
H778   C925    1.079   1_455 S
O791   C821    1.301   .     S
O792   C904    1.301   1_455 S
O793   C919    1.315   1_455 S
O794   C838    1.316   .     S
O797   H798    0.990   .     S
O799   H800    0.990   .     S
C801   H809    1.107   .     S
C801   C802    1.531   .     S
C801   H810    1.093   .     S
C802   H808    1.097   .     S
C802   H807    1.111   .     S
C802   C803    1.528   .     S
C803   H805    1.111   .     S
C803   H806    1.111   .     S
C803   H804    1.111   .     S
C811   C812    1.531   .     S
C811   H819    1.090   .     S
C811   H820    1.109   .     S
C812   H818    1.097   .     S
C812   C813    1.526   .     S
C812   H817    1.112   .     S
C813   H815    1.111   .     S
C813   H814    1.111   .     S
C813   H816    1.111   .     S
C821   C832    1.454   .     S
C821   O871    1.306   .     A
C822   C831    1.454   .     S
C822   O872    1.306   .     A
C822   O956    1.301   .     S
C823   H863    1.073   .     S
C823   C852    1.414   .     A
C823   C825    1.388   .     A
C824   C826    1.387   .     A
C824   H864    1.071   .     S
C824   C851    1.412   .     A
C825   H855    1.081   .     S
C826   H856    1.084   .     S
C826   C112    1.391   1_556 S
C827   O879    1.380   .     S
C827   C1321   1.385   1_545 S
C827   C914    1.413   .     S
C828   O881    1.380   .     S
C828   C1076   1.386   .     S
C829   H865    1.076   .     S
C829   C831    1.398   .     A
C829   C1073   1.385   .     S
C830   H866    1.077   .     S
C830   C832    1.399   .     A
C830   C1320   1.386   1_545 S
C831   C910    1.414   .     S
C833   H867    1.081   .     S
C833   N870    1.343   .     A
C833   C835    1.420   .     A
C834   N869    1.342   .     A
C834   C836    1.419   .     A
C834   H868    1.081   .     S
C835   N869    1.409   .     A
C835   C883    1.522   .     S
C836   N870    1.409   .     A
C836   C893    1.521   .     S
C837   C839    1.476   .     S
C837   O877    1.303   .     A
C837   O957    1.315   .     S
C838   O878    1.304   .     A
C838   C840    1.479   .     S
C839   C843    1.399   .     A
C839   C845    1.404   .     A
C840   C844    1.399   .     A
C840   C846    1.405   .     A
C841   C849    1.404   .     A
C841   H861    1.084   .     S
C841   C843    1.393   .     A
C842   C844    1.392   .     A
C842   C850    1.403   .     A
C842   H862    1.084   .     S
C843   H942    1.079   .     S
C845   H858    1.076   .     S
C845   C847    1.410   .     A
C846   H857    1.074   .     S
C846   C848    1.411   .     A
C847   C849    1.416   .     A
C847   C851    1.430   .     A
C848   C852    1.432   .     A
C848   C850    1.418   .     A
C849   C87     1.390   1_556 S
C851   C114    1.426   1_556 S
Cu853  O875    1.945   .     S
Cu853  O878    1.922   .     S
Cu853  N869    2.042   .     S
Cu853  O871    1.969   .     S
Cu853  O874    1.958   .     S
Cu854  O876    1.945   .     S
Cu854  O877    1.922   .     S
Cu854  N870    2.042   .     S
Cu854  O872    1.969   .     S
Cu854  O873    1.958   .     S
Cu854  Cu935   2.718   .     S
H859   C926    1.078   .     S
O873   C903    1.301   .     S
O876   C920    1.316   .     S
O879   H880    0.990   .     S
O881   H882    0.990   .     S
C883   H891    1.107   .     S
C883   C884    1.531   .     S
C883   H892    1.093   .     S
C884   H890    1.097   .     S
C884   H889    1.111   .     S
C884   C885    1.528   .     S
C885   H887    1.111   .     S
C885   H888    1.111   .     S
C885   H886    1.111   .     S
C893   C894    1.531   .     S
C893   H901    1.090   .     S
C893   H902    1.109   .     S
C894   H900    1.097   .     S
C894   C895    1.526   .     S
C894   H899    1.112   .     S
C895   H897    1.111   .     S
C895   H896    1.111   .     S
C895   H898    1.111   .     S
C903   C914    1.454   .     S
C903   O953    1.306   .     A
C904   C913    1.454   .     S
C904   O954    1.306   .     A
C904   O792    1.301   1_655 S
C905   H945    1.073   .     S
C905   C934    1.414   .     A
C905   C907    1.388   .     A
C906   C908    1.387   .     A
C906   H946    1.071   .     S
C906   C933    1.412   .     A
C907   H937    1.081   .     S
C908   H938    1.084   .     S
C908   C194    1.391   1_556 S
C909   O961    1.380   .     S
C909   C1403   1.385   1_545 S
C909   C750    1.413   1_655 S
C910   O963    1.380   .     S
C910   C1158   1.386   .     S
C911   H947    1.076   .     S
C911   C913    1.398   .     A
C911   C1155   1.385   .     S
C912   H948    1.077   .     S
C912   C914    1.399   .     A
C912   C1402   1.386   1_545 S
C913   C746    1.414   1_655 S
C915   H949    1.081   .     S
C915   N952    1.343   .     A
C915   C917    1.420   .     A
C916   N951    1.342   .     A
C916   C918    1.419   .     A
C916   H950    1.081   .     S
C917   N951    1.409   .     A
C917   C965    1.522   .     S
C918   N952    1.409   .     A
C918   C975    1.521   .     S
C919   C921    1.476   .     S
C919   O959    1.303   .     A
C919   O793    1.315   1_655 S
C920   O960    1.304   .     A
C920   C922    1.479   .     S
C921   C925    1.399   .     A
C921   C927    1.404   .     A
C922   C926    1.399   .     A
C922   C928    1.405   .     A
C923   C931    1.404   .     A
C923   H943    1.084   .     S
C923   C925    1.393   .     A
C924   C926    1.392   .     A
C924   C932    1.403   .     A
C924   H944    1.084   .     S
C925   H778    1.079   1_655 S
C927   H940    1.076   .     S
C927   C929    1.410   .     A
C928   H939    1.074   .     S
C928   C930    1.411   .     A
C929   C931    1.416   .     A
C929   C933    1.430   .     A
C930   C934    1.432   .     A
C930   C932    1.418   .     A
C931   C169    1.390   1_556 S
C933   C196    1.426   1_556 S
Cu935  O957    1.945   .     S
Cu935  O960    1.922   .     S
Cu935  N951    2.042   .     S
Cu935  O953    1.969   .     S
Cu935  O956    1.958   .     S
Cu936  O958    1.945   .     S
Cu936  O959    1.922   .     S
Cu936  N952    2.042   .     S
Cu936  O954    1.969   .     S
Cu936  O955    1.958   .     S
Cu936  Cu771   2.718   1_655 S
H941   C762    1.078   1_655 S
O955   C739    1.301   1_655 S
O958   C756    1.316   1_655 S
O961   H962    0.990   .     S
O963   H964    0.990   .     S
C965   H973    1.107   .     S
C965   C966    1.531   .     S
C965   H974    1.093   .     S
C966   H972    1.097   .     S
C966   H971    1.111   .     S
C966   C967    1.528   .     S
C967   H969    1.111   .     S
C967   H970    1.111   .     S
C967   H968    1.111   .     S
C975   C976    1.531   .     S
C975   H983    1.090   .     S
C975   H984    1.109   .     S
C976   H982    1.097   .     S
C976   C977    1.526   .     S
C976   H981    1.112   .     S
C977   H979    1.111   .     S
C977   H978    1.111   .     S
C977   H980    1.111   .     S
C985   C996    1.454   .     S
C985   O1035   1.306   .     A
C985   O1201   1.301   1_455 S
C986   C995    1.454   .     S
C986   O1036   1.306   .     A
C986   O1120   1.301   .     S
C987   H1027   1.073   .     S
C987   C1016   1.414   .     A
C987   C989    1.388   .     A
C988   C990    1.387   .     A
C988   H1028   1.071   .     S
C988   C1015   1.412   .     A
C989   H1019   1.081   .     S
C990   H1020   1.084   .     S
C990   C276    1.391   1_556 S
C991   O1043   1.380   .     S
C991   C1078   1.413   .     S
C992   O1045   1.380   .     S
C992   C1240   1.386   .     S
C992   C1159   1.414   1_455 S
C993   H1029   1.076   .     S
C993   C995    1.398   .     A
C993   C1237   1.385   .     S
C994   H1030   1.077   .     S
C994   C996    1.399   .     A
C995   C1074   1.414   .     S
C996   C1155   1.413   1_455 S
C997   H1031   1.081   .     S
C997   N1034   1.343   .     A
C997   C999    1.420   .     A
C998   N1033   1.342   .     A
C998   C1000   1.419   .     A
C998   H1032   1.081   .     S
C999   N1033   1.409   .     A
C999   C1047   1.522   .     S
C1000  N1034   1.409   .     A
C1000  C1057   1.521   .     S
C1001  C1003   1.476   .     S
C1001  O1041   1.303   .     A
C1001  O1121   1.315   .     S
C1002  O1042   1.304   .     A
C1002  C1004   1.479   .     S
C1002  O1204   1.316   1_455 S
C1003  C1007   1.399   .     A
C1003  C1009   1.404   .     A
C1004  C1008   1.399   .     A
C1004  C1010   1.405   .     A
C1005  C1013   1.404   .     A
C1005  H1025   1.084   .     S
C1005  C1007   1.393   .     A
C1006  C1008   1.392   .     A
C1006  C1014   1.403   .     A
C1006  H1026   1.084   .     S
C1007  H1106   1.079   .     S
C1008  H1187   1.078   1_455 S
C1009  H1022   1.076   .     S
C1009  C1011   1.410   .     A
C1010  H1021   1.074   .     S
C1010  C1012   1.411   .     A
C1011  C1013   1.416   .     A
C1011  C1015   1.430   .     A
C1012  C1016   1.432   .     A
C1012  C1014   1.418   .     A
C1013  C251    1.390   1_556 S
C1015  C278    1.426   1_556 S
Cu1017 O1039   1.945   .     S
Cu1017 O1042   1.922   .     S
Cu1017 N1033   2.042   .     S
Cu1017 O1035   1.969   .     S
Cu1017 O1038   1.958   .     S
Cu1017 Cu1182  2.718   1_455 S
Cu1018 O1040   1.945   .     S
Cu1018 O1041   1.922   .     S
Cu1018 N1034   2.042   .     S
Cu1018 O1036   1.969   .     S
Cu1018 O1037   1.958   .     S
Cu1018 Cu1099  2.718   .     S
H1023  C1090   1.078   .     S
H1024  C1171   1.079   1_455 S
O1037  C1067   1.301   .     S
O1038  C1150   1.301   1_455 S
O1039  C1165   1.315   1_455 S
O1040  C1084   1.316   .     S
O1043  H1044   0.990   .     S
O1045  H1046   0.990   .     S
C1047  H1055   1.107   .     S
C1047  C1048   1.531   .     S
C1047  H1056   1.093   .     S
C1048  H1054   1.097   .     S
C1048  H1053   1.111   .     S
C1048  C1049   1.528   .     S
C1049  H1051   1.111   .     S
C1049  H1052   1.111   .     S
C1049  H1050   1.111   .     S
C1057  C1058   1.531   .     S
C1057  H1065   1.090   .     S
C1057  H1066   1.109   .     S
C1058  H1064   1.097   .     S
C1058  C1059   1.526   .     S
C1058  H1063   1.112   .     S
C1059  H1061   1.111   .     S
C1059  H1060   1.111   .     S
C1059  H1062   1.111   .     S
C1067  C1078   1.454   .     S
C1067  O1117   1.306   .     A
C1068  C1077   1.454   .     S
C1068  O1118   1.306   .     A
C1068  O1202   1.301   .     S
C1069  H1109   1.073   .     S
C1069  C1098   1.414   .     A
C1069  C1071   1.388   .     A
C1070  C1072   1.387   .     A
C1070  H1110   1.071   .     S
C1070  C1097   1.412   .     A
C1071  H1101   1.081   .     S
C1072  H1102   1.084   .     S
C1072  C358    1.391   1_556 S
C1073  O1125   1.380   .     S
C1073  C1160   1.413   .     S
C1074  O1127   1.380   .     S
C1074  C1322   1.386   .     S
C1075  H1111   1.076   .     S
C1075  C1077   1.398   .     A
C1075  C1319   1.385   .     S
C1076  H1112   1.077   .     S
C1076  C1078   1.399   .     A
C1077  C1156   1.414   .     S
C1079  H1113   1.081   .     S
C1079  N1116   1.343   .     A
C1079  C1081   1.420   .     A
C1080  N1115   1.342   .     A
C1080  C1082   1.419   .     A
C1080  H1114   1.081   .     S
C1081  N1115   1.409   .     A
C1081  C1129   1.522   .     S
C1082  N1116   1.409   .     A
C1082  C1139   1.521   .     S
C1083  C1085   1.476   .     S
C1083  O1123   1.303   .     A
C1083  O1203   1.315   .     S
C1084  O1124   1.304   .     A
C1084  C1086   1.479   .     S
C1085  C1089   1.399   .     A
C1085  C1091   1.404   .     A
C1086  C1090   1.399   .     A
C1086  C1092   1.405   .     A
C1087  C1095   1.404   .     A
C1087  H1107   1.084   .     S
C1087  C1089   1.393   .     A
C1088  C1090   1.392   .     A
C1088  C1096   1.403   .     A
C1088  H1108   1.084   .     S
C1089  H1188   1.079   .     S
C1091  H1104   1.076   .     S
C1091  C1093   1.410   .     A
C1092  H1103   1.074   .     S
C1092  C1094   1.411   .     A
C1093  C1095   1.416   .     A
C1093  C1097   1.430   .     A
C1094  C1098   1.432   .     A
C1094  C1096   1.418   .     A
C1095  C333    1.390   1_556 S
C1097  C360    1.426   1_556 S
Cu1099 O1121   1.945   .     S
Cu1099 O1124   1.922   .     S
Cu1099 N1115   2.042   .     S
Cu1099 O1117   1.969   .     S
Cu1099 O1120   1.958   .     S
Cu1100 O1122   1.945   .     S
Cu1100 O1123   1.922   .     S
Cu1100 N1116   2.042   .     S
Cu1100 O1118   1.969   .     S
Cu1100 O1119   1.958   .     S
Cu1100 Cu1181  2.718   .     S
H1105  C1172   1.078   .     S
O1119  C1149   1.301   .     S
O1122  C1166   1.316   .     S
O1125  H1126   0.990   .     S
O1127  H1128   0.990   .     S
C1129  H1137   1.107   .     S
C1129  C1130   1.531   .     S
C1129  H1138   1.093   .     S
C1130  H1136   1.097   .     S
C1130  H1135   1.111   .     S
C1130  C1131   1.528   .     S
C1131  H1133   1.111   .     S
C1131  H1134   1.111   .     S
C1131  H1132   1.111   .     S
C1139  C1140   1.531   .     S
C1139  H1147   1.090   .     S
C1139  H1148   1.109   .     S
C1140  H1146   1.097   .     S
C1140  C1141   1.526   .     S
C1140  H1145   1.112   .     S
C1141  H1143   1.111   .     S
C1141  H1142   1.111   .     S
C1141  H1144   1.111   .     S
C1149  C1160   1.454   .     S
C1149  O1199   1.306   .     A
C1150  C1159   1.454   .     S
C1150  O1200   1.306   .     A
C1150  O1038   1.301   1_655 S
C1151  H1191   1.073   .     S
C1151  C1180   1.414   .     A
C1151  C1153   1.388   .     A
C1152  C1154   1.387   .     A
C1152  H1192   1.071   .     S
C1152  C1179   1.412   .     A
C1153  H1183   1.081   .     S
C1154  H1184   1.084   .     S
C1154  C440    1.391   1_556 S
C1155  O1207   1.380   .     S
C1155  C996    1.413   1_655 S
C1156  O1209   1.380   .     S
C1156  C1404   1.386   .     S
C1157  H1193   1.076   .     S
C1157  C1159   1.398   .     A
C1157  C1401   1.385   .     S
C1158  H1194   1.077   .     S
C1158  C1160   1.399   .     A
C1159  C992    1.414   1_655 S
C1161  H1195   1.081   .     S
C1161  N1198   1.343   .     A
C1161  C1163   1.420   .     A
C1162  N1197   1.342   .     A
C1162  C1164   1.419   .     A
C1162  H1196   1.081   .     S
C1163  N1197   1.409   .     A
C1163  C1211   1.522   .     S
C1164  N1198   1.409   .     A
C1164  C1221   1.521   .     S
C1165  C1167   1.476   .     S
C1165  O1205   1.303   .     A
C1165  O1039   1.315   1_655 S
C1166  O1206   1.304   .     A
C1166  C1168   1.479   .     S
C1167  C1171   1.399   .     A
C1167  C1173   1.404   .     A
C1168  C1172   1.399   .     A
C1168  C1174   1.405   .     A
C1169  C1177   1.404   .     A
C1169  H1189   1.084   .     S
C1169  C1171   1.393   .     A
C1170  C1172   1.392   .     A
C1170  C1178   1.403   .     A
C1170  H1190   1.084   .     S
C1171  H1024   1.079   1_655 S
C1173  H1186   1.076   .     S
C1173  C1175   1.410   .     A
C1174  H1185   1.074   .     S
C1174  C1176   1.411   .     A
C1175  C1177   1.416   .     A
C1175  C1179   1.430   .     A
C1176  C1180   1.432   .     A
C1176  C1178   1.418   .     A
C1177  C415    1.390   1_556 S
C1179  C442    1.426   1_556 S
Cu1181 O1203   1.945   .     S
Cu1181 O1206   1.922   .     S
Cu1181 N1197   2.042   .     S
Cu1181 O1199   1.969   .     S
Cu1181 O1202   1.958   .     S
Cu1182 O1204   1.945   .     S
Cu1182 O1205   1.922   .     S
Cu1182 N1198   2.042   .     S
Cu1182 O1200   1.969   .     S
Cu1182 O1201   1.958   .     S
Cu1182 Cu1017  2.718   1_655 S
H1187  C1008   1.078   1_655 S
O1201  C985    1.301   1_655 S
O1204  C1002   1.316   1_655 S
O1207  H1208   0.990   .     S
O1209  H1210   0.990   .     S
C1211  H1219   1.107   .     S
C1211  C1212   1.531   .     S
C1211  H1220   1.093   .     S
C1212  H1218   1.097   .     S
C1212  H1217   1.111   .     S
C1212  C1213   1.528   .     S
C1213  H1215   1.111   .     S
C1213  H1216   1.111   .     S
C1213  H1214   1.111   .     S
C1221  C1222   1.531   .     S
C1221  H1229   1.090   .     S
C1221  H1230   1.109   .     S
C1222  H1228   1.097   .     S
C1222  C1223   1.526   .     S
C1222  H1227   1.112   .     S
C1223  H1225   1.111   .     S
C1223  H1224   1.111   .     S
C1223  H1226   1.111   .     S
C1231  C1242   1.454   .     S
C1231  O1281   1.306   .     A
C1231  O1447   1.301   1_455 S
C1232  C1241   1.454   .     S
C1232  O1282   1.306   .     A
C1232  O1366   1.301   .     S
C1233  H1273   1.073   .     S
C1233  C1262   1.414   .     A
C1233  C1235   1.388   .     A
C1234  C1236   1.387   .     A
C1234  H1274   1.071   .     S
C1234  C1261   1.412   .     A
C1235  H1265   1.081   .     S
C1236  H1266   1.084   .     S
C1236  C522    1.391   1_556 S
C1237  O1289   1.380   .     S
C1237  C1324   1.413   .     S
C1238  O1291   1.380   .     S
C1238  C748    1.386   1_565 S
C1238  C1405   1.414   1_455 S
C1239  H1275   1.076   .     S
C1239  C1241   1.398   .     A
C1239  C745    1.385   1_565 S
C1240  H1276   1.077   .     S
C1240  C1242   1.399   .     A
C1241  C1320   1.414   .     S
C1242  C1401   1.413   1_455 S
C1243  H1277   1.081   .     S
C1243  N1280   1.343   .     A
C1243  C1245   1.420   .     A
C1244  N1279   1.342   .     A
C1244  C1246   1.419   .     A
C1244  H1278   1.081   .     S
C1245  N1279   1.409   .     A
C1245  C1293   1.522   .     S
C1246  N1280   1.409   .     A
C1246  C1303   1.521   .     S
C1247  C1249   1.476   .     S
C1247  O1287   1.303   .     A
C1247  O1367   1.315   .     S
C1248  O1288   1.304   .     A
C1248  C1250   1.479   .     S
C1248  O1450   1.316   1_455 S
C1249  C1253   1.399   .     A
C1249  C1255   1.404   .     A
C1250  C1254   1.399   .     A
C1250  C1256   1.405   .     A
C1251  C1259   1.404   .     A
C1251  H1271   1.084   .     S
C1251  C1253   1.393   .     A
C1252  C1254   1.392   .     A
C1252  C1260   1.403   .     A
C1252  H1272   1.084   .     S
C1253  H1352   1.079   .     S
C1254  H1433   1.078   1_455 S
C1255  H1268   1.076   .     S
C1255  C1257   1.410   .     A
C1256  H1267   1.074   .     S
C1256  C1258   1.411   .     A
C1257  C1259   1.416   .     A
C1257  C1261   1.430   .     A
C1258  C1262   1.432   .     A
C1258  C1260   1.418   .     A
C1259  C497    1.390   1_556 S
C1261  C524    1.426   1_556 S
Cu1263 O1285   1.945   .     S
Cu1263 O1288   1.922   .     S
Cu1263 N1279   2.042   .     S
Cu1263 O1281   1.969   .     S
Cu1263 O1284   1.958   .     S
Cu1263 Cu1428  2.718   1_455 S
Cu1264 O1286   1.945   .     S
Cu1264 O1287   1.922   .     S
Cu1264 N1280   2.042   .     S
Cu1264 O1282   1.969   .     S
Cu1264 O1283   1.958   .     S
Cu1264 Cu1345  2.718   .     S
H1269  C1336   1.078   .     S
H1270  C1417   1.079   1_455 S
O1283  C1313   1.301   .     S
O1284  C1396   1.301   1_455 S
O1285  C1411   1.315   1_455 S
O1286  C1330   1.316   .     S
O1289  H1290   0.990   .     S
O1291  H1292   0.990   .     S
C1293  H1301   1.107   .     S
C1293  C1294   1.531   .     S
C1293  H1302   1.093   .     S
C1294  H1300   1.097   .     S
C1294  H1299   1.111   .     S
C1294  C1295   1.528   .     S
C1295  H1297   1.111   .     S
C1295  H1298   1.111   .     S
C1295  H1296   1.111   .     S
C1303  C1304   1.531   .     S
C1303  H1311   1.090   .     S
C1303  H1312   1.109   .     S
C1304  H1310   1.097   .     S
C1304  C1305   1.526   .     S
C1304  H1309   1.112   .     S
C1305  H1307   1.111   .     S
C1305  H1306   1.111   .     S
C1305  H1308   1.111   .     S
C1313  C1324   1.454   .     S
C1313  O1363   1.306   .     A
C1314  C1323   1.454   .     S
C1314  O1364   1.306   .     A
C1314  O1448   1.301   .     S
C1315  H1355   1.073   .     S
C1315  C1344   1.414   .     A
C1315  C1317   1.388   .     A
C1316  C1318   1.387   .     A
C1316  H1356   1.071   .     S
C1316  C1343   1.412   .     A
C1317  H1347   1.081   .     S
C1318  H1348   1.084   .     S
C1318  C604    1.391   1_556 S
C1319  O1371   1.380   .     S
C1319  C1406   1.413   .     S
C1320  O1373   1.380   .     S
C1320  C830    1.386   1_565 S
C1321  H1357   1.076   .     S
C1321  C1323   1.398   .     A
C1321  C827    1.385   1_565 S
C1322  H1358   1.077   .     S
C1322  C1324   1.399   .     A
C1323  C1402   1.414   .     S
C1325  H1359   1.081   .     S
C1325  N1362   1.343   .     A
C1325  C1327   1.420   .     A
C1326  N1361   1.342   .     A
C1326  C1328   1.419   .     A
C1326  H1360   1.081   .     S
C1327  N1361   1.409   .     A
C1327  C1375   1.522   .     S
C1328  N1362   1.409   .     A
C1328  C1385   1.521   .     S
C1329  C1331   1.476   .     S
C1329  O1369   1.303   .     A
C1329  O1449   1.315   .     S
C1330  O1370   1.304   .     A
C1330  C1332   1.479   .     S
C1331  C1335   1.399   .     A
C1331  C1337   1.404   .     A
C1332  C1336   1.399   .     A
C1332  C1338   1.405   .     A
C1333  C1341   1.404   .     A
C1333  H1353   1.084   .     S
C1333  C1335   1.393   .     A
C1334  C1336   1.392   .     A
C1334  C1342   1.403   .     A
C1334  H1354   1.084   .     S
C1335  H1434   1.079   .     S
C1337  H1350   1.076   .     S
C1337  C1339   1.410   .     A
C1338  H1349   1.074   .     S
C1338  C1340   1.411   .     A
C1339  C1341   1.416   .     A
C1339  C1343   1.430   .     A
C1340  C1344   1.432   .     A
C1340  C1342   1.418   .     A
C1341  C579    1.390   1_556 S
C1343  C606    1.426   1_556 S
Cu1345 O1367   1.945   .     S
Cu1345 O1370   1.922   .     S
Cu1345 N1361   2.042   .     S
Cu1345 O1363   1.969   .     S
Cu1345 O1366   1.958   .     S
Cu1346 O1368   1.945   .     S
Cu1346 O1369   1.922   .     S
Cu1346 N1362   2.042   .     S
Cu1346 O1364   1.969   .     S
Cu1346 O1365   1.958   .     S
Cu1346 Cu1427  2.718   .     S
H1351  C1418   1.078   .     S
O1365  C1395   1.301   .     S
O1368  C1412   1.316   .     S
O1371  H1372   0.990   .     S
O1373  H1374   0.990   .     S
C1375  H1383   1.107   .     S
C1375  C1376   1.531   .     S
C1375  H1384   1.093   .     S
C1376  H1382   1.097   .     S
C1376  H1381   1.111   .     S
C1376  C1377   1.528   .     S
C1377  H1379   1.111   .     S
C1377  H1380   1.111   .     S
C1377  H1378   1.111   .     S
C1385  C1386   1.531   .     S
C1385  H1393   1.090   .     S
C1385  H1394   1.109   .     S
C1386  H1392   1.097   .     S
C1386  C1387   1.526   .     S
C1386  H1391   1.112   .     S
C1387  H1389   1.111   .     S
C1387  H1388   1.111   .     S
C1387  H1390   1.111   .     S
C1395  C1406   1.454   .     S
C1395  O1445   1.306   .     A
C1396  C1405   1.454   .     S
C1396  O1446   1.306   .     A
C1396  O1284   1.301   1_655 S
C1397  H1437   1.073   .     S
C1397  C1426   1.414   .     A
C1397  C1399   1.388   .     A
C1398  C1400   1.387   .     A
C1398  H1438   1.071   .     S
C1398  C1425   1.412   .     A
C1399  H1429   1.081   .     S
C1400  H1430   1.084   .     S
C1400  C686    1.391   1_556 S
C1401  O1453   1.380   .     S
C1401  C1242   1.413   1_655 S
C1402  O1455   1.380   .     S
C1402  C912    1.386   1_565 S
C1403  H1439   1.076   .     S
C1403  C1405   1.398   .     A
C1403  C909    1.385   1_565 S
C1404  H1440   1.077   .     S
C1404  C1406   1.399   .     A
C1405  C1238   1.414   1_655 S
C1407  H1441   1.081   .     S
C1407  N1444   1.343   .     A
C1407  C1409   1.420   .     A
C1408  N1443   1.342   .     A
C1408  C1410   1.419   .     A
C1408  H1442   1.081   .     S
C1409  N1443   1.409   .     A
C1409  C1457   1.522   .     S
C1410  N1444   1.409   .     A
C1410  C1467   1.521   .     S
C1411  C1413   1.476   .     S
C1411  O1451   1.303   .     A
C1411  O1285   1.315   1_655 S
C1412  O1452   1.304   .     A
C1412  C1414   1.479   .     S
C1413  C1417   1.399   .     A
C1413  C1419   1.404   .     A
C1414  C1418   1.399   .     A
C1414  C1420   1.405   .     A
C1415  C1423   1.404   .     A
C1415  H1435   1.084   .     S
C1415  C1417   1.393   .     A
C1416  C1418   1.392   .     A
C1416  C1424   1.403   .     A
C1416  H1436   1.084   .     S
C1417  H1270   1.079   1_655 S
C1419  H1432   1.076   .     S
C1419  C1421   1.410   .     A
C1420  H1431   1.074   .     S
C1420  C1422   1.411   .     A
C1421  C1423   1.416   .     A
C1421  C1425   1.430   .     A
C1422  C1426   1.432   .     A
C1422  C1424   1.418   .     A
C1423  C661    1.390   1_556 S
C1425  C688    1.426   1_556 S
Cu1427 O1449   1.945   .     S
Cu1427 O1452   1.922   .     S
Cu1427 N1443   2.042   .     S
Cu1427 O1445   1.969   .     S
Cu1427 O1448   1.958   .     S
Cu1428 O1450   1.945   .     S
Cu1428 O1451   1.922   .     S
Cu1428 N1444   2.042   .     S
Cu1428 O1446   1.969   .     S
Cu1428 O1447   1.958   .     S
Cu1428 Cu1263  2.718   1_655 S
H1433  C1254   1.078   1_655 S
O1447  C1231   1.301   1_655 S
O1450  C1248   1.316   1_655 S
O1453  H1454   0.990   .     S
O1455  H1456   0.990   .     S
C1457  H1465   1.107   .     S
C1457  C1458   1.531   .     S
C1457  H1466   1.093   .     S
C1458  H1464   1.097   .     S
C1458  H1463   1.111   .     S
C1458  C1459   1.528   .     S
C1459  H1461   1.111   .     S
C1459  H1462   1.111   .     S
C1459  H1460   1.111   .     S
C1467  C1468   1.531   .     S
C1467  H1475   1.090   .     S
C1467  H1476   1.109   .     S
C1468  H1474   1.097   .     S
C1468  C1469   1.526   .     S
C1468  H1473   1.112   .     S
C1469  H1471   1.111   .     S
C1469  H1470   1.111   .     S
C1469  H1472   1.111   .     S
