data_str_m2_o10_o18_pcu_sym.80
_audit_creation_date              2020-01-03
_audit_creation_method            'Materials Studio'
_symmetry_space_group_name_H-M    'P1'
_symmetry_Int_Tables_number       1
_symmetry_cell_setting            triclinic
loop_
_symmetry_equiv_pos_as_xyz
  x,y,z
_cell_length_a                    22.2912
_cell_length_b                    26.0153
_cell_length_c                    31.6071
_cell_angle_alpha                 94.1647
_cell_angle_beta                  74.9155
_cell_angle_gamma                 103.2625
loop_
_atom_site_label
_atom_site_type_symbol
_atom_site_fract_x
_atom_site_fract_y
_atom_site_fract_z
_atom_site_U_iso_or_equiv
_atom_site_adp_type
_atom_site_occupancy
C1     C     0.18173   0.26674   0.25130   0.00000  Uiso   1.00
C2     C     0.20546   0.17073   0.16683   0.00000  Uiso   1.00
C3     C     0.10415   0.15580   0.38076   0.00000  Uiso   1.00
C4     C     0.22918   0.17753   0.11924   0.00000  Uiso   1.00
C5     C     0.02441   0.11616   0.44393   0.00000  Uiso   1.00
C6     C     0.30892   0.21717   0.05607   0.00000  Uiso   1.00
C7     C     0.04240   0.12812   0.39954   0.00000  Uiso   1.00
C8     C     0.29093   0.20522   0.10045   0.00000  Uiso   1.00
C9     C     0.14696   0.17281   0.40690   0.00000  Uiso   1.00
C10    C     0.18637   0.16052   0.09310   0.00000  Uiso   1.00
C11    C     0.13135   0.15911   0.45131   0.00000  Uiso   1.00
C12    C     0.15160   0.06659   0.24870   0.00000  Uiso   1.00
C13    C     0.20199   0.17423   0.04869   0.00000  Uiso   1.00
C14    C     0.06822   0.13115   0.47010   0.00000  Uiso   1.00
C15    C     0.26511   0.20219   0.02990   0.00000  Uiso   1.00
C16    C     0.17655   0.17265   0.47734   0.00000  Uiso   1.00
C17    C     0.15678   0.16068   0.02266   0.00000  Uiso   1.00
C18    C     0.31514   0.04798   0.05416   0.00000  Uiso   1.00
C19    C     0.24739   0.01529   0.06153   0.00000  Uiso   1.00
C20    C     0.01819   0.28534   0.44583   0.00000  Uiso   1.00
C21    C     0.08594   0.31804   0.43846   0.00000  Uiso   1.00
C22    C     0.09229   0.13601   0.04069   0.00000  Uiso   1.00
C23    C     0.24104   0.19732   0.45931   0.00000  Uiso   1.00
C24    C     0.04926   0.11886   0.01465   0.00000  Uiso   1.00
C25    C     0.28407   0.21447   0.48535   0.00000  Uiso   1.00
C26    C     0.19021   0.32275   0.25193   0.00000  Uiso   1.00
C27    C     0.14312   0.01059   0.24807   0.00000  Uiso   1.00
C28    C     0.12788   0.16261   0.33317   0.00000  Uiso   1.00
Cu29   Cu    0.10737   0.16108   0.24517   0.00000  Uiso   1.00
Cu30   Cu    0.22596   0.17225   0.25483   0.00000  Uiso   1.00
H31    H     0.14087   0.13651   0.10869   0.00000  Uiso   1.00
H32    H     0.09778   0.32002   0.24442   0.00000  Uiso   1.00
H33    H     0.00128   0.20501   0.28448   0.00000  Uiso   1.00
H34    H     0.33205   0.12832   0.21552   0.00000  Uiso   1.00
H35    H     0.32602   0.05654   0.08666   0.00000  Uiso   1.00
H36    H     0.01453   0.02390   0.03388   0.00000  Uiso   1.00
H37    H     0.23497   0.00544   0.02964   0.00000  Uiso   1.00
H38    H     0.24306   0.31138   0.07828   0.00000  Uiso   1.00
H39    H     0.21351   0.03784   0.08228   0.00000  Uiso   1.00
H40    H     0.31880   0.30943   0.46610   0.00000  Uiso   1.00
H41    H     0.00733   0.27677   0.41333   0.00000  Uiso   1.00
H42    H     0.19246   0.19683   0.39131   0.00000  Uiso   1.00
H43    H     0.11983   0.29549   0.41772   0.00000  Uiso   1.00
H44    H     0.09027   0.02195   0.42171   0.00000  Uiso   1.00
H45    H     0.09835   0.32790   0.47035   0.00000  Uiso   1.00
H46    H     0.32471   0.21878   0.12023   0.00000  Uiso   1.00
H47    H     0.00862   0.11455   0.37977   0.00000  Uiso   1.00
H48    H     0.30955   0.09451   0.45753   0.00000  Uiso   1.00
H49    H     0.02379   0.23882   0.04247   0.00000  Uiso   1.00
H50    H     0.07277   0.13069   0.07532   0.00000  Uiso   1.00
H51    H     0.26057   0.20264   0.42468   0.00000  Uiso   1.00
H52    H     0.23555   0.01331   0.25558   0.00000  Uiso   1.00
N53    N     0.31506   0.18068   0.26212   0.00000  Uiso   1.00
N54    N     0.01827   0.15265   0.23788   0.00000  Uiso   1.00
O55    O     0.12815   0.23809   0.24686   0.00000  Uiso   1.00
O56    O     0.01393   0.23787   0.46662   0.00000  Uiso   1.00
O57    O     0.20518   0.09524   0.25314   0.00000  Uiso   1.00
O58    O     0.22829   0.24753   0.25503   0.00000  Uiso   1.00
O59    O     0.10504   0.08580   0.24498   0.00000  Uiso   1.00
O60    O     0.08851   0.15930   0.30855   0.00000  Uiso   1.00
O61    O     0.24482   0.17403   0.19145   0.00000  Uiso   1.00
O62    O     0.18866   0.16874   0.31671   0.00000  Uiso   1.00
O63    O     0.14468   0.16460   0.18329   0.00000  Uiso   1.00
O64    O     0.31941   0.09546   0.03338   0.00000  Uiso   1.00
C65    C     0.51506   0.26674   0.25130   0.00000  Uiso   1.00
C66    C     0.53879   0.17073   0.16683   0.00000  Uiso   1.00
C67    C     0.43749   0.15580   0.38076   0.00000  Uiso   1.00
C68    C     0.56251   0.17753   0.11924   0.00000  Uiso   1.00
C69    C     0.35775   0.11616   0.44393   0.00000  Uiso   1.00
C70    C     0.64225   0.21717   0.05607   0.00000  Uiso   1.00
C71    C     0.37573   0.12812   0.39954   0.00000  Uiso   1.00
C72    C     0.62427   0.20522   0.10045   0.00000  Uiso   1.00
C73    C     0.48029   0.17281   0.40690   0.00000  Uiso   1.00
C74    C     0.51971   0.16052   0.09310   0.00000  Uiso   1.00
C75    C     0.46468   0.15911   0.45131   0.00000  Uiso   1.00
C76    C     0.48493   0.06659   0.24870   0.00000  Uiso   1.00
C77    C     0.53532   0.17423   0.04869   0.00000  Uiso   1.00
C78    C     0.40156   0.13115   0.47010   0.00000  Uiso   1.00
C79    C     0.59844   0.20219   0.02990   0.00000  Uiso   1.00
C80    C     0.50988   0.17265   0.47734   0.00000  Uiso   1.00
C81    C     0.49012   0.16068   0.02266   0.00000  Uiso   1.00
C82    C     0.64848   0.04798   0.05416   0.00000  Uiso   1.00
C83    C     0.58073   0.01529   0.06153   0.00000  Uiso   1.00
C84    C     0.35152   0.28534   0.44583   0.00000  Uiso   1.00
C85    C     0.41927   0.31804   0.43846   0.00000  Uiso   1.00
C86    C     0.42562   0.13601   0.04069   0.00000  Uiso   1.00
C87    C     0.57438   0.19732   0.45931   0.00000  Uiso   1.00
C88    C     0.38260   0.11886   0.01465   0.00000  Uiso   1.00
C89    C     0.61740   0.21447   0.48535   0.00000  Uiso   1.00
C90    C     0.52355   0.32275   0.25193   0.00000  Uiso   1.00
C91    C     0.47645   0.01059   0.24807   0.00000  Uiso   1.00
C92    C     0.46121   0.16261   0.33317   0.00000  Uiso   1.00
Cu93   Cu    0.44071   0.16108   0.24517   0.00000  Uiso   1.00
Cu94   Cu    0.55929   0.17225   0.25483   0.00000  Uiso   1.00
H95    H     0.47421   0.13651   0.10869   0.00000  Uiso   1.00
H96    H     0.43111   0.32002   0.24442   0.00000  Uiso   1.00
H97    H     0.33462   0.20501   0.28448   0.00000  Uiso   1.00
H98    H     0.66538   0.12832   0.21552   0.00000  Uiso   1.00
H99    H     0.65935   0.05654   0.08666   0.00000  Uiso   1.00
H100   H     0.34786   0.02390   0.03388   0.00000  Uiso   1.00
H101   H     0.56831   0.00544   0.02964   0.00000  Uiso   1.00
H102   H     0.57639   0.31138   0.07828   0.00000  Uiso   1.00
H103   H     0.54685   0.03784   0.08228   0.00000  Uiso   1.00
H104   H     0.65213   0.30943   0.46610   0.00000  Uiso   1.00
H105   H     0.34066   0.27677   0.41333   0.00000  Uiso   1.00
H106   H     0.52579   0.19683   0.39131   0.00000  Uiso   1.00
H107   H     0.45316   0.29549   0.41772   0.00000  Uiso   1.00
H108   H     0.42361   0.02195   0.42171   0.00000  Uiso   1.00
H109   H     0.43168   0.32790   0.47035   0.00000  Uiso   1.00
H110   H     0.65804   0.21878   0.12023   0.00000  Uiso   1.00
H111   H     0.34196   0.11455   0.37977   0.00000  Uiso   1.00
H112   H     0.64288   0.09451   0.45753   0.00000  Uiso   1.00
H113   H     0.35712   0.23882   0.04247   0.00000  Uiso   1.00
H114   H     0.40610   0.13069   0.07532   0.00000  Uiso   1.00
H115   H     0.59390   0.20264   0.42468   0.00000  Uiso   1.00
H116   H     0.56889   0.01331   0.25558   0.00000  Uiso   1.00
N117   N     0.64839   0.18068   0.26212   0.00000  Uiso   1.00
N118   N     0.35161   0.15265   0.23788   0.00000  Uiso   1.00
O119   O     0.46148   0.23809   0.24686   0.00000  Uiso   1.00
O120   O     0.34726   0.23787   0.46662   0.00000  Uiso   1.00
O121   O     0.53852   0.09524   0.25314   0.00000  Uiso   1.00
O122   O     0.56163   0.24753   0.25503   0.00000  Uiso   1.00
O123   O     0.43837   0.08580   0.24498   0.00000  Uiso   1.00
O124   O     0.42185   0.15930   0.30855   0.00000  Uiso   1.00
O125   O     0.57815   0.17403   0.19145   0.00000  Uiso   1.00
O126   O     0.52199   0.16874   0.31671   0.00000  Uiso   1.00
O127   O     0.47801   0.16460   0.18329   0.00000  Uiso   1.00
O128   O     0.65274   0.09546   0.03338   0.00000  Uiso   1.00
C129   C     0.84840   0.26674   0.25130   0.00000  Uiso   1.00
C130   C     0.87212   0.17073   0.16683   0.00000  Uiso   1.00
C131   C     0.77082   0.15580   0.38076   0.00000  Uiso   1.00
C132   C     0.89585   0.17753   0.11924   0.00000  Uiso   1.00
C133   C     0.69108   0.11616   0.44393   0.00000  Uiso   1.00
C134   C     0.97559   0.21717   0.05607   0.00000  Uiso   1.00
C135   C     0.70907   0.12812   0.39954   0.00000  Uiso   1.00
C136   C     0.95760   0.20522   0.10045   0.00000  Uiso   1.00
C137   C     0.81363   0.17281   0.40690   0.00000  Uiso   1.00
C138   C     0.85304   0.16052   0.09310   0.00000  Uiso   1.00
C139   C     0.79801   0.15911   0.45131   0.00000  Uiso   1.00
C140   C     0.81827   0.06659   0.24870   0.00000  Uiso   1.00
C141   C     0.86865   0.17423   0.04869   0.00000  Uiso   1.00
C142   C     0.73489   0.13115   0.47010   0.00000  Uiso   1.00
C143   C     0.93178   0.20219   0.02990   0.00000  Uiso   1.00
C144   C     0.84322   0.17265   0.47734   0.00000  Uiso   1.00
C145   C     0.82345   0.16068   0.02266   0.00000  Uiso   1.00
C146   C     0.98181   0.04798   0.05416   0.00000  Uiso   1.00
C147   C     0.91406   0.01529   0.06153   0.00000  Uiso   1.00
C148   C     0.68486   0.28534   0.44583   0.00000  Uiso   1.00
C149   C     0.75261   0.31804   0.43846   0.00000  Uiso   1.00
C150   C     0.75895   0.13601   0.04069   0.00000  Uiso   1.00
C151   C     0.90771   0.19732   0.45931   0.00000  Uiso   1.00
C152   C     0.71593   0.11886   0.01465   0.00000  Uiso   1.00
C153   C     0.95074   0.21447   0.48535   0.00000  Uiso   1.00
C154   C     0.85688   0.32275   0.25193   0.00000  Uiso   1.00
C155   C     0.80978   0.01059   0.24807   0.00000  Uiso   1.00
C156   C     0.79454   0.16261   0.33317   0.00000  Uiso   1.00
Cu157  Cu    0.77404   0.16108   0.24517   0.00000  Uiso   1.00
Cu158  Cu    0.89263   0.17225   0.25483   0.00000  Uiso   1.00
H159   H     0.80754   0.13651   0.10869   0.00000  Uiso   1.00
H160   H     0.76445   0.32002   0.24442   0.00000  Uiso   1.00
H161   H     0.66795   0.20501   0.28448   0.00000  Uiso   1.00
H162   H     0.99872   0.12832   0.21552   0.00000  Uiso   1.00
H163   H     0.99269   0.05654   0.08666   0.00000  Uiso   1.00
H164   H     0.68120   0.02390   0.03388   0.00000  Uiso   1.00
H165   H     0.90164   0.00544   0.02964   0.00000  Uiso   1.00
H166   H     0.90973   0.31138   0.07828   0.00000  Uiso   1.00
H167   H     0.88018   0.03784   0.08228   0.00000  Uiso   1.00
H168   H     0.98546   0.30943   0.46610   0.00000  Uiso   1.00
H169   H     0.67399   0.27677   0.41333   0.00000  Uiso   1.00
H170   H     0.85913   0.19683   0.39131   0.00000  Uiso   1.00
H171   H     0.78649   0.29549   0.41772   0.00000  Uiso   1.00
H172   H     0.75694   0.02195   0.42171   0.00000  Uiso   1.00
H173   H     0.76502   0.32790   0.47035   0.00000  Uiso   1.00
H174   H     0.99137   0.21878   0.12023   0.00000  Uiso   1.00
H175   H     0.67529   0.11455   0.37977   0.00000  Uiso   1.00
H176   H     0.97621   0.09451   0.45753   0.00000  Uiso   1.00
H177   H     0.69045   0.23882   0.04247   0.00000  Uiso   1.00
H178   H     0.73943   0.13069   0.07532   0.00000  Uiso   1.00
H179   H     0.92723   0.20264   0.42468   0.00000  Uiso   1.00
H180   H     0.90222   0.01331   0.25558   0.00000  Uiso   1.00
N181   N     0.98173   0.18068   0.26212   0.00000  Uiso   1.00
N182   N     0.68494   0.15265   0.23788   0.00000  Uiso   1.00
O183   O     0.79482   0.23809   0.24686   0.00000  Uiso   1.00
O184   O     0.68059   0.23787   0.46662   0.00000  Uiso   1.00
O185   O     0.87185   0.09524   0.25314   0.00000  Uiso   1.00
O186   O     0.89496   0.24753   0.25503   0.00000  Uiso   1.00
O187   O     0.77171   0.08580   0.24498   0.00000  Uiso   1.00
O188   O     0.75518   0.15930   0.30855   0.00000  Uiso   1.00
O189   O     0.91149   0.17403   0.19145   0.00000  Uiso   1.00
O190   O     0.85532   0.16874   0.31671   0.00000  Uiso   1.00
O191   O     0.81134   0.16460   0.18329   0.00000  Uiso   1.00
O192   O     0.98607   0.09546   0.03338   0.00000  Uiso   1.00
C193   C     0.18173   0.60007   0.25130   0.00000  Uiso   1.00
C194   C     0.20546   0.50406   0.16683   0.00000  Uiso   1.00
C195   C     0.10415   0.48914   0.38076   0.00000  Uiso   1.00
C196   C     0.22918   0.51086   0.11924   0.00000  Uiso   1.00
C197   C     0.02441   0.44949   0.44393   0.00000  Uiso   1.00
C198   C     0.30892   0.55051   0.05607   0.00000  Uiso   1.00
C199   C     0.04240   0.46145   0.39954   0.00000  Uiso   1.00
C200   C     0.29093   0.53855   0.10045   0.00000  Uiso   1.00
C201   C     0.14696   0.50614   0.40690   0.00000  Uiso   1.00
C202   C     0.18637   0.49386   0.09310   0.00000  Uiso   1.00
C203   C     0.13135   0.49244   0.45131   0.00000  Uiso   1.00
C204   C     0.15160   0.39993   0.24870   0.00000  Uiso   1.00
C205   C     0.20199   0.50756   0.04869   0.00000  Uiso   1.00
C206   C     0.06822   0.46448   0.47010   0.00000  Uiso   1.00
C207   C     0.26511   0.53552   0.02990   0.00000  Uiso   1.00
C208   C     0.17655   0.50598   0.47734   0.00000  Uiso   1.00
C209   C     0.15678   0.49401   0.02266   0.00000  Uiso   1.00
C210   C     0.31514   0.38131   0.05416   0.00000  Uiso   1.00
C211   C     0.24739   0.34862   0.06153   0.00000  Uiso   1.00
C212   C     0.01819   0.61868   0.44583   0.00000  Uiso   1.00
C213   C     0.08594   0.65138   0.43846   0.00000  Uiso   1.00
C214   C     0.09229   0.46935   0.04069   0.00000  Uiso   1.00
C215   C     0.24104   0.53065   0.45931   0.00000  Uiso   1.00
C216   C     0.04926   0.45219   0.01465   0.00000  Uiso   1.00
C217   C     0.28407   0.54781   0.48535   0.00000  Uiso   1.00
C218   C     0.19021   0.65608   0.25193   0.00000  Uiso   1.00
C219   C     0.14312   0.34392   0.24807   0.00000  Uiso   1.00
C220   C     0.12788   0.49594   0.33317   0.00000  Uiso   1.00
Cu221  Cu    0.10737   0.49441   0.24517   0.00000  Uiso   1.00
Cu222  Cu    0.22596   0.50559   0.25483   0.00000  Uiso   1.00
H223   H     0.14087   0.46984   0.10869   0.00000  Uiso   1.00
H224   H     0.09778   0.65336   0.24442   0.00000  Uiso   1.00
H225   H     0.00128   0.53835   0.28448   0.00000  Uiso   1.00
H226   H     0.33205   0.46165   0.21552   0.00000  Uiso   1.00
H227   H     0.32602   0.38988   0.08666   0.00000  Uiso   1.00
H228   H     0.01453   0.35723   0.03388   0.00000  Uiso   1.00
H229   H     0.23497   0.33878   0.02964   0.00000  Uiso   1.00
H230   H     0.24306   0.64471   0.07828   0.00000  Uiso   1.00
H231   H     0.21351   0.37118   0.08228   0.00000  Uiso   1.00
H232   H     0.31880   0.64276   0.46610   0.00000  Uiso   1.00
H233   H     0.00733   0.61011   0.41333   0.00000  Uiso   1.00
H234   H     0.19246   0.53016   0.39131   0.00000  Uiso   1.00
H235   H     0.11983   0.62882   0.41772   0.00000  Uiso   1.00
H236   H     0.09027   0.35528   0.42171   0.00000  Uiso   1.00
H237   H     0.09835   0.66123   0.47035   0.00000  Uiso   1.00
H238   H     0.32471   0.55212   0.12023   0.00000  Uiso   1.00
H239   H     0.00862   0.44788   0.37977   0.00000  Uiso   1.00
H240   H     0.30955   0.42784   0.45753   0.00000  Uiso   1.00
H241   H     0.02379   0.57216   0.04247   0.00000  Uiso   1.00
H242   H     0.07277   0.46402   0.07532   0.00000  Uiso   1.00
H243   H     0.26057   0.53597   0.42468   0.00000  Uiso   1.00
H244   H     0.23555   0.34664   0.25558   0.00000  Uiso   1.00
N245   N     0.31506   0.51401   0.26212   0.00000  Uiso   1.00
N246   N     0.01827   0.48599   0.23788   0.00000  Uiso   1.00
O247   O     0.12815   0.57142   0.24686   0.00000  Uiso   1.00
O248   O     0.01393   0.57120   0.46662   0.00000  Uiso   1.00
O249   O     0.20518   0.42858   0.25314   0.00000  Uiso   1.00
O250   O     0.22829   0.58086   0.25503   0.00000  Uiso   1.00
O251   O     0.10504   0.41914   0.24498   0.00000  Uiso   1.00
O252   O     0.08851   0.49263   0.30855   0.00000  Uiso   1.00
O253   O     0.24482   0.50737   0.19145   0.00000  Uiso   1.00
O254   O     0.18866   0.50207   0.31671   0.00000  Uiso   1.00
O255   O     0.14468   0.49793   0.18329   0.00000  Uiso   1.00
O256   O     0.31941   0.42880   0.03338   0.00000  Uiso   1.00
C257   C     0.51506   0.60007   0.25130   0.00000  Uiso   1.00
C258   C     0.53879   0.50406   0.16683   0.00000  Uiso   1.00
C259   C     0.43749   0.48914   0.38076   0.00000  Uiso   1.00
C260   C     0.56251   0.51086   0.11924   0.00000  Uiso   1.00
C261   C     0.35775   0.44949   0.44393   0.00000  Uiso   1.00
C262   C     0.64225   0.55051   0.05607   0.00000  Uiso   1.00
C263   C     0.37573   0.46145   0.39954   0.00000  Uiso   1.00
C264   C     0.62427   0.53855   0.10045   0.00000  Uiso   1.00
C265   C     0.48029   0.50614   0.40690   0.00000  Uiso   1.00
C266   C     0.51971   0.49386   0.09310   0.00000  Uiso   1.00
C267   C     0.46468   0.49244   0.45131   0.00000  Uiso   1.00
C268   C     0.48493   0.39993   0.24870   0.00000  Uiso   1.00
C269   C     0.53532   0.50756   0.04869   0.00000  Uiso   1.00
C270   C     0.40156   0.46448   0.47010   0.00000  Uiso   1.00
C271   C     0.59844   0.53552   0.02990   0.00000  Uiso   1.00
C272   C     0.50988   0.50598   0.47734   0.00000  Uiso   1.00
C273   C     0.49012   0.49401   0.02266   0.00000  Uiso   1.00
C274   C     0.64848   0.38131   0.05416   0.00000  Uiso   1.00
C275   C     0.58073   0.34862   0.06153   0.00000  Uiso   1.00
C276   C     0.35152   0.61868   0.44583   0.00000  Uiso   1.00
C277   C     0.41927   0.65138   0.43846   0.00000  Uiso   1.00
C278   C     0.42562   0.46935   0.04069   0.00000  Uiso   1.00
C279   C     0.57438   0.53065   0.45931   0.00000  Uiso   1.00
C280   C     0.38260   0.45219   0.01465   0.00000  Uiso   1.00
C281   C     0.61740   0.54781   0.48535   0.00000  Uiso   1.00
C282   C     0.52355   0.65608   0.25193   0.00000  Uiso   1.00
C283   C     0.47645   0.34392   0.24807   0.00000  Uiso   1.00
C284   C     0.46121   0.49594   0.33317   0.00000  Uiso   1.00
Cu285  Cu    0.44071   0.49441   0.24517   0.00000  Uiso   1.00
Cu286  Cu    0.55929   0.50559   0.25483   0.00000  Uiso   1.00
H287   H     0.47421   0.46984   0.10869   0.00000  Uiso   1.00
H288   H     0.43111   0.65336   0.24442   0.00000  Uiso   1.00
H289   H     0.33462   0.53835   0.28448   0.00000  Uiso   1.00
H290   H     0.66538   0.46165   0.21552   0.00000  Uiso   1.00
H291   H     0.65935   0.38988   0.08666   0.00000  Uiso   1.00
H292   H     0.34786   0.35723   0.03388   0.00000  Uiso   1.00
H293   H     0.56831   0.33878   0.02964   0.00000  Uiso   1.00
H294   H     0.57639   0.64471   0.07828   0.00000  Uiso   1.00
H295   H     0.54685   0.37118   0.08228   0.00000  Uiso   1.00
H296   H     0.65213   0.64276   0.46610   0.00000  Uiso   1.00
H297   H     0.34066   0.61011   0.41333   0.00000  Uiso   1.00
H298   H     0.52579   0.53016   0.39131   0.00000  Uiso   1.00
H299   H     0.45316   0.62882   0.41772   0.00000  Uiso   1.00
H300   H     0.42361   0.35528   0.42171   0.00000  Uiso   1.00
H301   H     0.43168   0.66123   0.47035   0.00000  Uiso   1.00
H302   H     0.65804   0.55212   0.12023   0.00000  Uiso   1.00
H303   H     0.34196   0.44788   0.37977   0.00000  Uiso   1.00
H304   H     0.64288   0.42784   0.45753   0.00000  Uiso   1.00
H305   H     0.35712   0.57216   0.04247   0.00000  Uiso   1.00
H306   H     0.40610   0.46402   0.07532   0.00000  Uiso   1.00
H307   H     0.59390   0.53597   0.42468   0.00000  Uiso   1.00
H308   H     0.56889   0.34664   0.25558   0.00000  Uiso   1.00
N309   N     0.64839   0.51401   0.26212   0.00000  Uiso   1.00
N310   N     0.35161   0.48599   0.23788   0.00000  Uiso   1.00
O311   O     0.46148   0.57142   0.24686   0.00000  Uiso   1.00
O312   O     0.34726   0.57120   0.46662   0.00000  Uiso   1.00
O313   O     0.53852   0.42858   0.25314   0.00000  Uiso   1.00
O314   O     0.56163   0.58086   0.25503   0.00000  Uiso   1.00
O315   O     0.43837   0.41914   0.24498   0.00000  Uiso   1.00
O316   O     0.42185   0.49263   0.30855   0.00000  Uiso   1.00
O317   O     0.57815   0.50737   0.19145   0.00000  Uiso   1.00
O318   O     0.52199   0.50207   0.31671   0.00000  Uiso   1.00
O319   O     0.47801   0.49793   0.18329   0.00000  Uiso   1.00
O320   O     0.65274   0.42880   0.03338   0.00000  Uiso   1.00
C321   C     0.84840   0.60007   0.25130   0.00000  Uiso   1.00
C322   C     0.87212   0.50406   0.16683   0.00000  Uiso   1.00
C323   C     0.77082   0.48914   0.38076   0.00000  Uiso   1.00
C324   C     0.89585   0.51086   0.11924   0.00000  Uiso   1.00
C325   C     0.69108   0.44949   0.44393   0.00000  Uiso   1.00
C326   C     0.97559   0.55051   0.05607   0.00000  Uiso   1.00
C327   C     0.70907   0.46145   0.39954   0.00000  Uiso   1.00
C328   C     0.95760   0.53855   0.10045   0.00000  Uiso   1.00
C329   C     0.81363   0.50614   0.40690   0.00000  Uiso   1.00
C330   C     0.85304   0.49386   0.09310   0.00000  Uiso   1.00
C331   C     0.79801   0.49244   0.45131   0.00000  Uiso   1.00
C332   C     0.81827   0.39993   0.24870   0.00000  Uiso   1.00
C333   C     0.86865   0.50756   0.04869   0.00000  Uiso   1.00
C334   C     0.73489   0.46448   0.47010   0.00000  Uiso   1.00
C335   C     0.93178   0.53552   0.02990   0.00000  Uiso   1.00
C336   C     0.84322   0.50598   0.47734   0.00000  Uiso   1.00
C337   C     0.82345   0.49401   0.02266   0.00000  Uiso   1.00
C338   C     0.98181   0.38131   0.05416   0.00000  Uiso   1.00
C339   C     0.91406   0.34862   0.06153   0.00000  Uiso   1.00
C340   C     0.68486   0.61868   0.44583   0.00000  Uiso   1.00
C341   C     0.75261   0.65138   0.43846   0.00000  Uiso   1.00
C342   C     0.75895   0.46935   0.04069   0.00000  Uiso   1.00
C343   C     0.90771   0.53065   0.45931   0.00000  Uiso   1.00
C344   C     0.71593   0.45219   0.01465   0.00000  Uiso   1.00
C345   C     0.95074   0.54781   0.48535   0.00000  Uiso   1.00
C346   C     0.85688   0.65608   0.25193   0.00000  Uiso   1.00
C347   C     0.80978   0.34392   0.24807   0.00000  Uiso   1.00
C348   C     0.79454   0.49594   0.33317   0.00000  Uiso   1.00
Cu349  Cu    0.77404   0.49441   0.24517   0.00000  Uiso   1.00
Cu350  Cu    0.89263   0.50559   0.25483   0.00000  Uiso   1.00
H351   H     0.80754   0.46984   0.10869   0.00000  Uiso   1.00
H352   H     0.76445   0.65336   0.24442   0.00000  Uiso   1.00
H353   H     0.66795   0.53835   0.28448   0.00000  Uiso   1.00
H354   H     0.99872   0.46165   0.21552   0.00000  Uiso   1.00
H355   H     0.99269   0.38988   0.08666   0.00000  Uiso   1.00
H356   H     0.68120   0.35723   0.03388   0.00000  Uiso   1.00
H357   H     0.90164   0.33878   0.02964   0.00000  Uiso   1.00
H358   H     0.90973   0.64471   0.07828   0.00000  Uiso   1.00
H359   H     0.88018   0.37118   0.08228   0.00000  Uiso   1.00
H360   H     0.98546   0.64276   0.46610   0.00000  Uiso   1.00
H361   H     0.67399   0.61011   0.41333   0.00000  Uiso   1.00
H362   H     0.85913   0.53016   0.39131   0.00000  Uiso   1.00
H363   H     0.78649   0.62882   0.41772   0.00000  Uiso   1.00
H364   H     0.75694   0.35528   0.42171   0.00000  Uiso   1.00
H365   H     0.76502   0.66123   0.47035   0.00000  Uiso   1.00
H366   H     0.99137   0.55212   0.12023   0.00000  Uiso   1.00
H367   H     0.67529   0.44788   0.37977   0.00000  Uiso   1.00
H368   H     0.97621   0.42784   0.45753   0.00000  Uiso   1.00
H369   H     0.69045   0.57216   0.04247   0.00000  Uiso   1.00
H370   H     0.73943   0.46402   0.07532   0.00000  Uiso   1.00
H371   H     0.92723   0.53597   0.42468   0.00000  Uiso   1.00
H372   H     0.90222   0.34664   0.25558   0.00000  Uiso   1.00
N373   N     0.98173   0.51401   0.26212   0.00000  Uiso   1.00
N374   N     0.68494   0.48599   0.23788   0.00000  Uiso   1.00
O375   O     0.79482   0.57142   0.24686   0.00000  Uiso   1.00
O376   O     0.68059   0.57120   0.46662   0.00000  Uiso   1.00
O377   O     0.87185   0.42858   0.25314   0.00000  Uiso   1.00
O378   O     0.89496   0.58086   0.25503   0.00000  Uiso   1.00
O379   O     0.77171   0.41914   0.24498   0.00000  Uiso   1.00
O380   O     0.75518   0.49263   0.30855   0.00000  Uiso   1.00
O381   O     0.91149   0.50737   0.19145   0.00000  Uiso   1.00
O382   O     0.85532   0.50207   0.31671   0.00000  Uiso   1.00
O383   O     0.81134   0.49793   0.18329   0.00000  Uiso   1.00
O384   O     0.98607   0.42880   0.03338   0.00000  Uiso   1.00
C385   C     0.18173   0.93341   0.25130   0.00000  Uiso   1.00
C386   C     0.20546   0.83739   0.16683   0.00000  Uiso   1.00
C387   C     0.10415   0.82247   0.38076   0.00000  Uiso   1.00
C388   C     0.22918   0.84419   0.11924   0.00000  Uiso   1.00
C389   C     0.02441   0.78282   0.44393   0.00000  Uiso   1.00
C390   C     0.30892   0.88384   0.05607   0.00000  Uiso   1.00
C391   C     0.04240   0.79478   0.39954   0.00000  Uiso   1.00
C392   C     0.29093   0.87188   0.10045   0.00000  Uiso   1.00
C393   C     0.14696   0.83948   0.40690   0.00000  Uiso   1.00
C394   C     0.18637   0.82719   0.09310   0.00000  Uiso   1.00
C395   C     0.13135   0.82577   0.45131   0.00000  Uiso   1.00
C396   C     0.15160   0.73326   0.24870   0.00000  Uiso   1.00
C397   C     0.20199   0.84089   0.04869   0.00000  Uiso   1.00
C398   C     0.06822   0.79781   0.47010   0.00000  Uiso   1.00
C399   C     0.26511   0.86885   0.02990   0.00000  Uiso   1.00
C400   C     0.17655   0.83932   0.47734   0.00000  Uiso   1.00
C401   C     0.15678   0.82735   0.02266   0.00000  Uiso   1.00
C402   C     0.31514   0.71465   0.05416   0.00000  Uiso   1.00
C403   C     0.24739   0.68195   0.06153   0.00000  Uiso   1.00
C404   C     0.01819   0.95201   0.44583   0.00000  Uiso   1.00
C405   C     0.08594   0.98471   0.43846   0.00000  Uiso   1.00
C406   C     0.09229   0.80268   0.04069   0.00000  Uiso   1.00
C407   C     0.24104   0.86398   0.45931   0.00000  Uiso   1.00
C408   C     0.04926   0.78552   0.01465   0.00000  Uiso   1.00
C409   C     0.28407   0.88114   0.48535   0.00000  Uiso   1.00
C410   C     0.19021   0.98941   0.25193   0.00000  Uiso   1.00
C411   C     0.14312   0.67725   0.24807   0.00000  Uiso   1.00
C412   C     0.12788   0.82927   0.33317   0.00000  Uiso   1.00
Cu413  Cu    0.10737   0.82775   0.24517   0.00000  Uiso   1.00
Cu414  Cu    0.22596   0.83892   0.25483   0.00000  Uiso   1.00
H415   H     0.14087   0.80317   0.10869   0.00000  Uiso   1.00
H416   H     0.09778   0.98669   0.24442   0.00000  Uiso   1.00
H417   H     0.00128   0.87168   0.28448   0.00000  Uiso   1.00
H418   H     0.33205   0.79499   0.21552   0.00000  Uiso   1.00
H419   H     0.32602   0.72321   0.08666   0.00000  Uiso   1.00
H420   H     0.01453   0.69056   0.03388   0.00000  Uiso   1.00
H421   H     0.23497   0.67211   0.02964   0.00000  Uiso   1.00
H422   H     0.24306   0.97804   0.07828   0.00000  Uiso   1.00
H423   H     0.21351   0.70451   0.08228   0.00000  Uiso   1.00
H424   H     0.31880   0.97610   0.46610   0.00000  Uiso   1.00
H425   H     0.00733   0.94344   0.41333   0.00000  Uiso   1.00
H426   H     0.19246   0.86349   0.39131   0.00000  Uiso   1.00
H427   H     0.11983   0.96215   0.41772   0.00000  Uiso   1.00
H428   H     0.09027   0.68861   0.42171   0.00000  Uiso   1.00
H429   H     0.09835   0.99456   0.47035   0.00000  Uiso   1.00
H430   H     0.32471   0.88545   0.12023   0.00000  Uiso   1.00
H431   H     0.00862   0.78121   0.37977   0.00000  Uiso   1.00
H432   H     0.30955   0.76117   0.45753   0.00000  Uiso   1.00
H433   H     0.02379   0.90549   0.04247   0.00000  Uiso   1.00
H434   H     0.07277   0.79735   0.07532   0.00000  Uiso   1.00
H435   H     0.26057   0.86931   0.42468   0.00000  Uiso   1.00
H436   H     0.23555   0.67998   0.25558   0.00000  Uiso   1.00
N437   N     0.31506   0.84735   0.26212   0.00000  Uiso   1.00
N438   N     0.01827   0.81932   0.23788   0.00000  Uiso   1.00
O439   O     0.12815   0.90476   0.24686   0.00000  Uiso   1.00
O440   O     0.01393   0.90454   0.46662   0.00000  Uiso   1.00
O441   O     0.20518   0.76191   0.25314   0.00000  Uiso   1.00
O442   O     0.22829   0.91420   0.25503   0.00000  Uiso   1.00
O443   O     0.10504   0.75247   0.24498   0.00000  Uiso   1.00
O444   O     0.08851   0.82597   0.30855   0.00000  Uiso   1.00
O445   O     0.24482   0.84070   0.19145   0.00000  Uiso   1.00
O446   O     0.18866   0.83540   0.31671   0.00000  Uiso   1.00
O447   O     0.14468   0.83126   0.18329   0.00000  Uiso   1.00
O448   O     0.31941   0.76213   0.03338   0.00000  Uiso   1.00
C449   C     0.51506   0.93341   0.25130   0.00000  Uiso   1.00
C450   C     0.53879   0.83739   0.16683   0.00000  Uiso   1.00
C451   C     0.43749   0.82247   0.38076   0.00000  Uiso   1.00
C452   C     0.56251   0.84419   0.11924   0.00000  Uiso   1.00
C453   C     0.35775   0.78282   0.44393   0.00000  Uiso   1.00
C454   C     0.64225   0.88384   0.05607   0.00000  Uiso   1.00
C455   C     0.37573   0.79478   0.39954   0.00000  Uiso   1.00
C456   C     0.62427   0.87188   0.10045   0.00000  Uiso   1.00
C457   C     0.48029   0.83948   0.40690   0.00000  Uiso   1.00
C458   C     0.51971   0.82719   0.09310   0.00000  Uiso   1.00
C459   C     0.46468   0.82577   0.45131   0.00000  Uiso   1.00
C460   C     0.48493   0.73326   0.24870   0.00000  Uiso   1.00
C461   C     0.53532   0.84089   0.04869   0.00000  Uiso   1.00
C462   C     0.40156   0.79781   0.47010   0.00000  Uiso   1.00
C463   C     0.59844   0.86885   0.02990   0.00000  Uiso   1.00
C464   C     0.50988   0.83932   0.47734   0.00000  Uiso   1.00
C465   C     0.49012   0.82735   0.02266   0.00000  Uiso   1.00
C466   C     0.64848   0.71465   0.05416   0.00000  Uiso   1.00
C467   C     0.58073   0.68195   0.06153   0.00000  Uiso   1.00
C468   C     0.35152   0.95201   0.44583   0.00000  Uiso   1.00
C469   C     0.41927   0.98471   0.43846   0.00000  Uiso   1.00
C470   C     0.42562   0.80268   0.04069   0.00000  Uiso   1.00
C471   C     0.57438   0.86398   0.45931   0.00000  Uiso   1.00
C472   C     0.38260   0.78552   0.01465   0.00000  Uiso   1.00
C473   C     0.61740   0.88114   0.48535   0.00000  Uiso   1.00
C474   C     0.52355   0.98941   0.25193   0.00000  Uiso   1.00
C475   C     0.47645   0.67725   0.24807   0.00000  Uiso   1.00
C476   C     0.46121   0.82927   0.33317   0.00000  Uiso   1.00
Cu477  Cu    0.44071   0.82775   0.24517   0.00000  Uiso   1.00
Cu478  Cu    0.55929   0.83892   0.25483   0.00000  Uiso   1.00
H479   H     0.47421   0.80317   0.10869   0.00000  Uiso   1.00
H480   H     0.43111   0.98669   0.24442   0.00000  Uiso   1.00
H481   H     0.33462   0.87168   0.28448   0.00000  Uiso   1.00
H482   H     0.66538   0.79499   0.21552   0.00000  Uiso   1.00
H483   H     0.65935   0.72321   0.08666   0.00000  Uiso   1.00
H484   H     0.34786   0.69056   0.03388   0.00000  Uiso   1.00
H485   H     0.56831   0.67211   0.02964   0.00000  Uiso   1.00
H486   H     0.57639   0.97804   0.07828   0.00000  Uiso   1.00
H487   H     0.54685   0.70451   0.08228   0.00000  Uiso   1.00
H488   H     0.65213   0.97610   0.46610   0.00000  Uiso   1.00
H489   H     0.34066   0.94344   0.41333   0.00000  Uiso   1.00
H490   H     0.52579   0.86349   0.39131   0.00000  Uiso   1.00
H491   H     0.45316   0.96215   0.41772   0.00000  Uiso   1.00
H492   H     0.42361   0.68861   0.42171   0.00000  Uiso   1.00
H493   H     0.43168   0.99456   0.47035   0.00000  Uiso   1.00
H494   H     0.65804   0.88545   0.12023   0.00000  Uiso   1.00
H495   H     0.34196   0.78121   0.37977   0.00000  Uiso   1.00
H496   H     0.64288   0.76117   0.45753   0.00000  Uiso   1.00
H497   H     0.35712   0.90549   0.04247   0.00000  Uiso   1.00
H498   H     0.40610   0.79735   0.07532   0.00000  Uiso   1.00
H499   H     0.59390   0.86931   0.42468   0.00000  Uiso   1.00
H500   H     0.56889   0.67998   0.25558   0.00000  Uiso   1.00
N501   N     0.64839   0.84735   0.26212   0.00000  Uiso   1.00
N502   N     0.35161   0.81932   0.23788   0.00000  Uiso   1.00
O503   O     0.46148   0.90476   0.24686   0.00000  Uiso   1.00
O504   O     0.34726   0.90454   0.46662   0.00000  Uiso   1.00
O505   O     0.53852   0.76191   0.25314   0.00000  Uiso   1.00
O506   O     0.56163   0.91420   0.25503   0.00000  Uiso   1.00
O507   O     0.43837   0.75247   0.24498   0.00000  Uiso   1.00
O508   O     0.42185   0.82597   0.30855   0.00000  Uiso   1.00
O509   O     0.57815   0.84070   0.19145   0.00000  Uiso   1.00
O510   O     0.52199   0.83540   0.31671   0.00000  Uiso   1.00
O511   O     0.47801   0.83126   0.18329   0.00000  Uiso   1.00
O512   O     0.65274   0.76213   0.03338   0.00000  Uiso   1.00
C513   C     0.84840   0.93341   0.25130   0.00000  Uiso   1.00
C514   C     0.87212   0.83739   0.16683   0.00000  Uiso   1.00
C515   C     0.77082   0.82247   0.38076   0.00000  Uiso   1.00
C516   C     0.89585   0.84419   0.11924   0.00000  Uiso   1.00
C517   C     0.69108   0.78282   0.44393   0.00000  Uiso   1.00
C518   C     0.97559   0.88384   0.05607   0.00000  Uiso   1.00
C519   C     0.70907   0.79478   0.39954   0.00000  Uiso   1.00
C520   C     0.95760   0.87188   0.10045   0.00000  Uiso   1.00
C521   C     0.81363   0.83948   0.40690   0.00000  Uiso   1.00
C522   C     0.85304   0.82719   0.09310   0.00000  Uiso   1.00
C523   C     0.79801   0.82577   0.45131   0.00000  Uiso   1.00
C524   C     0.81827   0.73326   0.24870   0.00000  Uiso   1.00
C525   C     0.86865   0.84089   0.04869   0.00000  Uiso   1.00
C526   C     0.73489   0.79781   0.47010   0.00000  Uiso   1.00
C527   C     0.93178   0.86885   0.02990   0.00000  Uiso   1.00
C528   C     0.84322   0.83932   0.47734   0.00000  Uiso   1.00
C529   C     0.82345   0.82735   0.02266   0.00000  Uiso   1.00
C530   C     0.98181   0.71465   0.05416   0.00000  Uiso   1.00
C531   C     0.91406   0.68195   0.06153   0.00000  Uiso   1.00
C532   C     0.68486   0.95201   0.44583   0.00000  Uiso   1.00
C533   C     0.75261   0.98471   0.43846   0.00000  Uiso   1.00
C534   C     0.75895   0.80268   0.04069   0.00000  Uiso   1.00
C535   C     0.90771   0.86398   0.45931   0.00000  Uiso   1.00
C536   C     0.71593   0.78552   0.01465   0.00000  Uiso   1.00
C537   C     0.95074   0.88114   0.48535   0.00000  Uiso   1.00
C538   C     0.85688   0.98941   0.25193   0.00000  Uiso   1.00
C539   C     0.80978   0.67725   0.24807   0.00000  Uiso   1.00
C540   C     0.79454   0.82927   0.33317   0.00000  Uiso   1.00
Cu541  Cu    0.77404   0.82775   0.24517   0.00000  Uiso   1.00
Cu542  Cu    0.89263   0.83892   0.25483   0.00000  Uiso   1.00
H543   H     0.80754   0.80317   0.10869   0.00000  Uiso   1.00
H544   H     0.76445   0.98669   0.24442   0.00000  Uiso   1.00
H545   H     0.66795   0.87168   0.28448   0.00000  Uiso   1.00
H546   H     0.99872   0.79499   0.21552   0.00000  Uiso   1.00
H547   H     0.99269   0.72321   0.08666   0.00000  Uiso   1.00
H548   H     0.68120   0.69056   0.03388   0.00000  Uiso   1.00
H549   H     0.90164   0.67211   0.02964   0.00000  Uiso   1.00
H550   H     0.90973   0.97804   0.07828   0.00000  Uiso   1.00
H551   H     0.88018   0.70451   0.08228   0.00000  Uiso   1.00
H552   H     0.98546   0.97610   0.46610   0.00000  Uiso   1.00
H553   H     0.67399   0.94344   0.41333   0.00000  Uiso   1.00
H554   H     0.85913   0.86349   0.39131   0.00000  Uiso   1.00
H555   H     0.78649   0.96215   0.41772   0.00000  Uiso   1.00
H556   H     0.75694   0.68861   0.42171   0.00000  Uiso   1.00
H557   H     0.76502   0.99456   0.47035   0.00000  Uiso   1.00
H558   H     0.99137   0.88545   0.12023   0.00000  Uiso   1.00
H559   H     0.67529   0.78121   0.37977   0.00000  Uiso   1.00
H560   H     0.97621   0.76117   0.45753   0.00000  Uiso   1.00
H561   H     0.69045   0.90549   0.04247   0.00000  Uiso   1.00
H562   H     0.73943   0.79735   0.07532   0.00000  Uiso   1.00
H563   H     0.92723   0.86931   0.42468   0.00000  Uiso   1.00
H564   H     0.90222   0.67998   0.25558   0.00000  Uiso   1.00
N565   N     0.98173   0.84735   0.26212   0.00000  Uiso   1.00
N566   N     0.68494   0.81932   0.23788   0.00000  Uiso   1.00
O567   O     0.79482   0.90476   0.24686   0.00000  Uiso   1.00
O568   O     0.68059   0.90454   0.46662   0.00000  Uiso   1.00
O569   O     0.87185   0.76191   0.25314   0.00000  Uiso   1.00
O570   O     0.89496   0.91420   0.25503   0.00000  Uiso   1.00
O571   O     0.77171   0.75247   0.24498   0.00000  Uiso   1.00
O572   O     0.75518   0.82597   0.30855   0.00000  Uiso   1.00
O573   O     0.91149   0.84070   0.19145   0.00000  Uiso   1.00
O574   O     0.85532   0.83540   0.31671   0.00000  Uiso   1.00
O575   O     0.81134   0.83126   0.18329   0.00000  Uiso   1.00
O576   O     0.98607   0.76213   0.03338   0.00000  Uiso   1.00
C577   C     0.18173   0.26674   0.75130   0.00000  Uiso   1.00
C578   C     0.20546   0.17073   0.66683   0.00000  Uiso   1.00
C579   C     0.10415   0.15580   0.88076   0.00000  Uiso   1.00
C580   C     0.22918   0.17753   0.61924   0.00000  Uiso   1.00
C581   C     0.02441   0.11616   0.94393   0.00000  Uiso   1.00
C582   C     0.30892   0.21717   0.55607   0.00000  Uiso   1.00
C583   C     0.04240   0.12812   0.89954   0.00000  Uiso   1.00
C584   C     0.29093   0.20522   0.60045   0.00000  Uiso   1.00
C585   C     0.14696   0.17281   0.90690   0.00000  Uiso   1.00
C586   C     0.18637   0.16052   0.59310   0.00000  Uiso   1.00
C587   C     0.13135   0.15911   0.95131   0.00000  Uiso   1.00
C588   C     0.15160   0.06659   0.74870   0.00000  Uiso   1.00
C589   C     0.20199   0.17423   0.54869   0.00000  Uiso   1.00
C590   C     0.06822   0.13115   0.97010   0.00000  Uiso   1.00
C591   C     0.26511   0.20219   0.52990   0.00000  Uiso   1.00
C592   C     0.17655   0.17265   0.97734   0.00000  Uiso   1.00
C593   C     0.15678   0.16068   0.52266   0.00000  Uiso   1.00
C594   C     0.31514   0.04798   0.55416   0.00000  Uiso   1.00
C595   C     0.24739   0.01529   0.56153   0.00000  Uiso   1.00
C596   C     0.01819   0.28534   0.94583   0.00000  Uiso   1.00
C597   C     0.08594   0.31804   0.93846   0.00000  Uiso   1.00
C598   C     0.09229   0.13601   0.54069   0.00000  Uiso   1.00
C599   C     0.24104   0.19732   0.95931   0.00000  Uiso   1.00
C600   C     0.04926   0.11886   0.51465   0.00000  Uiso   1.00
C601   C     0.28407   0.21447   0.98535   0.00000  Uiso   1.00
C602   C     0.19021   0.32275   0.75193   0.00000  Uiso   1.00
C603   C     0.14312   0.01059   0.74807   0.00000  Uiso   1.00
C604   C     0.12788   0.16261   0.83317   0.00000  Uiso   1.00
Cu605  Cu    0.10737   0.16108   0.74517   0.00000  Uiso   1.00
Cu606  Cu    0.22596   0.17225   0.75483   0.00000  Uiso   1.00
H607   H     0.14087   0.13651   0.60869   0.00000  Uiso   1.00
H608   H     0.09778   0.32002   0.74442   0.00000  Uiso   1.00
H609   H     0.00128   0.20501   0.78448   0.00000  Uiso   1.00
H610   H     0.33205   0.12832   0.71552   0.00000  Uiso   1.00
H611   H     0.32602   0.05654   0.58666   0.00000  Uiso   1.00
H612   H     0.01453   0.02390   0.53388   0.00000  Uiso   1.00
H613   H     0.23497   0.00544   0.52964   0.00000  Uiso   1.00
H614   H     0.24306   0.31138   0.57828   0.00000  Uiso   1.00
H615   H     0.21351   0.03784   0.58228   0.00000  Uiso   1.00
H616   H     0.31880   0.30943   0.96610   0.00000  Uiso   1.00
H617   H     0.00733   0.27677   0.91333   0.00000  Uiso   1.00
H618   H     0.19246   0.19683   0.89131   0.00000  Uiso   1.00
H619   H     0.11983   0.29549   0.91772   0.00000  Uiso   1.00
H620   H     0.09027   0.02195   0.92171   0.00000  Uiso   1.00
H621   H     0.09835   0.32790   0.97035   0.00000  Uiso   1.00
H622   H     0.32471   0.21878   0.62023   0.00000  Uiso   1.00
H623   H     0.00862   0.11455   0.87977   0.00000  Uiso   1.00
H624   H     0.30955   0.09451   0.95753   0.00000  Uiso   1.00
H625   H     0.02379   0.23882   0.54247   0.00000  Uiso   1.00
H626   H     0.07277   0.13069   0.57532   0.00000  Uiso   1.00
H627   H     0.26057   0.20264   0.92468   0.00000  Uiso   1.00
H628   H     0.23555   0.01331   0.75558   0.00000  Uiso   1.00
N629   N     0.31506   0.18068   0.76212   0.00000  Uiso   1.00
N630   N     0.01827   0.15265   0.73788   0.00000  Uiso   1.00
O631   O     0.12815   0.23809   0.74686   0.00000  Uiso   1.00
O632   O     0.01393   0.23787   0.96662   0.00000  Uiso   1.00
O633   O     0.20518   0.09524   0.75314   0.00000  Uiso   1.00
O634   O     0.22829   0.24753   0.75503   0.00000  Uiso   1.00
O635   O     0.10504   0.08580   0.74498   0.00000  Uiso   1.00
O636   O     0.08851   0.15930   0.80855   0.00000  Uiso   1.00
O637   O     0.24482   0.17403   0.69145   0.00000  Uiso   1.00
O638   O     0.18866   0.16874   0.81671   0.00000  Uiso   1.00
O639   O     0.14468   0.16460   0.68329   0.00000  Uiso   1.00
O640   O     0.31941   0.09546   0.53338   0.00000  Uiso   1.00
C641   C     0.51506   0.26674   0.75130   0.00000  Uiso   1.00
C642   C     0.53879   0.17073   0.66683   0.00000  Uiso   1.00
C643   C     0.43749   0.15580   0.88076   0.00000  Uiso   1.00
C644   C     0.56251   0.17753   0.61924   0.00000  Uiso   1.00
C645   C     0.35775   0.11616   0.94393   0.00000  Uiso   1.00
C646   C     0.64225   0.21717   0.55607   0.00000  Uiso   1.00
C647   C     0.37573   0.12812   0.89954   0.00000  Uiso   1.00
C648   C     0.62427   0.20522   0.60045   0.00000  Uiso   1.00
C649   C     0.48029   0.17281   0.90690   0.00000  Uiso   1.00
C650   C     0.51971   0.16052   0.59310   0.00000  Uiso   1.00
C651   C     0.46468   0.15911   0.95131   0.00000  Uiso   1.00
C652   C     0.48493   0.06659   0.74870   0.00000  Uiso   1.00
C653   C     0.53532   0.17423   0.54869   0.00000  Uiso   1.00
C654   C     0.40156   0.13115   0.97010   0.00000  Uiso   1.00
C655   C     0.59844   0.20219   0.52990   0.00000  Uiso   1.00
C656   C     0.50988   0.17265   0.97734   0.00000  Uiso   1.00
C657   C     0.49012   0.16068   0.52266   0.00000  Uiso   1.00
C658   C     0.64848   0.04798   0.55416   0.00000  Uiso   1.00
C659   C     0.58073   0.01529   0.56153   0.00000  Uiso   1.00
C660   C     0.35152   0.28534   0.94583   0.00000  Uiso   1.00
C661   C     0.41927   0.31804   0.93846   0.00000  Uiso   1.00
C662   C     0.42562   0.13601   0.54069   0.00000  Uiso   1.00
C663   C     0.57438   0.19732   0.95931   0.00000  Uiso   1.00
C664   C     0.38260   0.11886   0.51465   0.00000  Uiso   1.00
C665   C     0.61740   0.21447   0.98535   0.00000  Uiso   1.00
C666   C     0.52355   0.32275   0.75193   0.00000  Uiso   1.00
C667   C     0.47645   0.01059   0.74807   0.00000  Uiso   1.00
C668   C     0.46121   0.16261   0.83317   0.00000  Uiso   1.00
Cu669  Cu    0.44071   0.16108   0.74517   0.00000  Uiso   1.00
Cu670  Cu    0.55929   0.17225   0.75483   0.00000  Uiso   1.00
H671   H     0.47421   0.13651   0.60869   0.00000  Uiso   1.00
H672   H     0.43111   0.32002   0.74442   0.00000  Uiso   1.00
H673   H     0.33462   0.20501   0.78448   0.00000  Uiso   1.00
H674   H     0.66538   0.12832   0.71552   0.00000  Uiso   1.00
H675   H     0.65935   0.05654   0.58666   0.00000  Uiso   1.00
H676   H     0.34786   0.02390   0.53388   0.00000  Uiso   1.00
H677   H     0.56831   0.00544   0.52964   0.00000  Uiso   1.00
H678   H     0.57639   0.31138   0.57828   0.00000  Uiso   1.00
H679   H     0.54685   0.03784   0.58228   0.00000  Uiso   1.00
H680   H     0.65213   0.30943   0.96610   0.00000  Uiso   1.00
H681   H     0.34066   0.27677   0.91333   0.00000  Uiso   1.00
H682   H     0.52579   0.19683   0.89131   0.00000  Uiso   1.00
H683   H     0.45316   0.29549   0.91772   0.00000  Uiso   1.00
H684   H     0.42361   0.02195   0.92171   0.00000  Uiso   1.00
H685   H     0.43168   0.32790   0.97035   0.00000  Uiso   1.00
H686   H     0.65804   0.21878   0.62023   0.00000  Uiso   1.00
H687   H     0.34196   0.11455   0.87977   0.00000  Uiso   1.00
H688   H     0.64288   0.09451   0.95753   0.00000  Uiso   1.00
H689   H     0.35712   0.23882   0.54247   0.00000  Uiso   1.00
H690   H     0.40610   0.13069   0.57532   0.00000  Uiso   1.00
H691   H     0.59390   0.20264   0.92468   0.00000  Uiso   1.00
H692   H     0.56889   0.01331   0.75558   0.00000  Uiso   1.00
N693   N     0.64839   0.18068   0.76212   0.00000  Uiso   1.00
N694   N     0.35161   0.15265   0.73788   0.00000  Uiso   1.00
O695   O     0.46148   0.23809   0.74686   0.00000  Uiso   1.00
O696   O     0.34726   0.23787   0.96662   0.00000  Uiso   1.00
O697   O     0.53852   0.09524   0.75314   0.00000  Uiso   1.00
O698   O     0.56163   0.24753   0.75503   0.00000  Uiso   1.00
O699   O     0.43837   0.08580   0.74498   0.00000  Uiso   1.00
O700   O     0.42185   0.15930   0.80855   0.00000  Uiso   1.00
O701   O     0.57815   0.17403   0.69145   0.00000  Uiso   1.00
O702   O     0.52199   0.16874   0.81671   0.00000  Uiso   1.00
O703   O     0.47801   0.16460   0.68329   0.00000  Uiso   1.00
O704   O     0.65274   0.09546   0.53338   0.00000  Uiso   1.00
C705   C     0.84840   0.26674   0.75130   0.00000  Uiso   1.00
C706   C     0.87212   0.17073   0.66683   0.00000  Uiso   1.00
C707   C     0.77082   0.15580   0.88076   0.00000  Uiso   1.00
C708   C     0.89585   0.17753   0.61924   0.00000  Uiso   1.00
C709   C     0.69108   0.11616   0.94393   0.00000  Uiso   1.00
C710   C     0.97559   0.21717   0.55607   0.00000  Uiso   1.00
C711   C     0.70907   0.12812   0.89954   0.00000  Uiso   1.00
C712   C     0.95760   0.20522   0.60045   0.00000  Uiso   1.00
C713   C     0.81363   0.17281   0.90690   0.00000  Uiso   1.00
C714   C     0.85304   0.16052   0.59310   0.00000  Uiso   1.00
C715   C     0.79801   0.15911   0.95131   0.00000  Uiso   1.00
C716   C     0.81827   0.06659   0.74870   0.00000  Uiso   1.00
C717   C     0.86865   0.17423   0.54869   0.00000  Uiso   1.00
C718   C     0.73489   0.13115   0.97010   0.00000  Uiso   1.00
C719   C     0.93178   0.20219   0.52990   0.00000  Uiso   1.00
C720   C     0.84322   0.17265   0.97734   0.00000  Uiso   1.00
C721   C     0.82345   0.16068   0.52266   0.00000  Uiso   1.00
C722   C     0.98181   0.04798   0.55416   0.00000  Uiso   1.00
C723   C     0.91406   0.01529   0.56153   0.00000  Uiso   1.00
C724   C     0.68486   0.28534   0.94583   0.00000  Uiso   1.00
C725   C     0.75261   0.31804   0.93846   0.00000  Uiso   1.00
C726   C     0.75895   0.13601   0.54069   0.00000  Uiso   1.00
C727   C     0.90771   0.19732   0.95931   0.00000  Uiso   1.00
C728   C     0.71593   0.11886   0.51465   0.00000  Uiso   1.00
C729   C     0.95074   0.21447   0.98535   0.00000  Uiso   1.00
C730   C     0.85688   0.32275   0.75193   0.00000  Uiso   1.00
C731   C     0.80978   0.01059   0.74807   0.00000  Uiso   1.00
C732   C     0.79454   0.16261   0.83317   0.00000  Uiso   1.00
Cu733  Cu    0.77404   0.16108   0.74517   0.00000  Uiso   1.00
Cu734  Cu    0.89263   0.17225   0.75483   0.00000  Uiso   1.00
H735   H     0.80754   0.13651   0.60869   0.00000  Uiso   1.00
H736   H     0.76445   0.32002   0.74442   0.00000  Uiso   1.00
H737   H     0.66795   0.20501   0.78448   0.00000  Uiso   1.00
H738   H     0.99872   0.12832   0.71552   0.00000  Uiso   1.00
H739   H     0.99269   0.05654   0.58666   0.00000  Uiso   1.00
H740   H     0.68120   0.02390   0.53388   0.00000  Uiso   1.00
H741   H     0.90164   0.00544   0.52964   0.00000  Uiso   1.00
H742   H     0.90973   0.31138   0.57828   0.00000  Uiso   1.00
H743   H     0.88018   0.03784   0.58228   0.00000  Uiso   1.00
H744   H     0.98546   0.30943   0.96610   0.00000  Uiso   1.00
H745   H     0.67399   0.27677   0.91333   0.00000  Uiso   1.00
H746   H     0.85913   0.19683   0.89131   0.00000  Uiso   1.00
H747   H     0.78649   0.29549   0.91772   0.00000  Uiso   1.00
H748   H     0.75694   0.02195   0.92171   0.00000  Uiso   1.00
H749   H     0.76502   0.32790   0.97035   0.00000  Uiso   1.00
H750   H     0.99137   0.21878   0.62023   0.00000  Uiso   1.00
H751   H     0.67529   0.11455   0.87977   0.00000  Uiso   1.00
H752   H     0.97621   0.09451   0.95753   0.00000  Uiso   1.00
H753   H     0.69045   0.23882   0.54247   0.00000  Uiso   1.00
H754   H     0.73943   0.13069   0.57532   0.00000  Uiso   1.00
H755   H     0.92723   0.20264   0.92468   0.00000  Uiso   1.00
H756   H     0.90222   0.01331   0.75558   0.00000  Uiso   1.00
N757   N     0.98173   0.18068   0.76212   0.00000  Uiso   1.00
N758   N     0.68494   0.15265   0.73788   0.00000  Uiso   1.00
O759   O     0.79482   0.23809   0.74686   0.00000  Uiso   1.00
O760   O     0.68059   0.23787   0.96662   0.00000  Uiso   1.00
O761   O     0.87185   0.09524   0.75314   0.00000  Uiso   1.00
O762   O     0.89496   0.24753   0.75503   0.00000  Uiso   1.00
O763   O     0.77171   0.08580   0.74498   0.00000  Uiso   1.00
O764   O     0.75518   0.15930   0.80855   0.00000  Uiso   1.00
O765   O     0.91149   0.17403   0.69145   0.00000  Uiso   1.00
O766   O     0.85532   0.16874   0.81671   0.00000  Uiso   1.00
O767   O     0.81134   0.16460   0.68329   0.00000  Uiso   1.00
O768   O     0.98607   0.09546   0.53338   0.00000  Uiso   1.00
C769   C     0.18173   0.60007   0.75130   0.00000  Uiso   1.00
C770   C     0.20546   0.50406   0.66683   0.00000  Uiso   1.00
C771   C     0.10415   0.48914   0.88076   0.00000  Uiso   1.00
C772   C     0.22918   0.51086   0.61924   0.00000  Uiso   1.00
C773   C     0.02441   0.44949   0.94393   0.00000  Uiso   1.00
C774   C     0.30892   0.55051   0.55607   0.00000  Uiso   1.00
C775   C     0.04240   0.46145   0.89954   0.00000  Uiso   1.00
C776   C     0.29093   0.53855   0.60045   0.00000  Uiso   1.00
C777   C     0.14696   0.50614   0.90690   0.00000  Uiso   1.00
C778   C     0.18637   0.49386   0.59310   0.00000  Uiso   1.00
C779   C     0.13135   0.49244   0.95131   0.00000  Uiso   1.00
C780   C     0.15160   0.39993   0.74870   0.00000  Uiso   1.00
C781   C     0.20199   0.50756   0.54869   0.00000  Uiso   1.00
C782   C     0.06822   0.46448   0.97010   0.00000  Uiso   1.00
C783   C     0.26511   0.53552   0.52990   0.00000  Uiso   1.00
C784   C     0.17655   0.50598   0.97734   0.00000  Uiso   1.00
C785   C     0.15678   0.49401   0.52266   0.00000  Uiso   1.00
C786   C     0.31514   0.38131   0.55416   0.00000  Uiso   1.00
C787   C     0.24739   0.34862   0.56153   0.00000  Uiso   1.00
C788   C     0.01819   0.61868   0.94583   0.00000  Uiso   1.00
C789   C     0.08594   0.65138   0.93846   0.00000  Uiso   1.00
C790   C     0.09229   0.46935   0.54069   0.00000  Uiso   1.00
C791   C     0.24104   0.53065   0.95931   0.00000  Uiso   1.00
C792   C     0.04926   0.45219   0.51465   0.00000  Uiso   1.00
C793   C     0.28407   0.54781   0.98535   0.00000  Uiso   1.00
C794   C     0.19021   0.65608   0.75193   0.00000  Uiso   1.00
C795   C     0.14312   0.34392   0.74807   0.00000  Uiso   1.00
C796   C     0.12788   0.49594   0.83317   0.00000  Uiso   1.00
Cu797  Cu    0.10737   0.49441   0.74517   0.00000  Uiso   1.00
Cu798  Cu    0.22596   0.50559   0.75483   0.00000  Uiso   1.00
H799   H     0.14087   0.46984   0.60869   0.00000  Uiso   1.00
H800   H     0.09778   0.65336   0.74442   0.00000  Uiso   1.00
H801   H     0.00128   0.53835   0.78448   0.00000  Uiso   1.00
H802   H     0.33205   0.46165   0.71552   0.00000  Uiso   1.00
H803   H     0.32602   0.38988   0.58666   0.00000  Uiso   1.00
H804   H     0.01453   0.35723   0.53388   0.00000  Uiso   1.00
H805   H     0.23497   0.33878   0.52964   0.00000  Uiso   1.00
H806   H     0.24306   0.64471   0.57828   0.00000  Uiso   1.00
H807   H     0.21351   0.37118   0.58228   0.00000  Uiso   1.00
H808   H     0.31880   0.64276   0.96610   0.00000  Uiso   1.00
H809   H     0.00733   0.61011   0.91333   0.00000  Uiso   1.00
H810   H     0.19246   0.53016   0.89131   0.00000  Uiso   1.00
H811   H     0.11983   0.62882   0.91772   0.00000  Uiso   1.00
H812   H     0.09027   0.35528   0.92171   0.00000  Uiso   1.00
H813   H     0.09835   0.66123   0.97035   0.00000  Uiso   1.00
H814   H     0.32471   0.55212   0.62023   0.00000  Uiso   1.00
H815   H     0.00862   0.44788   0.87977   0.00000  Uiso   1.00
H816   H     0.30955   0.42784   0.95753   0.00000  Uiso   1.00
H817   H     0.02379   0.57216   0.54247   0.00000  Uiso   1.00
H818   H     0.07277   0.46402   0.57532   0.00000  Uiso   1.00
H819   H     0.26057   0.53597   0.92468   0.00000  Uiso   1.00
H820   H     0.23555   0.34664   0.75558   0.00000  Uiso   1.00
N821   N     0.31506   0.51401   0.76212   0.00000  Uiso   1.00
N822   N     0.01827   0.48599   0.73788   0.00000  Uiso   1.00
O823   O     0.12815   0.57142   0.74686   0.00000  Uiso   1.00
O824   O     0.01393   0.57120   0.96662   0.00000  Uiso   1.00
O825   O     0.20518   0.42858   0.75314   0.00000  Uiso   1.00
O826   O     0.22829   0.58086   0.75503   0.00000  Uiso   1.00
O827   O     0.10504   0.41914   0.74498   0.00000  Uiso   1.00
O828   O     0.08851   0.49263   0.80855   0.00000  Uiso   1.00
O829   O     0.24482   0.50737   0.69145   0.00000  Uiso   1.00
O830   O     0.18866   0.50207   0.81671   0.00000  Uiso   1.00
O831   O     0.14468   0.49793   0.68329   0.00000  Uiso   1.00
O832   O     0.31941   0.42880   0.53338   0.00000  Uiso   1.00
C833   C     0.51506   0.60007   0.75130   0.00000  Uiso   1.00
C834   C     0.53879   0.50406   0.66683   0.00000  Uiso   1.00
C835   C     0.43749   0.48914   0.88076   0.00000  Uiso   1.00
C836   C     0.56251   0.51086   0.61924   0.00000  Uiso   1.00
C837   C     0.35775   0.44949   0.94393   0.00000  Uiso   1.00
C838   C     0.64225   0.55051   0.55607   0.00000  Uiso   1.00
C839   C     0.37573   0.46145   0.89954   0.00000  Uiso   1.00
C840   C     0.62427   0.53855   0.60045   0.00000  Uiso   1.00
C841   C     0.48029   0.50614   0.90690   0.00000  Uiso   1.00
C842   C     0.51971   0.49386   0.59310   0.00000  Uiso   1.00
C843   C     0.46468   0.49244   0.95131   0.00000  Uiso   1.00
C844   C     0.48493   0.39993   0.74870   0.00000  Uiso   1.00
C845   C     0.53532   0.50756   0.54869   0.00000  Uiso   1.00
C846   C     0.40156   0.46448   0.97010   0.00000  Uiso   1.00
C847   C     0.59844   0.53552   0.52990   0.00000  Uiso   1.00
C848   C     0.50988   0.50598   0.97734   0.00000  Uiso   1.00
C849   C     0.49012   0.49401   0.52266   0.00000  Uiso   1.00
C850   C     0.64848   0.38131   0.55416   0.00000  Uiso   1.00
C851   C     0.58073   0.34862   0.56153   0.00000  Uiso   1.00
C852   C     0.35152   0.61868   0.94583   0.00000  Uiso   1.00
C853   C     0.41927   0.65138   0.93846   0.00000  Uiso   1.00
C854   C     0.42562   0.46935   0.54069   0.00000  Uiso   1.00
C855   C     0.57438   0.53065   0.95931   0.00000  Uiso   1.00
C856   C     0.38260   0.45219   0.51465   0.00000  Uiso   1.00
C857   C     0.61740   0.54781   0.98535   0.00000  Uiso   1.00
C858   C     0.52355   0.65608   0.75193   0.00000  Uiso   1.00
C859   C     0.47645   0.34392   0.74807   0.00000  Uiso   1.00
C860   C     0.46121   0.49594   0.83317   0.00000  Uiso   1.00
Cu861  Cu    0.44071   0.49441   0.74517   0.00000  Uiso   1.00
Cu862  Cu    0.55929   0.50559   0.75483   0.00000  Uiso   1.00
H863   H     0.47421   0.46984   0.60869   0.00000  Uiso   1.00
H864   H     0.43111   0.65336   0.74442   0.00000  Uiso   1.00
H865   H     0.33462   0.53835   0.78448   0.00000  Uiso   1.00
H866   H     0.66538   0.46165   0.71552   0.00000  Uiso   1.00
H867   H     0.65935   0.38988   0.58666   0.00000  Uiso   1.00
H868   H     0.34786   0.35723   0.53388   0.00000  Uiso   1.00
H869   H     0.56831   0.33878   0.52964   0.00000  Uiso   1.00
H870   H     0.57639   0.64471   0.57828   0.00000  Uiso   1.00
H871   H     0.54685   0.37118   0.58228   0.00000  Uiso   1.00
H872   H     0.65213   0.64276   0.96610   0.00000  Uiso   1.00
H873   H     0.34066   0.61011   0.91333   0.00000  Uiso   1.00
H874   H     0.52579   0.53016   0.89131   0.00000  Uiso   1.00
H875   H     0.45316   0.62882   0.91772   0.00000  Uiso   1.00
H876   H     0.42361   0.35528   0.92171   0.00000  Uiso   1.00
H877   H     0.43168   0.66123   0.97035   0.00000  Uiso   1.00
H878   H     0.65804   0.55212   0.62023   0.00000  Uiso   1.00
H879   H     0.34196   0.44788   0.87977   0.00000  Uiso   1.00
H880   H     0.64288   0.42784   0.95753   0.00000  Uiso   1.00
H881   H     0.35712   0.57216   0.54247   0.00000  Uiso   1.00
H882   H     0.40610   0.46402   0.57532   0.00000  Uiso   1.00
H883   H     0.59390   0.53597   0.92468   0.00000  Uiso   1.00
H884   H     0.56889   0.34664   0.75558   0.00000  Uiso   1.00
N885   N     0.64839   0.51401   0.76212   0.00000  Uiso   1.00
N886   N     0.35161   0.48599   0.73788   0.00000  Uiso   1.00
O887   O     0.46148   0.57142   0.74686   0.00000  Uiso   1.00
O888   O     0.34726   0.57120   0.96662   0.00000  Uiso   1.00
O889   O     0.53852   0.42858   0.75314   0.00000  Uiso   1.00
O890   O     0.56163   0.58086   0.75503   0.00000  Uiso   1.00
O891   O     0.43837   0.41914   0.74498   0.00000  Uiso   1.00
O892   O     0.42185   0.49263   0.80855   0.00000  Uiso   1.00
O893   O     0.57815   0.50737   0.69145   0.00000  Uiso   1.00
O894   O     0.52199   0.50207   0.81671   0.00000  Uiso   1.00
O895   O     0.47801   0.49793   0.68329   0.00000  Uiso   1.00
O896   O     0.65274   0.42880   0.53338   0.00000  Uiso   1.00
C897   C     0.84840   0.60007   0.75130   0.00000  Uiso   1.00
C898   C     0.87212   0.50406   0.66683   0.00000  Uiso   1.00
C899   C     0.77082   0.48914   0.88076   0.00000  Uiso   1.00
C900   C     0.89585   0.51086   0.61924   0.00000  Uiso   1.00
C901   C     0.69108   0.44949   0.94393   0.00000  Uiso   1.00
C902   C     0.97559   0.55051   0.55607   0.00000  Uiso   1.00
C903   C     0.70907   0.46145   0.89954   0.00000  Uiso   1.00
C904   C     0.95760   0.53855   0.60045   0.00000  Uiso   1.00
C905   C     0.81363   0.50614   0.90690   0.00000  Uiso   1.00
C906   C     0.85304   0.49386   0.59310   0.00000  Uiso   1.00
C907   C     0.79801   0.49244   0.95131   0.00000  Uiso   1.00
C908   C     0.81827   0.39993   0.74870   0.00000  Uiso   1.00
C909   C     0.86865   0.50756   0.54869   0.00000  Uiso   1.00
C910   C     0.73489   0.46448   0.97010   0.00000  Uiso   1.00
C911   C     0.93178   0.53552   0.52990   0.00000  Uiso   1.00
C912   C     0.84322   0.50598   0.97734   0.00000  Uiso   1.00
C913   C     0.82345   0.49401   0.52266   0.00000  Uiso   1.00
C914   C     0.98181   0.38131   0.55416   0.00000  Uiso   1.00
C915   C     0.91406   0.34862   0.56153   0.00000  Uiso   1.00
C916   C     0.68486   0.61868   0.94583   0.00000  Uiso   1.00
C917   C     0.75261   0.65138   0.93846   0.00000  Uiso   1.00
C918   C     0.75895   0.46935   0.54069   0.00000  Uiso   1.00
C919   C     0.90771   0.53065   0.95931   0.00000  Uiso   1.00
C920   C     0.71593   0.45219   0.51465   0.00000  Uiso   1.00
C921   C     0.95074   0.54781   0.98535   0.00000  Uiso   1.00
C922   C     0.85688   0.65608   0.75193   0.00000  Uiso   1.00
C923   C     0.80978   0.34392   0.74807   0.00000  Uiso   1.00
C924   C     0.79454   0.49594   0.83317   0.00000  Uiso   1.00
Cu925  Cu    0.77404   0.49441   0.74517   0.00000  Uiso   1.00
Cu926  Cu    0.89263   0.50559   0.75483   0.00000  Uiso   1.00
H927   H     0.80754   0.46984   0.60869   0.00000  Uiso   1.00
H928   H     0.76445   0.65336   0.74442   0.00000  Uiso   1.00
H929   H     0.66795   0.53835   0.78448   0.00000  Uiso   1.00
H930   H     0.99872   0.46165   0.71552   0.00000  Uiso   1.00
H931   H     0.99269   0.38988   0.58666   0.00000  Uiso   1.00
H932   H     0.68120   0.35723   0.53388   0.00000  Uiso   1.00
H933   H     0.90164   0.33878   0.52964   0.00000  Uiso   1.00
H934   H     0.90973   0.64471   0.57828   0.00000  Uiso   1.00
H935   H     0.88018   0.37118   0.58228   0.00000  Uiso   1.00
H936   H     0.98546   0.64276   0.96610   0.00000  Uiso   1.00
H937   H     0.67399   0.61011   0.91333   0.00000  Uiso   1.00
H938   H     0.85913   0.53016   0.89131   0.00000  Uiso   1.00
H939   H     0.78649   0.62882   0.91772   0.00000  Uiso   1.00
H940   H     0.75694   0.35528   0.92171   0.00000  Uiso   1.00
H941   H     0.76502   0.66123   0.97035   0.00000  Uiso   1.00
H942   H     0.99137   0.55212   0.62023   0.00000  Uiso   1.00
H943   H     0.67529   0.44788   0.87977   0.00000  Uiso   1.00
H944   H     0.97621   0.42784   0.95753   0.00000  Uiso   1.00
H945   H     0.69045   0.57216   0.54247   0.00000  Uiso   1.00
H946   H     0.73943   0.46402   0.57532   0.00000  Uiso   1.00
H947   H     0.92723   0.53597   0.92468   0.00000  Uiso   1.00
H948   H     0.90222   0.34664   0.75558   0.00000  Uiso   1.00
N949   N     0.98173   0.51401   0.76212   0.00000  Uiso   1.00
N950   N     0.68494   0.48599   0.73788   0.00000  Uiso   1.00
O951   O     0.79482   0.57142   0.74686   0.00000  Uiso   1.00
O952   O     0.68059   0.57120   0.96662   0.00000  Uiso   1.00
O953   O     0.87185   0.42858   0.75314   0.00000  Uiso   1.00
O954   O     0.89496   0.58086   0.75503   0.00000  Uiso   1.00
O955   O     0.77171   0.41914   0.74498   0.00000  Uiso   1.00
O956   O     0.75518   0.49263   0.80855   0.00000  Uiso   1.00
O957   O     0.91149   0.50737   0.69145   0.00000  Uiso   1.00
O958   O     0.85532   0.50207   0.81671   0.00000  Uiso   1.00
O959   O     0.81134   0.49793   0.68329   0.00000  Uiso   1.00
O960   O     0.98607   0.42880   0.53338   0.00000  Uiso   1.00
C961   C     0.18173   0.93341   0.75130   0.00000  Uiso   1.00
C962   C     0.20546   0.83739   0.66683   0.00000  Uiso   1.00
C963   C     0.10415   0.82247   0.88076   0.00000  Uiso   1.00
C964   C     0.22918   0.84419   0.61924   0.00000  Uiso   1.00
C965   C     0.02441   0.78282   0.94393   0.00000  Uiso   1.00
C966   C     0.30892   0.88384   0.55607   0.00000  Uiso   1.00
C967   C     0.04240   0.79478   0.89954   0.00000  Uiso   1.00
C968   C     0.29093   0.87188   0.60045   0.00000  Uiso   1.00
C969   C     0.14696   0.83948   0.90690   0.00000  Uiso   1.00
C970   C     0.18637   0.82719   0.59310   0.00000  Uiso   1.00
C971   C     0.13135   0.82577   0.95131   0.00000  Uiso   1.00
C972   C     0.15160   0.73326   0.74870   0.00000  Uiso   1.00
C973   C     0.20199   0.84089   0.54869   0.00000  Uiso   1.00
C974   C     0.06822   0.79781   0.97010   0.00000  Uiso   1.00
C975   C     0.26511   0.86885   0.52990   0.00000  Uiso   1.00
C976   C     0.17655   0.83932   0.97734   0.00000  Uiso   1.00
C977   C     0.15678   0.82735   0.52266   0.00000  Uiso   1.00
C978   C     0.31514   0.71465   0.55416   0.00000  Uiso   1.00
C979   C     0.24739   0.68195   0.56153   0.00000  Uiso   1.00
C980   C     0.01819   0.95201   0.94583   0.00000  Uiso   1.00
C981   C     0.08594   0.98471   0.93846   0.00000  Uiso   1.00
C982   C     0.09229   0.80268   0.54069   0.00000  Uiso   1.00
C983   C     0.24104   0.86398   0.95931   0.00000  Uiso   1.00
C984   C     0.04926   0.78552   0.51465   0.00000  Uiso   1.00
C985   C     0.28407   0.88114   0.98535   0.00000  Uiso   1.00
C986   C     0.19021   0.98941   0.75193   0.00000  Uiso   1.00
C987   C     0.14312   0.67725   0.74807   0.00000  Uiso   1.00
C988   C     0.12788   0.82927   0.83317   0.00000  Uiso   1.00
Cu989  Cu    0.10737   0.82775   0.74517   0.00000  Uiso   1.00
Cu990  Cu    0.22596   0.83892   0.75483   0.00000  Uiso   1.00
H991   H     0.14087   0.80317   0.60869   0.00000  Uiso   1.00
H992   H     0.09778   0.98669   0.74442   0.00000  Uiso   1.00
H993   H     0.00128   0.87168   0.78448   0.00000  Uiso   1.00
H994   H     0.33205   0.79499   0.71552   0.00000  Uiso   1.00
H995   H     0.32602   0.72321   0.58666   0.00000  Uiso   1.00
H996   H     0.01453   0.69056   0.53388   0.00000  Uiso   1.00
H997   H     0.23497   0.67211   0.52964   0.00000  Uiso   1.00
H998   H     0.24306   0.97804   0.57828   0.00000  Uiso   1.00
H999   H     0.21351   0.70451   0.58228   0.00000  Uiso   1.00
H1000  H     0.31880   0.97610   0.96610   0.00000  Uiso   1.00
H1001  H     0.00733   0.94344   0.91333   0.00000  Uiso   1.00
H1002  H     0.19246   0.86349   0.89131   0.00000  Uiso   1.00
H1003  H     0.11983   0.96215   0.91772   0.00000  Uiso   1.00
H1004  H     0.09027   0.68861   0.92171   0.00000  Uiso   1.00
H1005  H     0.09835   0.99456   0.97035   0.00000  Uiso   1.00
H1006  H     0.32471   0.88545   0.62023   0.00000  Uiso   1.00
H1007  H     0.00862   0.78121   0.87977   0.00000  Uiso   1.00
H1008  H     0.30955   0.76117   0.95753   0.00000  Uiso   1.00
H1009  H     0.02379   0.90549   0.54247   0.00000  Uiso   1.00
H1010  H     0.07277   0.79735   0.57532   0.00000  Uiso   1.00
H1011  H     0.26057   0.86931   0.92468   0.00000  Uiso   1.00
H1012  H     0.23555   0.67998   0.75558   0.00000  Uiso   1.00
N1013  N     0.31506   0.84735   0.76212   0.00000  Uiso   1.00
N1014  N     0.01827   0.81932   0.73788   0.00000  Uiso   1.00
O1015  O     0.12815   0.90476   0.74686   0.00000  Uiso   1.00
O1016  O     0.01393   0.90454   0.96662   0.00000  Uiso   1.00
O1017  O     0.20518   0.76191   0.75314   0.00000  Uiso   1.00
O1018  O     0.22829   0.91420   0.75503   0.00000  Uiso   1.00
O1019  O     0.10504   0.75247   0.74498   0.00000  Uiso   1.00
O1020  O     0.08851   0.82597   0.80855   0.00000  Uiso   1.00
O1021  O     0.24482   0.84070   0.69145   0.00000  Uiso   1.00
O1022  O     0.18866   0.83540   0.81671   0.00000  Uiso   1.00
O1023  O     0.14468   0.83126   0.68329   0.00000  Uiso   1.00
O1024  O     0.31941   0.76213   0.53338   0.00000  Uiso   1.00
C1025  C     0.51506   0.93341   0.75130   0.00000  Uiso   1.00
C1026  C     0.53879   0.83739   0.66683   0.00000  Uiso   1.00
C1027  C     0.43749   0.82247   0.88076   0.00000  Uiso   1.00
C1028  C     0.56251   0.84419   0.61924   0.00000  Uiso   1.00
C1029  C     0.35775   0.78282   0.94393   0.00000  Uiso   1.00
C1030  C     0.64225   0.88384   0.55607   0.00000  Uiso   1.00
C1031  C     0.37573   0.79478   0.89954   0.00000  Uiso   1.00
C1032  C     0.62427   0.87188   0.60045   0.00000  Uiso   1.00
C1033  C     0.48029   0.83948   0.90690   0.00000  Uiso   1.00
C1034  C     0.51971   0.82719   0.59310   0.00000  Uiso   1.00
C1035  C     0.46468   0.82577   0.95131   0.00000  Uiso   1.00
C1036  C     0.48493   0.73326   0.74870   0.00000  Uiso   1.00
C1037  C     0.53532   0.84089   0.54869   0.00000  Uiso   1.00
C1038  C     0.40156   0.79781   0.97010   0.00000  Uiso   1.00
C1039  C     0.59844   0.86885   0.52990   0.00000  Uiso   1.00
C1040  C     0.50988   0.83932   0.97734   0.00000  Uiso   1.00
C1041  C     0.49012   0.82735   0.52266   0.00000  Uiso   1.00
C1042  C     0.64848   0.71465   0.55416   0.00000  Uiso   1.00
C1043  C     0.58073   0.68195   0.56153   0.00000  Uiso   1.00
C1044  C     0.35152   0.95201   0.94583   0.00000  Uiso   1.00
C1045  C     0.41927   0.98471   0.93846   0.00000  Uiso   1.00
C1046  C     0.42562   0.80268   0.54069   0.00000  Uiso   1.00
C1047  C     0.57438   0.86398   0.95931   0.00000  Uiso   1.00
C1048  C     0.38260   0.78552   0.51465   0.00000  Uiso   1.00
C1049  C     0.61740   0.88114   0.98535   0.00000  Uiso   1.00
C1050  C     0.52355   0.98941   0.75193   0.00000  Uiso   1.00
C1051  C     0.47645   0.67725   0.74807   0.00000  Uiso   1.00
C1052  C     0.46121   0.82927   0.83317   0.00000  Uiso   1.00
Cu1053 Cu    0.44071   0.82775   0.74517   0.00000  Uiso   1.00
Cu1054 Cu    0.55929   0.83892   0.75483   0.00000  Uiso   1.00
H1055  H     0.47421   0.80317   0.60869   0.00000  Uiso   1.00
H1056  H     0.43111   0.98669   0.74442   0.00000  Uiso   1.00
H1057  H     0.33462   0.87168   0.78448   0.00000  Uiso   1.00
H1058  H     0.66538   0.79499   0.71552   0.00000  Uiso   1.00
H1059  H     0.65935   0.72321   0.58666   0.00000  Uiso   1.00
H1060  H     0.34786   0.69056   0.53388   0.00000  Uiso   1.00
H1061  H     0.56831   0.67211   0.52964   0.00000  Uiso   1.00
H1062  H     0.57639   0.97804   0.57828   0.00000  Uiso   1.00
H1063  H     0.54685   0.70451   0.58228   0.00000  Uiso   1.00
H1064  H     0.65213   0.97610   0.96610   0.00000  Uiso   1.00
H1065  H     0.34066   0.94344   0.91333   0.00000  Uiso   1.00
H1066  H     0.52579   0.86349   0.89131   0.00000  Uiso   1.00
H1067  H     0.45316   0.96215   0.91772   0.00000  Uiso   1.00
H1068  H     0.42361   0.68861   0.92171   0.00000  Uiso   1.00
H1069  H     0.43168   0.99456   0.97035   0.00000  Uiso   1.00
H1070  H     0.65804   0.88545   0.62023   0.00000  Uiso   1.00
H1071  H     0.34196   0.78121   0.87977   0.00000  Uiso   1.00
H1072  H     0.64288   0.76117   0.95753   0.00000  Uiso   1.00
H1073  H     0.35712   0.90549   0.54247   0.00000  Uiso   1.00
H1074  H     0.40610   0.79735   0.57532   0.00000  Uiso   1.00
H1075  H     0.59390   0.86931   0.92468   0.00000  Uiso   1.00
H1076  H     0.56889   0.67998   0.75558   0.00000  Uiso   1.00
N1077  N     0.64839   0.84735   0.76212   0.00000  Uiso   1.00
N1078  N     0.35161   0.81932   0.73788   0.00000  Uiso   1.00
O1079  O     0.46148   0.90476   0.74686   0.00000  Uiso   1.00
O1080  O     0.34726   0.90454   0.96662   0.00000  Uiso   1.00
O1081  O     0.53852   0.76191   0.75314   0.00000  Uiso   1.00
O1082  O     0.56163   0.91420   0.75503   0.00000  Uiso   1.00
O1083  O     0.43837   0.75247   0.74498   0.00000  Uiso   1.00
O1084  O     0.42185   0.82597   0.80855   0.00000  Uiso   1.00
O1085  O     0.57815   0.84070   0.69145   0.00000  Uiso   1.00
O1086  O     0.52199   0.83540   0.81671   0.00000  Uiso   1.00
O1087  O     0.47801   0.83126   0.68329   0.00000  Uiso   1.00
O1088  O     0.65274   0.76213   0.53338   0.00000  Uiso   1.00
C1089  C     0.84840   0.93341   0.75130   0.00000  Uiso   1.00
C1090  C     0.87212   0.83739   0.66683   0.00000  Uiso   1.00
C1091  C     0.77082   0.82247   0.88076   0.00000  Uiso   1.00
C1092  C     0.89585   0.84419   0.61924   0.00000  Uiso   1.00
C1093  C     0.69108   0.78282   0.94393   0.00000  Uiso   1.00
C1094  C     0.97559   0.88384   0.55607   0.00000  Uiso   1.00
C1095  C     0.70907   0.79478   0.89954   0.00000  Uiso   1.00
C1096  C     0.95760   0.87188   0.60045   0.00000  Uiso   1.00
C1097  C     0.81363   0.83948   0.90690   0.00000  Uiso   1.00
C1098  C     0.85304   0.82719   0.59310   0.00000  Uiso   1.00
C1099  C     0.79801   0.82577   0.95131   0.00000  Uiso   1.00
C1100  C     0.81827   0.73326   0.74870   0.00000  Uiso   1.00
C1101  C     0.86865   0.84089   0.54869   0.00000  Uiso   1.00
C1102  C     0.73489   0.79781   0.97010   0.00000  Uiso   1.00
C1103  C     0.93178   0.86885   0.52990   0.00000  Uiso   1.00
C1104  C     0.84322   0.83932   0.97734   0.00000  Uiso   1.00
C1105  C     0.82345   0.82735   0.52266   0.00000  Uiso   1.00
C1106  C     0.98181   0.71465   0.55416   0.00000  Uiso   1.00
C1107  C     0.91406   0.68195   0.56153   0.00000  Uiso   1.00
C1108  C     0.68486   0.95201   0.94583   0.00000  Uiso   1.00
C1109  C     0.75261   0.98471   0.93846   0.00000  Uiso   1.00
C1110  C     0.75895   0.80268   0.54069   0.00000  Uiso   1.00
C1111  C     0.90771   0.86398   0.95931   0.00000  Uiso   1.00
C1112  C     0.71593   0.78552   0.51465   0.00000  Uiso   1.00
C1113  C     0.95074   0.88114   0.98535   0.00000  Uiso   1.00
C1114  C     0.85688   0.98941   0.75193   0.00000  Uiso   1.00
C1115  C     0.80978   0.67725   0.74807   0.00000  Uiso   1.00
C1116  C     0.79454   0.82927   0.83317   0.00000  Uiso   1.00
Cu1117 Cu    0.77404   0.82775   0.74517   0.00000  Uiso   1.00
Cu1118 Cu    0.89263   0.83892   0.75483   0.00000  Uiso   1.00
H1119  H     0.80754   0.80317   0.60869   0.00000  Uiso   1.00
H1120  H     0.76445   0.98669   0.74442   0.00000  Uiso   1.00
H1121  H     0.66795   0.87168   0.78448   0.00000  Uiso   1.00
H1122  H     0.99872   0.79499   0.71552   0.00000  Uiso   1.00
H1123  H     0.99269   0.72321   0.58666   0.00000  Uiso   1.00
H1124  H     0.68120   0.69056   0.53388   0.00000  Uiso   1.00
H1125  H     0.90164   0.67211   0.52964   0.00000  Uiso   1.00
H1126  H     0.90973   0.97804   0.57828   0.00000  Uiso   1.00
H1127  H     0.88018   0.70451   0.58228   0.00000  Uiso   1.00
H1128  H     0.98546   0.97610   0.96610   0.00000  Uiso   1.00
H1129  H     0.67399   0.94344   0.91333   0.00000  Uiso   1.00
H1130  H     0.85913   0.86349   0.89131   0.00000  Uiso   1.00
H1131  H     0.78649   0.96215   0.91772   0.00000  Uiso   1.00
H1132  H     0.75694   0.68861   0.92171   0.00000  Uiso   1.00
H1133  H     0.76502   0.99456   0.97035   0.00000  Uiso   1.00
H1134  H     0.99137   0.88545   0.62023   0.00000  Uiso   1.00
H1135  H     0.67529   0.78121   0.87977   0.00000  Uiso   1.00
H1136  H     0.97621   0.76117   0.95753   0.00000  Uiso   1.00
H1137  H     0.69045   0.90549   0.54247   0.00000  Uiso   1.00
H1138  H     0.73943   0.79735   0.57532   0.00000  Uiso   1.00
H1139  H     0.92723   0.86931   0.92468   0.00000  Uiso   1.00
H1140  H     0.90222   0.67998   0.75558   0.00000  Uiso   1.00
N1141  N     0.98173   0.84735   0.76212   0.00000  Uiso   1.00
N1142  N     0.68494   0.81932   0.73788   0.00000  Uiso   1.00
O1143  O     0.79482   0.90476   0.74686   0.00000  Uiso   1.00
O1144  O     0.68059   0.90454   0.96662   0.00000  Uiso   1.00
O1145  O     0.87185   0.76191   0.75314   0.00000  Uiso   1.00
O1146  O     0.89496   0.91420   0.75503   0.00000  Uiso   1.00
O1147  O     0.77171   0.75247   0.74498   0.00000  Uiso   1.00
O1148  O     0.75518   0.82597   0.80855   0.00000  Uiso   1.00
O1149  O     0.91149   0.84070   0.69145   0.00000  Uiso   1.00
O1150  O     0.85532   0.83540   0.81671   0.00000  Uiso   1.00
O1151  O     0.81134   0.83126   0.68329   0.00000  Uiso   1.00
O1152  O     0.98607   0.76213   0.53338   0.00000  Uiso   1.00
loop_
_geom_bond_atom_site_label_1
_geom_bond_atom_site_label_2
_geom_bond_distance
_geom_bond_site_symmetry_2
_ccdc_geom_bond_type
C1     O58     1.285   .     A
C1     C26     1.425   .     S
C1     O55     1.291   .     A
C2     C4      1.468   .     S
C2     O63     1.295   .     A
C2     O61     1.302   .     A
C3     C9      1.397   .     A
C3     C28     1.468   .     S
C3     C7      1.396   .     A
C4     C10     1.397   .     A
C4     C8      1.396   .     A
C5     C14     1.410   .     A
C5     C7      1.392   .     A
C5     H176    1.083   1_455 S
C6     C8      1.392   .     A
C6     C15     1.410   .     A
C6     H113    1.083   .     S
C7     H47     1.083   .     S
C8     H46     1.083   .     S
C9     C11     1.407   .     A
C9     H42     1.075   .     S
C10    H31     1.075   .     S
C10    C13     1.407   .     A
C11    C16     1.429   .     A
C11    C14     1.421   .     A
C12    O57     1.291   .     A
C12    C27     1.425   .     S
C12    O59     1.285   .     A
C13    C17     1.429   .     A
C13    C15     1.421   .     A
C14    C600    1.399   .     S
C15    C601    1.399   1_554 S
C16    C23     1.417   .     A
C16    C593    1.420   .     S
C17    C22     1.417   .     A
C17    C592    1.420   1_554 S
C18    H35     1.111   .     S
C18    O64     1.413   .     S
C18    C19     1.521   .     S
C18    H100    1.115   .     S
C19    H39     1.111   .     S
C19    H37     1.111   .     S
C19    H422    1.111   1_545 S
C20    O56     1.413   .     S
C20    H41     1.111   .     S
C20    C21     1.521   .     S
C20    H168    1.115   1_455 S
C21    H43     1.111   .     S
C21    H45     1.111   .     S
C21    H236    1.110   .     S
C22    C24     1.399   .     A
C22    H50     1.074   .     S
C23    H51     1.074   .     S
C23    C25     1.399   .     A
C24    C590    1.399   1_554 S
C24    O192    1.389   1_455 S
C25    C591    1.399   .     S
C25    O120    1.389   .     S
C26    C219    1.328   .     S
C26    H244    1.088   .     S
C27    C410    1.328   1_545 S
C27    H416    1.088   1_545 S
C28    O60     1.302   .     A
C28    O62     1.295   .     A
Cu29   O60     1.939   .     S
Cu29   Cu30    2.687   .     S
Cu29   O63     1.916   .     S
Cu29   N54     2.019   .     S
Cu29   O55     1.950   .     S
Cu29   O59     1.947   .     S
Cu30   O58     1.947   .     S
Cu30   N53     2.019   .     S
Cu30   O62     1.916   .     S
Cu30   O57     1.950   .     S
Cu30   O61     1.939   .     S
H32    C219    1.088   .     S
H33    N181    1.029   1_455 S
H34    N118    1.029   .     S
H36    C146    1.115   1_455 S
H38    C211    1.111   .     S
H40    C84     1.115   .     S
H44    C405    1.110   1_545 S
H48    C69     1.083   .     S
H49    C134    1.083   1_455 S
H52    C410    1.088   1_545 S
N53    H97     1.029   .     S
N53    N118    1.284   .     S
N54    H162    1.029   1_455 S
N54    N181    1.284   1_455 S
O56    C153    1.389   1_455 S
O64    C88     1.389   .     S
C65    O122    1.285   .     A
C65    C90     1.425   .     S
C65    O119    1.291   .     A
C66    C68     1.468   .     S
C66    O127    1.295   .     A
C66    O125    1.302   .     A
C67    C73     1.397   .     A
C67    C92     1.468   .     S
C67    C71     1.396   .     A
C68    C74     1.397   .     A
C68    C72     1.396   .     A
C69    C78     1.410   .     A
C69    C71     1.392   .     A
C70    C72     1.392   .     A
C70    C79     1.410   .     A
C70    H177    1.083   .     S
C71    H111    1.083   .     S
C72    H110    1.083   .     S
C73    C75     1.407   .     A
C73    H106    1.075   .     S
C74    H95     1.075   .     S
C74    C77     1.407   .     A
C75    C80     1.429   .     A
C75    C78     1.421   .     A
C76    O121    1.291   .     A
C76    C91     1.425   .     S
C76    O123    1.285   .     A
C77    C81     1.429   .     A
C77    C79     1.421   .     A
C78    C664    1.399   .     S
C79    C665    1.399   1_554 S
C80    C87     1.417   .     A
C80    C657    1.420   .     S
C81    C86     1.417   .     A
C81    C656    1.420   1_554 S
C82    H99     1.111   .     S
C82    O128    1.413   .     S
C82    C83     1.521   .     S
C82    H164    1.115   .     S
C83    H103    1.111   .     S
C83    H101    1.111   .     S
C83    H486    1.111   1_545 S
C84    O120    1.413   .     S
C84    H105    1.111   .     S
C84    C85     1.521   .     S
C85    H107    1.111   .     S
C85    H109    1.111   .     S
C85    H300    1.110   .     S
C86    C88     1.399   .     A
C86    H114    1.074   .     S
C87    H115    1.074   .     S
C87    C89     1.399   .     A
C88    C654    1.399   1_554 S
C89    C655    1.399   .     S
C89    O184    1.389   .     S
C90    C283    1.328   .     S
C90    H308    1.088   .     S
C91    C474    1.328   1_545 S
C91    H480    1.088   1_545 S
C92    O124    1.302   .     A
C92    O126    1.295   .     A
Cu93   O124    1.939   .     S
Cu93   Cu94    2.687   .     S
Cu93   O127    1.916   .     S
Cu93   N118    2.019   .     S
Cu93   O119    1.950   .     S
Cu93   O123    1.947   .     S
Cu94   O122    1.947   .     S
Cu94   N117    2.019   .     S
Cu94   O126    1.916   .     S
Cu94   O121    1.950   .     S
Cu94   O125    1.939   .     S
H96    C283    1.088   .     S
H98    N182    1.029   .     S
H102   C275    1.111   .     S
H104   C148    1.115   .     S
H108   C469    1.110   1_545 S
H112   C133    1.083   .     S
H116   C474    1.088   1_545 S
N117   H161    1.029   .     S
N117   N182    1.284   .     S
O128   C152    1.389   .     S
C129   O186    1.285   .     A
C129   C154    1.425   .     S
C129   O183    1.291   .     A
C130   C132    1.468   .     S
C130   O191    1.295   .     A
C130   O189    1.302   .     A
C131   C137    1.397   .     A
C131   C156    1.468   .     S
C131   C135    1.396   .     A
C132   C138    1.397   .     A
C132   C136    1.396   .     A
C133   C142    1.410   .     A
C133   C135    1.392   .     A
C134   C136    1.392   .     A
C134   C143    1.410   .     A
C134   H49     1.083   1_655 S
C135   H175    1.083   .     S
C136   H174    1.083   .     S
C137   C139    1.407   .     A
C137   H170    1.075   .     S
C138   H159    1.075   .     S
C138   C141    1.407   .     A
C139   C144    1.429   .     A
C139   C142    1.421   .     A
C140   O185    1.291   .     A
C140   C155    1.425   .     S
C140   O187    1.285   .     A
C141   C145    1.429   .     A
C141   C143    1.421   .     A
C142   C728    1.399   .     S
C143   C729    1.399   1_554 S
C144   C151    1.417   .     A
C144   C721    1.420   .     S
C145   C150    1.417   .     A
C145   C720    1.420   1_554 S
C146   H163    1.111   .     S
C146   O192    1.413   .     S
C146   C147    1.521   .     S
C146   H36     1.115   1_655 S
C147   H167    1.111   .     S
C147   H165    1.111   .     S
C147   H550    1.111   1_545 S
C148   O184    1.413   .     S
C148   H169    1.111   .     S
C148   C149    1.521   .     S
C149   H171    1.111   .     S
C149   H173    1.111   .     S
C149   H364    1.110   .     S
C150   C152    1.399   .     A
C150   H178    1.074   .     S
C151   H179    1.074   .     S
C151   C153    1.399   .     A
C152   C718    1.399   1_554 S
C153   C719    1.399   .     S
C153   O56     1.389   1_655 S
C154   C347    1.328   .     S
C154   H372    1.088   .     S
C155   C538    1.328   1_545 S
C155   H544    1.088   1_545 S
C156   O188    1.302   .     A
C156   O190    1.295   .     A
Cu157  O188    1.939   .     S
Cu157  Cu158   2.687   .     S
Cu157  O191    1.916   .     S
Cu157  N182    2.019   .     S
Cu157  O183    1.950   .     S
Cu157  O187    1.947   .     S
Cu158  O186    1.947   .     S
Cu158  N181    2.019   .     S
Cu158  O190    1.916   .     S
Cu158  O185    1.950   .     S
Cu158  O189    1.939   .     S
H160   C347    1.088   .     S
H162   N54     1.029   1_655 S
H166   C339    1.111   .     S
H168   C20     1.115   1_655 S
H172   C533    1.110   1_545 S
H176   C5      1.083   1_655 S
H180   C538    1.088   1_545 S
N181   H33     1.029   1_655 S
N181   N54     1.284   1_655 S
O192   C24     1.389   1_655 S
C193   O250    1.285   .     A
C193   C218    1.425   .     S
C193   O247    1.291   .     A
C194   C196    1.468   .     S
C194   O255    1.295   .     A
C194   O253    1.302   .     A
C195   C201    1.397   .     A
C195   C220    1.468   .     S
C195   C199    1.396   .     A
C196   C202    1.397   .     A
C196   C200    1.396   .     A
C197   C206    1.410   .     A
C197   C199    1.392   .     A
C197   H368    1.083   1_455 S
C198   C200    1.392   .     A
C198   C207    1.410   .     A
C198   H305    1.083   .     S
C199   H239    1.083   .     S
C200   H238    1.083   .     S
C201   C203    1.407   .     A
C201   H234    1.075   .     S
C202   H223    1.075   .     S
C202   C205    1.407   .     A
C203   C208    1.429   .     A
C203   C206    1.421   .     A
C204   O249    1.291   .     A
C204   C219    1.425   .     S
C204   O251    1.285   .     A
C205   C209    1.429   .     A
C205   C207    1.421   .     A
C206   C792    1.399   .     S
C207   C793    1.399   1_554 S
C208   C215    1.417   .     A
C208   C785    1.420   .     S
C209   C214    1.417   .     A
C209   C784    1.420   1_554 S
C210   H227    1.111   .     S
C210   O256    1.413   .     S
C210   C211    1.521   .     S
C210   H292    1.115   .     S
C211   H231    1.111   .     S
C211   H229    1.111   .     S
C212   O248    1.413   .     S
C212   H233    1.111   .     S
C212   C213    1.521   .     S
C212   H360    1.115   1_455 S
C213   H235    1.111   .     S
C213   H237    1.111   .     S
C213   H428    1.110   .     S
C214   C216    1.399   .     A
C214   H242    1.074   .     S
C215   H243    1.074   .     S
C215   C217    1.399   .     A
C216   C782    1.399   1_554 S
C216   O384    1.389   1_455 S
C217   C783    1.399   .     S
C217   O312    1.389   .     S
C218   C411    1.328   .     S
C218   H436    1.088   .     S
C220   O252    1.302   .     A
C220   O254    1.295   .     A
Cu221  O252    1.939   .     S
Cu221  Cu222   2.687   .     S
Cu221  O255    1.916   .     S
Cu221  N246    2.019   .     S
Cu221  O247    1.950   .     S
Cu221  O251    1.947   .     S
Cu222  O250    1.947   .     S
Cu222  N245    2.019   .     S
Cu222  O254    1.916   .     S
Cu222  O249    1.950   .     S
Cu222  O253    1.939   .     S
H224   C411    1.088   .     S
H225   N373    1.029   1_455 S
H226   N310    1.029   .     S
H228   C338    1.115   1_455 S
H230   C403    1.111   .     S
H232   C276    1.115   .     S
H240   C261    1.083   .     S
H241   C326    1.083   1_455 S
N245   H289    1.029   .     S
N245   N310    1.284   .     S
N246   H354    1.029   1_455 S
N246   N373    1.284   1_455 S
O248   C345    1.389   1_455 S
O256   C280    1.389   .     S
C257   O314    1.285   .     A
C257   C282    1.425   .     S
C257   O311    1.291   .     A
C258   C260    1.468   .     S
C258   O319    1.295   .     A
C258   O317    1.302   .     A
C259   C265    1.397   .     A
C259   C284    1.468   .     S
C259   C263    1.396   .     A
C260   C266    1.397   .     A
C260   C264    1.396   .     A
C261   C270    1.410   .     A
C261   C263    1.392   .     A
C262   C264    1.392   .     A
C262   C271    1.410   .     A
C262   H369    1.083   .     S
C263   H303    1.083   .     S
C264   H302    1.083   .     S
C265   C267    1.407   .     A
C265   H298    1.075   .     S
C266   H287    1.075   .     S
C266   C269    1.407   .     A
C267   C272    1.429   .     A
C267   C270    1.421   .     A
C268   O313    1.291   .     A
C268   C283    1.425   .     S
C268   O315    1.285   .     A
C269   C273    1.429   .     A
C269   C271    1.421   .     A
C270   C856    1.399   .     S
C271   C857    1.399   1_554 S
C272   C279    1.417   .     A
C272   C849    1.420   .     S
C273   C278    1.417   .     A
C273   C848    1.420   1_554 S
C274   H291    1.111   .     S
C274   O320    1.413   .     S
C274   C275    1.521   .     S
C274   H356    1.115   .     S
C275   H295    1.111   .     S
C275   H293    1.111   .     S
C276   O312    1.413   .     S
C276   H297    1.111   .     S
C276   C277    1.521   .     S
C277   H299    1.111   .     S
C277   H301    1.111   .     S
C277   H492    1.110   .     S
C278   C280    1.399   .     A
C278   H306    1.074   .     S
C279   H307    1.074   .     S
C279   C281    1.399   .     A
C280   C846    1.399   1_554 S
C281   C847    1.399   .     S
C281   O376    1.389   .     S
C282   C475    1.328   .     S
C282   H500    1.088   .     S
C284   O316    1.302   .     A
C284   O318    1.295   .     A
Cu285  O316    1.939   .     S
Cu285  Cu286   2.687   .     S
Cu285  O319    1.916   .     S
Cu285  N310    2.019   .     S
Cu285  O311    1.950   .     S
Cu285  O315    1.947   .     S
Cu286  O314    1.947   .     S
Cu286  N309    2.019   .     S
Cu286  O318    1.916   .     S
Cu286  O313    1.950   .     S
Cu286  O317    1.939   .     S
H288   C475    1.088   .     S
H290   N374    1.029   .     S
H294   C467    1.111   .     S
H296   C340    1.115   .     S
H304   C325    1.083   .     S
N309   H353    1.029   .     S
N309   N374    1.284   .     S
O320   C344    1.389   .     S
C321   O378    1.285   .     A
C321   C346    1.425   .     S
C321   O375    1.291   .     A
C322   C324    1.468   .     S
C322   O383    1.295   .     A
C322   O381    1.302   .     A
C323   C329    1.397   .     A
C323   C348    1.468   .     S
C323   C327    1.396   .     A
C324   C330    1.397   .     A
C324   C328    1.396   .     A
C325   C334    1.410   .     A
C325   C327    1.392   .     A
C326   C328    1.392   .     A
C326   C335    1.410   .     A
C326   H241    1.083   1_655 S
C327   H367    1.083   .     S
C328   H366    1.083   .     S
C329   C331    1.407   .     A
C329   H362    1.075   .     S
C330   H351    1.075   .     S
C330   C333    1.407   .     A
C331   C336    1.429   .     A
C331   C334    1.421   .     A
C332   O377    1.291   .     A
C332   C347    1.425   .     S
C332   O379    1.285   .     A
C333   C337    1.429   .     A
C333   C335    1.421   .     A
C334   C920    1.399   .     S
C335   C921    1.399   1_554 S
C336   C343    1.417   .     A
C336   C913    1.420   .     S
C337   C342    1.417   .     A
C337   C912    1.420   1_554 S
C338   H355    1.111   .     S
C338   O384    1.413   .     S
C338   C339    1.521   .     S
C338   H228    1.115   1_655 S
C339   H359    1.111   .     S
C339   H357    1.111   .     S
C340   O376    1.413   .     S
C340   H361    1.111   .     S
C340   C341    1.521   .     S
C341   H363    1.111   .     S
C341   H365    1.111   .     S
C341   H556    1.110   .     S
C342   C344    1.399   .     A
C342   H370    1.074   .     S
C343   H371    1.074   .     S
C343   C345    1.399   .     A
C344   C910    1.399   1_554 S
C345   C911    1.399   .     S
C345   O248    1.389   1_655 S
C346   C539    1.328   .     S
C346   H564    1.088   .     S
C348   O380    1.302   .     A
C348   O382    1.295   .     A
Cu349  O380    1.939   .     S
Cu349  Cu350   2.687   .     S
Cu349  O383    1.916   .     S
Cu349  N374    2.019   .     S
Cu349  O375    1.950   .     S
Cu349  O379    1.947   .     S
Cu350  O378    1.947   .     S
Cu350  N373    2.019   .     S
Cu350  O382    1.916   .     S
Cu350  O377    1.950   .     S
Cu350  O381    1.939   .     S
H352   C539    1.088   .     S
H354   N246    1.029   1_655 S
H358   C531    1.111   .     S
H360   C212    1.115   1_655 S
H368   C197    1.083   1_655 S
N373   H225    1.029   1_655 S
N373   N246    1.284   1_655 S
O384   C216    1.389   1_655 S
C385   O442    1.285   .     A
C385   C410    1.425   .     S
C385   O439    1.291   .     A
C386   C388    1.468   .     S
C386   O447    1.295   .     A
C386   O445    1.302   .     A
C387   C393    1.397   .     A
C387   C412    1.468   .     S
C387   C391    1.396   .     A
C388   C394    1.397   .     A
C388   C392    1.396   .     A
C389   C398    1.410   .     A
C389   C391    1.392   .     A
C389   H560    1.083   1_455 S
C390   C392    1.392   .     A
C390   C399    1.410   .     A
C390   H497    1.083   .     S
C391   H431    1.083   .     S
C392   H430    1.083   .     S
C393   C395    1.407   .     A
C393   H426    1.075   .     S
C394   H415    1.075   .     S
C394   C397    1.407   .     A
C395   C400    1.429   .     A
C395   C398    1.421   .     A
C396   O441    1.291   .     A
C396   C411    1.425   .     S
C396   O443    1.285   .     A
C397   C401    1.429   .     A
C397   C399    1.421   .     A
C398   C984    1.399   .     S
C399   C985    1.399   1_554 S
C400   C407    1.417   .     A
C400   C977    1.420   .     S
C401   C406    1.417   .     A
C401   C976    1.420   1_554 S
C402   H419    1.111   .     S
C402   O448    1.413   .     S
C402   C403    1.521   .     S
C402   H484    1.115   .     S
C403   H423    1.111   .     S
C403   H421    1.111   .     S
C404   O440    1.413   .     S
C404   H425    1.111   .     S
C404   C405    1.521   .     S
C404   H552    1.115   1_455 S
C405   H427    1.111   .     S
C405   H429    1.111   .     S
C405   H44     1.110   1_565 S
C406   C408    1.399   .     A
C406   H434    1.074   .     S
C407   H435    1.074   .     S
C407   C409    1.399   .     A
C408   C974    1.399   1_554 S
C408   O576    1.389   1_455 S
C409   C975    1.399   .     S
C409   O504    1.389   .     S
C410   C27     1.328   1_565 S
C410   H52     1.088   1_565 S
C412   O444    1.302   .     A
C412   O446    1.295   .     A
Cu413  O444    1.939   .     S
Cu413  Cu414   2.687   .     S
Cu413  O447    1.916   .     S
Cu413  N438    2.019   .     S
Cu413  O439    1.950   .     S
Cu413  O443    1.947   .     S
Cu414  O442    1.947   .     S
Cu414  N437    2.019   .     S
Cu414  O446    1.916   .     S
Cu414  O441    1.950   .     S
Cu414  O445    1.939   .     S
H416   C27     1.088   1_565 S
H417   N565    1.029   1_455 S
H418   N502    1.029   .     S
H420   C530    1.115   1_455 S
H422   C19     1.111   1_565 S
H424   C468    1.115   .     S
H432   C453    1.083   .     S
H433   C518    1.083   1_455 S
N437   H481    1.029   .     S
N437   N502    1.284   .     S
N438   H546    1.029   1_455 S
N438   N565    1.284   1_455 S
O440   C537    1.389   1_455 S
O448   C472    1.389   .     S
C449   O506    1.285   .     A
C449   C474    1.425   .     S
C449   O503    1.291   .     A
C450   C452    1.468   .     S
C450   O511    1.295   .     A
C450   O509    1.302   .     A
C451   C457    1.397   .     A
C451   C476    1.468   .     S
C451   C455    1.396   .     A
C452   C458    1.397   .     A
C452   C456    1.396   .     A
C453   C462    1.410   .     A
C453   C455    1.392   .     A
C454   C456    1.392   .     A
C454   C463    1.410   .     A
C454   H561    1.083   .     S
C455   H495    1.083   .     S
C456   H494    1.083   .     S
C457   C459    1.407   .     A
C457   H490    1.075   .     S
C458   H479    1.075   .     S
C458   C461    1.407   .     A
C459   C464    1.429   .     A
C459   C462    1.421   .     A
C460   O505    1.291   .     A
C460   C475    1.425   .     S
C460   O507    1.285   .     A
C461   C465    1.429   .     A
C461   C463    1.421   .     A
C462   C1048   1.399   .     S
C463   C1049   1.399   1_554 S
C464   C471    1.417   .     A
C464   C1041   1.420   .     S
C465   C470    1.417   .     A
C465   C1040   1.420   1_554 S
C466   H483    1.111   .     S
C466   O512    1.413   .     S
C466   C467    1.521   .     S
C466   H548    1.115   .     S
C467   H487    1.111   .     S
C467   H485    1.111   .     S
C468   O504    1.413   .     S
C468   H489    1.111   .     S
C468   C469    1.521   .     S
C469   H491    1.111   .     S
C469   H493    1.111   .     S
C469   H108    1.110   1_565 S
C470   C472    1.399   .     A
C470   H498    1.074   .     S
C471   H499    1.074   .     S
C471   C473    1.399   .     A
C472   C1038   1.399   1_554 S
C473   C1039   1.399   .     S
C473   O568    1.389   .     S
C474   C91     1.328   1_565 S
C474   H116    1.088   1_565 S
C476   O508    1.302   .     A
C476   O510    1.295   .     A
Cu477  O508    1.939   .     S
Cu477  Cu478   2.687   .     S
Cu477  O511    1.916   .     S
Cu477  N502    2.019   .     S
Cu477  O503    1.950   .     S
Cu477  O507    1.947   .     S
Cu478  O506    1.947   .     S
Cu478  N501    2.019   .     S
Cu478  O510    1.916   .     S
Cu478  O505    1.950   .     S
Cu478  O509    1.939   .     S
H480   C91     1.088   1_565 S
H482   N566    1.029   .     S
H486   C83     1.111   1_565 S
H488   C532    1.115   .     S
H496   C517    1.083   .     S
N501   H545    1.029   .     S
N501   N566    1.284   .     S
O512   C536    1.389   .     S
C513   O570    1.285   .     A
C513   C538    1.425   .     S
C513   O567    1.291   .     A
C514   C516    1.468   .     S
C514   O575    1.295   .     A
C514   O573    1.302   .     A
C515   C521    1.397   .     A
C515   C540    1.468   .     S
C515   C519    1.396   .     A
C516   C522    1.397   .     A
C516   C520    1.396   .     A
C517   C526    1.410   .     A
C517   C519    1.392   .     A
C518   C520    1.392   .     A
C518   C527    1.410   .     A
C518   H433    1.083   1_655 S
C519   H559    1.083   .     S
C520   H558    1.083   .     S
C521   C523    1.407   .     A
C521   H554    1.075   .     S
C522   H543    1.075   .     S
C522   C525    1.407   .     A
C523   C528    1.429   .     A
C523   C526    1.421   .     A
C524   O569    1.291   .     A
C524   C539    1.425   .     S
C524   O571    1.285   .     A
C525   C529    1.429   .     A
C525   C527    1.421   .     A
C526   C1112   1.399   .     S
C527   C1113   1.399   1_554 S
C528   C535    1.417   .     A
C528   C1105   1.420   .     S
C529   C534    1.417   .     A
C529   C1104   1.420   1_554 S
C530   H547    1.111   .     S
C530   O576    1.413   .     S
C530   C531    1.521   .     S
C530   H420    1.115   1_655 S
C531   H551    1.111   .     S
C531   H549    1.111   .     S
C532   O568    1.413   .     S
C532   H553    1.111   .     S
C532   C533    1.521   .     S
C533   H555    1.111   .     S
C533   H557    1.111   .     S
C533   H172    1.110   1_565 S
C534   C536    1.399   .     A
C534   H562    1.074   .     S
C535   H563    1.074   .     S
C535   C537    1.399   .     A
C536   C1102   1.399   1_554 S
C537   C1103   1.399   .     S
C537   O440    1.389   1_655 S
C538   C155    1.328   1_565 S
C538   H180    1.088   1_565 S
C540   O572    1.302   .     A
C540   O574    1.295   .     A
Cu541  O572    1.939   .     S
Cu541  Cu542   2.687   .     S
Cu541  O575    1.916   .     S
Cu541  N566    2.019   .     S
Cu541  O567    1.950   .     S
Cu541  O571    1.947   .     S
Cu542  O570    1.947   .     S
Cu542  N565    2.019   .     S
Cu542  O574    1.916   .     S
Cu542  O569    1.950   .     S
Cu542  O573    1.939   .     S
H544   C155    1.088   1_565 S
H546   N438    1.029   1_655 S
H550   C147    1.111   1_565 S
H552   C404    1.115   1_655 S
H560   C389    1.083   1_655 S
N565   H417    1.029   1_655 S
N565   N438    1.284   1_655 S
O576   C408    1.389   1_655 S
C577   O634    1.285   .     A
C577   C602    1.425   .     S
C577   O631    1.291   .     A
C578   C580    1.468   .     S
C578   O639    1.295   .     A
C578   O637    1.302   .     A
C579   C585    1.397   .     A
C579   C604    1.468   .     S
C579   C583    1.396   .     A
C580   C586    1.397   .     A
C580   C584    1.396   .     A
C581   C590    1.410   .     A
C581   C583    1.392   .     A
C581   H752    1.083   1_455 S
C582   C584    1.392   .     A
C582   C591    1.410   .     A
C582   H689    1.083   .     S
C583   H623    1.083   .     S
C584   H622    1.083   .     S
C585   C587    1.407   .     A
C585   H618    1.075   .     S
C586   H607    1.075   .     S
C586   C589    1.407   .     A
C587   C592    1.429   .     A
C587   C590    1.421   .     A
C588   O633    1.291   .     A
C588   C603    1.425   .     S
C588   O635    1.285   .     A
C589   C593    1.429   .     A
C589   C591    1.421   .     A
C590   C24     1.399   1_556 S
C592   C599    1.417   .     A
C592   C17     1.420   1_556 S
C593   C598    1.417   .     A
C594   H611    1.111   .     S
C594   O640    1.413   .     S
C594   C595    1.521   .     S
C594   H676    1.115   .     S
C595   H615    1.111   .     S
C595   H613    1.111   .     S
C595   H998    1.111   1_545 S
C596   O632    1.413   .     S
C596   H617    1.111   .     S
C596   C597    1.521   .     S
C596   H744    1.115   1_455 S
C597   H619    1.111   .     S
C597   H621    1.111   .     S
C597   H812    1.110   .     S
C598   C600    1.399   .     A
C598   H626    1.074   .     S
C599   H627    1.074   .     S
C599   C601    1.399   .     A
C600   O768    1.389   1_455 S
C601   C15     1.399   1_556 S
C601   O696    1.389   .     S
C602   C795    1.328   .     S
C602   H820    1.088   .     S
C603   C986    1.328   1_545 S
C603   H992    1.088   1_545 S
C604   O636    1.302   .     A
C604   O638    1.295   .     A
Cu605  O636    1.939   .     S
Cu605  Cu606   2.687   .     S
Cu605  O639    1.916   .     S
Cu605  N630    2.019   .     S
Cu605  O631    1.950   .     S
Cu605  O635    1.947   .     S
Cu606  O634    1.947   .     S
Cu606  N629    2.019   .     S
Cu606  O638    1.916   .     S
Cu606  O633    1.950   .     S
Cu606  O637    1.939   .     S
H608   C795    1.088   .     S
H609   N757    1.029   1_455 S
H610   N694    1.029   .     S
H612   C722    1.115   1_455 S
H614   C787    1.111   .     S
H616   C660    1.115   .     S
H620   C981    1.110   1_545 S
H624   C645    1.083   .     S
H625   C710    1.083   1_455 S
H628   C986    1.088   1_545 S
N629   H673    1.029   .     S
N629   N694    1.284   .     S
N630   H738    1.029   1_455 S
N630   N757    1.284   1_455 S
O632   C729    1.389   1_455 S
O640   C664    1.389   .     S
C641   O698    1.285   .     A
C641   C666    1.425   .     S
C641   O695    1.291   .     A
C642   C644    1.468   .     S
C642   O703    1.295   .     A
C642   O701    1.302   .     A
C643   C649    1.397   .     A
C643   C668    1.468   .     S
C643   C647    1.396   .     A
C644   C650    1.397   .     A
C644   C648    1.396   .     A
C645   C654    1.410   .     A
C645   C647    1.392   .     A
C646   C648    1.392   .     A
C646   C655    1.410   .     A
C646   H753    1.083   .     S
C647   H687    1.083   .     S
C648   H686    1.083   .     S
C649   C651    1.407   .     A
C649   H682    1.075   .     S
C650   H671    1.075   .     S
C650   C653    1.407   .     A
C651   C656    1.429   .     A
C651   C654    1.421   .     A
C652   O697    1.291   .     A
C652   C667    1.425   .     S
C652   O699    1.285   .     A
C653   C657    1.429   .     A
C653   C655    1.421   .     A
C654   C88     1.399   1_556 S
C656   C663    1.417   .     A
C656   C81     1.420   1_556 S
C657   C662    1.417   .     A
C658   H675    1.111   .     S
C658   O704    1.413   .     S
C658   C659    1.521   .     S
C658   H740    1.115   .     S
C659   H679    1.111   .     S
C659   H677    1.111   .     S
C659   H1062   1.111   1_545 S
C660   O696    1.413   .     S
C660   H681    1.111   .     S
C660   C661    1.521   .     S
C661   H683    1.111   .     S
C661   H685    1.111   .     S
C661   H876    1.110   .     S
C662   C664    1.399   .     A
C662   H690    1.074   .     S
C663   H691    1.074   .     S
C663   C665    1.399   .     A
C665   C79     1.399   1_556 S
C665   O760    1.389   .     S
C666   C859    1.328   .     S
C666   H884    1.088   .     S
C667   C1050   1.328   1_545 S
C667   H1056   1.088   1_545 S
C668   O700    1.302   .     A
C668   O702    1.295   .     A
Cu669  O700    1.939   .     S
Cu669  Cu670   2.687   .     S
Cu669  O703    1.916   .     S
Cu669  N694    2.019   .     S
Cu669  O695    1.950   .     S
Cu669  O699    1.947   .     S
Cu670  O698    1.947   .     S
Cu670  N693    2.019   .     S
Cu670  O702    1.916   .     S
Cu670  O697    1.950   .     S
Cu670  O701    1.939   .     S
H672   C859    1.088   .     S
H674   N758    1.029   .     S
H678   C851    1.111   .     S
H680   C724    1.115   .     S
H684   C1045   1.110   1_545 S
H688   C709    1.083   .     S
H692   C1050   1.088   1_545 S
N693   H737    1.029   .     S
N693   N758    1.284   .     S
O704   C728    1.389   .     S
C705   O762    1.285   .     A
C705   C730    1.425   .     S
C705   O759    1.291   .     A
C706   C708    1.468   .     S
C706   O767    1.295   .     A
C706   O765    1.302   .     A
C707   C713    1.397   .     A
C707   C732    1.468   .     S
C707   C711    1.396   .     A
C708   C714    1.397   .     A
C708   C712    1.396   .     A
C709   C718    1.410   .     A
C709   C711    1.392   .     A
C710   C712    1.392   .     A
C710   C719    1.410   .     A
C710   H625    1.083   1_655 S
C711   H751    1.083   .     S
C712   H750    1.083   .     S
C713   C715    1.407   .     A
C713   H746    1.075   .     S
C714   H735    1.075   .     S
C714   C717    1.407   .     A
C715   C720    1.429   .     A
C715   C718    1.421   .     A
C716   O761    1.291   .     A
C716   C731    1.425   .     S
C716   O763    1.285   .     A
C717   C721    1.429   .     A
C717   C719    1.421   .     A
C718   C152    1.399   1_556 S
C720   C727    1.417   .     A
C720   C145    1.420   1_556 S
C721   C726    1.417   .     A
C722   H739    1.111   .     S
C722   O768    1.413   .     S
C722   C723    1.521   .     S
C722   H612    1.115   1_655 S
C723   H743    1.111   .     S
C723   H741    1.111   .     S
C723   H1126   1.111   1_545 S
C724   O760    1.413   .     S
C724   H745    1.111   .     S
C724   C725    1.521   .     S
C725   H747    1.111   .     S
C725   H749    1.111   .     S
C725   H940    1.110   .     S
C726   C728    1.399   .     A
C726   H754    1.074   .     S
C727   H755    1.074   .     S
C727   C729    1.399   .     A
C729   C143    1.399   1_556 S
C729   O632    1.389   1_655 S
C730   C923    1.328   .     S
C730   H948    1.088   .     S
C731   C1114   1.328   1_545 S
C731   H1120   1.088   1_545 S
C732   O764    1.302   .     A
C732   O766    1.295   .     A
Cu733  O764    1.939   .     S
Cu733  Cu734   2.687   .     S
Cu733  O767    1.916   .     S
Cu733  N758    2.019   .     S
Cu733  O759    1.950   .     S
Cu733  O763    1.947   .     S
Cu734  O762    1.947   .     S
Cu734  N757    2.019   .     S
Cu734  O766    1.916   .     S
Cu734  O761    1.950   .     S
Cu734  O765    1.939   .     S
H736   C923    1.088   .     S
H738   N630    1.029   1_655 S
H742   C915    1.111   .     S
H744   C596    1.115   1_655 S
H748   C1109   1.110   1_545 S
H752   C581    1.083   1_655 S
H756   C1114   1.088   1_545 S
N757   H609    1.029   1_655 S
N757   N630    1.284   1_655 S
O768   C600    1.389   1_655 S
C769   O826    1.285   .     A
C769   C794    1.425   .     S
C769   O823    1.291   .     A
C770   C772    1.468   .     S
C770   O831    1.295   .     A
C770   O829    1.302   .     A
C771   C777    1.397   .     A
C771   C796    1.468   .     S
C771   C775    1.396   .     A
C772   C778    1.397   .     A
C772   C776    1.396   .     A
C773   C782    1.410   .     A
C773   C775    1.392   .     A
C773   H944    1.083   1_455 S
C774   C776    1.392   .     A
C774   C783    1.410   .     A
C774   H881    1.083   .     S
C775   H815    1.083   .     S
C776   H814    1.083   .     S
C777   C779    1.407   .     A
C777   H810    1.075   .     S
C778   H799    1.075   .     S
C778   C781    1.407   .     A
C779   C784    1.429   .     A
C779   C782    1.421   .     A
C780   O825    1.291   .     A
C780   C795    1.425   .     S
C780   O827    1.285   .     A
C781   C785    1.429   .     A
C781   C783    1.421   .     A
C782   C216    1.399   1_556 S
C784   C791    1.417   .     A
C784   C209    1.420   1_556 S
C785   C790    1.417   .     A
C786   H803    1.111   .     S
C786   O832    1.413   .     S
C786   C787    1.521   .     S
C786   H868    1.115   .     S
C787   H807    1.111   .     S
C787   H805    1.111   .     S
C788   O824    1.413   .     S
C788   H809    1.111   .     S
C788   C789    1.521   .     S
C788   H936    1.115   1_455 S
C789   H811    1.111   .     S
C789   H813    1.111   .     S
C789   H1004   1.110   .     S
C790   C792    1.399   .     A
C790   H818    1.074   .     S
C791   H819    1.074   .     S
C791   C793    1.399   .     A
C792   O960    1.389   1_455 S
C793   C207    1.399   1_556 S
C793   O888    1.389   .     S
C794   C987    1.328   .     S
C794   H1012   1.088   .     S
C796   O828    1.302   .     A
C796   O830    1.295   .     A
Cu797  O828    1.939   .     S
Cu797  Cu798   2.687   .     S
Cu797  O831    1.916   .     S
Cu797  N822    2.019   .     S
Cu797  O823    1.950   .     S
Cu797  O827    1.947   .     S
Cu798  O826    1.947   .     S
Cu798  N821    2.019   .     S
Cu798  O830    1.916   .     S
Cu798  O825    1.950   .     S
Cu798  O829    1.939   .     S
H800   C987    1.088   .     S
H801   N949    1.029   1_455 S
H802   N886    1.029   .     S
H804   C914    1.115   1_455 S
H806   C979    1.111   .     S
H808   C852    1.115   .     S
H816   C837    1.083   .     S
H817   C902    1.083   1_455 S
N821   H865    1.029   .     S
N821   N886    1.284   .     S
N822   H930    1.029   1_455 S
N822   N949    1.284   1_455 S
O824   C921    1.389   1_455 S
O832   C856    1.389   .     S
C833   O890    1.285   .     A
C833   C858    1.425   .     S
C833   O887    1.291   .     A
C834   C836    1.468   .     S
C834   O895    1.295   .     A
C834   O893    1.302   .     A
C835   C841    1.397   .     A
C835   C860    1.468   .     S
C835   C839    1.396   .     A
C836   C842    1.397   .     A
C836   C840    1.396   .     A
C837   C846    1.410   .     A
C837   C839    1.392   .     A
C838   C840    1.392   .     A
C838   C847    1.410   .     A
C838   H945    1.083   .     S
C839   H879    1.083   .     S
C840   H878    1.083   .     S
C841   C843    1.407   .     A
C841   H874    1.075   .     S
C842   H863    1.075   .     S
C842   C845    1.407   .     A
C843   C848    1.429   .     A
C843   C846    1.421   .     A
C844   O889    1.291   .     A
C844   C859    1.425   .     S
C844   O891    1.285   .     A
C845   C849    1.429   .     A
C845   C847    1.421   .     A
C846   C280    1.399   1_556 S
C848   C855    1.417   .     A
C848   C273    1.420   1_556 S
C849   C854    1.417   .     A
C850   H867    1.111   .     S
C850   O896    1.413   .     S
C850   C851    1.521   .     S
C850   H932    1.115   .     S
C851   H871    1.111   .     S
C851   H869    1.111   .     S
C852   O888    1.413   .     S
C852   H873    1.111   .     S
C852   C853    1.521   .     S
C853   H875    1.111   .     S
C853   H877    1.111   .     S
C853   H1068   1.110   .     S
C854   C856    1.399   .     A
C854   H882    1.074   .     S
C855   H883    1.074   .     S
C855   C857    1.399   .     A
C857   C271    1.399   1_556 S
C857   O952    1.389   .     S
C858   C1051   1.328   .     S
C858   H1076   1.088   .     S
C860   O892    1.302   .     A
C860   O894    1.295   .     A
Cu861  O892    1.939   .     S
Cu861  Cu862   2.687   .     S
Cu861  O895    1.916   .     S
Cu861  N886    2.019   .     S
Cu861  O887    1.950   .     S
Cu861  O891    1.947   .     S
Cu862  O890    1.947   .     S
Cu862  N885    2.019   .     S
Cu862  O894    1.916   .     S
Cu862  O889    1.950   .     S
Cu862  O893    1.939   .     S
H864   C1051   1.088   .     S
H866   N950    1.029   .     S
H870   C1043   1.111   .     S
H872   C916    1.115   .     S
H880   C901    1.083   .     S
N885   H929    1.029   .     S
N885   N950    1.284   .     S
O896   C920    1.389   .     S
C897   O954    1.285   .     A
C897   C922    1.425   .     S
C897   O951    1.291   .     A
C898   C900    1.468   .     S
C898   O959    1.295   .     A
C898   O957    1.302   .     A
C899   C905    1.397   .     A
C899   C924    1.468   .     S
C899   C903    1.396   .     A
C900   C906    1.397   .     A
C900   C904    1.396   .     A
C901   C910    1.410   .     A
C901   C903    1.392   .     A
C902   C904    1.392   .     A
C902   C911    1.410   .     A
C902   H817    1.083   1_655 S
C903   H943    1.083   .     S
C904   H942    1.083   .     S
C905   C907    1.407   .     A
C905   H938    1.075   .     S
C906   H927    1.075   .     S
C906   C909    1.407   .     A
C907   C912    1.429   .     A
C907   C910    1.421   .     A
C908   O953    1.291   .     A
C908   C923    1.425   .     S
C908   O955    1.285   .     A
C909   C913    1.429   .     A
C909   C911    1.421   .     A
C910   C344    1.399   1_556 S
C912   C919    1.417   .     A
C912   C337    1.420   1_556 S
C913   C918    1.417   .     A
C914   H931    1.111   .     S
C914   O960    1.413   .     S
C914   C915    1.521   .     S
C914   H804    1.115   1_655 S
C915   H935    1.111   .     S
C915   H933    1.111   .     S
C916   O952    1.413   .     S
C916   H937    1.111   .     S
C916   C917    1.521   .     S
C917   H939    1.111   .     S
C917   H941    1.111   .     S
C917   H1132   1.110   .     S
C918   C920    1.399   .     A
C918   H946    1.074   .     S
C919   H947    1.074   .     S
C919   C921    1.399   .     A
C921   C335    1.399   1_556 S
C921   O824    1.389   1_655 S
C922   C1115   1.328   .     S
C922   H1140   1.088   .     S
C924   O956    1.302   .     A
C924   O958    1.295   .     A
Cu925  O956    1.939   .     S
Cu925  Cu926   2.687   .     S
Cu925  O959    1.916   .     S
Cu925  N950    2.019   .     S
Cu925  O951    1.950   .     S
Cu925  O955    1.947   .     S
Cu926  O954    1.947   .     S
Cu926  N949    2.019   .     S
Cu926  O958    1.916   .     S
Cu926  O953    1.950   .     S
Cu926  O957    1.939   .     S
H928   C1115   1.088   .     S
H930   N822    1.029   1_655 S
H934   C1107   1.111   .     S
H936   C788    1.115   1_655 S
H944   C773    1.083   1_655 S
N949   H801    1.029   1_655 S
N949   N822    1.284   1_655 S
O960   C792    1.389   1_655 S
C961   O1018   1.285   .     A
C961   C986    1.425   .     S
C961   O1015   1.291   .     A
C962   C964    1.468   .     S
C962   O1023   1.295   .     A
C962   O1021   1.302   .     A
C963   C969    1.397   .     A
C963   C988    1.468   .     S
C963   C967    1.396   .     A
C964   C970    1.397   .     A
C964   C968    1.396   .     A
C965   C974    1.410   .     A
C965   C967    1.392   .     A
C965   H1136   1.083   1_455 S
C966   C968    1.392   .     A
C966   C975    1.410   .     A
C966   H1073   1.083   .     S
C967   H1007   1.083   .     S
C968   H1006   1.083   .     S
C969   C971    1.407   .     A
C969   H1002   1.075   .     S
C970   H991    1.075   .     S
C970   C973    1.407   .     A
C971   C976    1.429   .     A
C971   C974    1.421   .     A
C972   O1017   1.291   .     A
C972   C987    1.425   .     S
C972   O1019   1.285   .     A
C973   C977    1.429   .     A
C973   C975    1.421   .     A
C974   C408    1.399   1_556 S
C976   C983    1.417   .     A
C976   C401    1.420   1_556 S
C977   C982    1.417   .     A
C978   H995    1.111   .     S
C978   O1024   1.413   .     S
C978   C979    1.521   .     S
C978   H1060   1.115   .     S
C979   H999    1.111   .     S
C979   H997    1.111   .     S
C980   O1016   1.413   .     S
C980   H1001   1.111   .     S
C980   C981    1.521   .     S
C980   H1128   1.115   1_455 S
C981   H1003   1.111   .     S
C981   H1005   1.111   .     S
C981   H620    1.110   1_565 S
C982   C984    1.399   .     A
C982   H1010   1.074   .     S
C983   H1011   1.074   .     S
C983   C985    1.399   .     A
C984   O1152   1.389   1_455 S
C985   C399    1.399   1_556 S
C985   O1080   1.389   .     S
C986   C603    1.328   1_565 S
C986   H628    1.088   1_565 S
C988   O1020   1.302   .     A
C988   O1022   1.295   .     A
Cu989  O1020   1.939   .     S
Cu989  Cu990   2.687   .     S
Cu989  O1023   1.916   .     S
Cu989  N1014   2.019   .     S
Cu989  O1015   1.950   .     S
Cu989  O1019   1.947   .     S
Cu990  O1018   1.947   .     S
Cu990  N1013   2.019   .     S
Cu990  O1022   1.916   .     S
Cu990  O1017   1.950   .     S
Cu990  O1021   1.939   .     S
H992   C603    1.088   1_565 S
H993   N1141   1.029   1_455 S
H994   N1078   1.029   .     S
H996   C1106   1.115   1_455 S
H998   C595    1.111   1_565 S
H1000  C1044   1.115   .     S
H1008  C1029   1.083   .     S
H1009  C1094   1.083   1_455 S
N1013  H1057   1.029   .     S
N1013  N1078   1.284   .     S
N1014  H1122   1.029   1_455 S
N1014  N1141   1.284   1_455 S
O1016  C1113   1.389   1_455 S
O1024  C1048   1.389   .     S
C1025  O1082   1.285   .     A
C1025  C1050   1.425   .     S
C1025  O1079   1.291   .     A
C1026  C1028   1.468   .     S
C1026  O1087   1.295   .     A
C1026  O1085   1.302   .     A
C1027  C1033   1.397   .     A
C1027  C1052   1.468   .     S
C1027  C1031   1.396   .     A
C1028  C1034   1.397   .     A
C1028  C1032   1.396   .     A
C1029  C1038   1.410   .     A
C1029  C1031   1.392   .     A
C1030  C1032   1.392   .     A
C1030  C1039   1.410   .     A
C1030  H1137   1.083   .     S
C1031  H1071   1.083   .     S
C1032  H1070   1.083   .     S
C1033  C1035   1.407   .     A
C1033  H1066   1.075   .     S
C1034  H1055   1.075   .     S
C1034  C1037   1.407   .     A
C1035  C1040   1.429   .     A
C1035  C1038   1.421   .     A
C1036  O1081   1.291   .     A
C1036  C1051   1.425   .     S
C1036  O1083   1.285   .     A
C1037  C1041   1.429   .     A
C1037  C1039   1.421   .     A
C1038  C472    1.399   1_556 S
C1040  C1047   1.417   .     A
C1040  C465    1.420   1_556 S
C1041  C1046   1.417   .     A
C1042  H1059   1.111   .     S
C1042  O1088   1.413   .     S
C1042  C1043   1.521   .     S
C1042  H1124   1.115   .     S
C1043  H1063   1.111   .     S
C1043  H1061   1.111   .     S
C1044  O1080   1.413   .     S
C1044  H1065   1.111   .     S
C1044  C1045   1.521   .     S
C1045  H1067   1.111   .     S
C1045  H1069   1.111   .     S
C1045  H684    1.110   1_565 S
C1046  C1048   1.399   .     A
C1046  H1074   1.074   .     S
C1047  H1075   1.074   .     S
C1047  C1049   1.399   .     A
C1049  C463    1.399   1_556 S
C1049  O1144   1.389   .     S
C1050  C667    1.328   1_565 S
C1050  H692    1.088   1_565 S
C1052  O1084   1.302   .     A
C1052  O1086   1.295   .     A
Cu1053 O1084   1.939   .     S
Cu1053 Cu1054  2.687   .     S
Cu1053 O1087   1.916   .     S
Cu1053 N1078   2.019   .     S
Cu1053 O1079   1.950   .     S
Cu1053 O1083   1.947   .     S
Cu1054 O1082   1.947   .     S
Cu1054 N1077   2.019   .     S
Cu1054 O1086   1.916   .     S
Cu1054 O1081   1.950   .     S
Cu1054 O1085   1.939   .     S
H1056  C667    1.088   1_565 S
H1058  N1142   1.029   .     S
H1062  C659    1.111   1_565 S
H1064  C1108   1.115   .     S
H1072  C1093   1.083   .     S
N1077  H1121   1.029   .     S
N1077  N1142   1.284   .     S
O1088  C1112   1.389   .     S
C1089  O1146   1.285   .     A
C1089  C1114   1.425   .     S
C1089  O1143   1.291   .     A
C1090  C1092   1.468   .     S
C1090  O1151   1.295   .     A
C1090  O1149   1.302   .     A
C1091  C1097   1.397   .     A
C1091  C1116   1.468   .     S
C1091  C1095   1.396   .     A
C1092  C1098   1.397   .     A
C1092  C1096   1.396   .     A
C1093  C1102   1.410   .     A
C1093  C1095   1.392   .     A
C1094  C1096   1.392   .     A
C1094  C1103   1.410   .     A
C1094  H1009   1.083   1_655 S
C1095  H1135   1.083   .     S
C1096  H1134   1.083   .     S
C1097  C1099   1.407   .     A
C1097  H1130   1.075   .     S
C1098  H1119   1.075   .     S
C1098  C1101   1.407   .     A
C1099  C1104   1.429   .     A
C1099  C1102   1.421   .     A
C1100  O1145   1.291   .     A
C1100  C1115   1.425   .     S
C1100  O1147   1.285   .     A
C1101  C1105   1.429   .     A
C1101  C1103   1.421   .     A
C1102  C536    1.399   1_556 S
C1104  C1111   1.417   .     A
C1104  C529    1.420   1_556 S
C1105  C1110   1.417   .     A
C1106  H1123   1.111   .     S
C1106  O1152   1.413   .     S
C1106  C1107   1.521   .     S
C1106  H996    1.115   1_655 S
C1107  H1127   1.111   .     S
C1107  H1125   1.111   .     S
C1108  O1144   1.413   .     S
C1108  H1129   1.111   .     S
C1108  C1109   1.521   .     S
C1109  H1131   1.111   .     S
C1109  H1133   1.111   .     S
C1109  H748    1.110   1_565 S
C1110  C1112   1.399   .     A
C1110  H1138   1.074   .     S
C1111  H1139   1.074   .     S
C1111  C1113   1.399   .     A
C1113  C527    1.399   1_556 S
C1113  O1016   1.389   1_655 S
C1114  C731    1.328   1_565 S
C1114  H756    1.088   1_565 S
C1116  O1148   1.302   .     A
C1116  O1150   1.295   .     A
Cu1117 O1148   1.939   .     S
Cu1117 Cu1118  2.687   .     S
Cu1117 O1151   1.916   .     S
Cu1117 N1142   2.019   .     S
Cu1117 O1143   1.950   .     S
Cu1117 O1147   1.947   .     S
Cu1118 O1146   1.947   .     S
Cu1118 N1141   2.019   .     S
Cu1118 O1150   1.916   .     S
Cu1118 O1145   1.950   .     S
Cu1118 O1149   1.939   .     S
H1120  C731    1.088   1_565 S
H1122  N1014   1.029   1_655 S
H1126  C723    1.111   1_565 S
H1128  C980    1.115   1_655 S
H1136  C965    1.083   1_655 S
N1141  H993    1.029   1_655 S
N1141  N1014   1.284   1_655 S
O1152  C984    1.389   1_655 S
