data_str_m2_o1_o2_pcu_sym.120
_audit_creation_date              2020-01-03
_audit_creation_method            'Materials Studio'
_symmetry_space_group_name_H-M    'P1'
_symmetry_Int_Tables_number       1
_symmetry_cell_setting            triclinic
loop_
_symmetry_equiv_pos_as_xyz
  x,y,z
_cell_length_a                    32.4870
_cell_length_b                    28.8013
_cell_length_c                    30.1834
_cell_angle_alpha                 90.0014
_cell_angle_beta                  91.9289
_cell_angle_gamma                 89.9997
loop_
_atom_site_label
_atom_site_type_symbol
_atom_site_fract_x
_atom_site_fract_y
_atom_site_fract_z
_atom_site_U_iso_or_equiv
_atom_site_adp_type
_atom_site_occupancy
C1     C     0.08743   0.16667   0.24995   0.00000  Uiso   1.00
C2     C     0.24590   0.16667   0.25005   0.00000  Uiso   1.00
C3     C     0.16661   0.16663   0.16507   0.00000  Uiso   1.00
C4     C     0.16672   0.16663   0.33493   0.00000  Uiso   1.00
C5     C     0.14050   0.02471   0.22210   0.00000  Uiso   1.00
C6     C     0.19299   0.30867   0.27772   0.00000  Uiso   1.00
C7     C     0.19284   0.02471   0.27790   0.00000  Uiso   1.00
C8     C     0.14035   0.30867   0.22228   0.00000  Uiso   1.00
C9     C     0.02129   0.12447   0.25000   0.00000  Uiso   1.00
C10    C     0.31204   0.20885   0.24999   0.00000  Uiso   1.00
C11    C     0.31204   0.12448   0.25000   0.00000  Uiso   1.00
C12    C     0.02129   0.20885   0.25001   0.00000  Uiso   1.00
C13    C     0.14377   0.19948   0.04654   0.00000  Uiso   1.00
C14    C     0.14429   0.13194   0.45144   0.00000  Uiso   1.00
C15    C     0.18936   0.19969   0.45345   0.00000  Uiso   1.00
C16    C     0.18936   0.13216   0.04860   0.00000  Uiso   1.00
C17    C     0.14442   0.20003   0.09265   0.00000  Uiso   1.00
C18    C     0.14483   0.13208   0.40534   0.00000  Uiso   1.00
C19    C     0.18869   0.20024   0.40734   0.00000  Uiso   1.00
C20    C     0.18879   0.13229   0.09470   0.00000  Uiso   1.00
C21    C     0.16667   0.16641   0.11681   0.00000  Uiso   1.00
C22    C     0.16668   0.16640   0.38320   0.00000  Uiso   1.00
C23    C     0.16659   0.16569   0.02428   0.00000  Uiso   1.00
C24    C     0.16682   0.16568   0.47574   0.00000  Uiso   1.00
C25    C     0.29056   0.16666   0.25002   0.00000  Uiso   1.00
C26    C     0.04278   0.16666   0.24998   0.00000  Uiso   1.00
Cu27   Cu    0.16667   0.21355   0.25000   0.00000  Uiso   1.00
Cu28   Cu    0.16667   0.11978   0.25000   0.00000  Uiso   1.00
H29    H     0.12680   0.22607   0.10955   0.00000  Uiso   1.00
H30    H     0.12750   0.10601   0.38675   0.00000  Uiso   1.00
H31    H     0.20608   0.22647   0.39044   0.00000  Uiso   1.00
H32    H     0.20629   0.10638   0.11330   0.00000  Uiso   1.00
H33    H     0.03728   0.09147   0.25003   0.00000  Uiso   1.00
H34    H     0.29606   0.24185   0.24994   0.00000  Uiso   1.00
H35    H     0.29606   0.09147   0.24996   0.00000  Uiso   1.00
H36    H     0.03727   0.24185   0.25006   0.00000  Uiso   1.00
N37    N     0.16667   0.28402   0.25000   0.00000  Uiso   1.00
N38    N     0.16667   0.04931   0.25000   0.00000  Uiso   1.00
O39    O     0.10655   0.20625   0.24999   0.00000  Uiso   1.00
O40    O     0.22679   0.12709   0.25000   0.00000  Uiso   1.00
O41    O     0.22679   0.20625   0.25000   0.00000  Uiso   1.00
O42    O     0.10655   0.12709   0.24999   0.00000  Uiso   1.00
O43    O     0.16666   0.20626   0.18573   0.00000  Uiso   1.00
O44    O     0.16667   0.12707   0.31427   0.00000  Uiso   1.00
O45    O     0.16667   0.20626   0.31427   0.00000  Uiso   1.00
O46    O     0.16666   0.12707   0.18573   0.00000  Uiso   1.00
Cl47   Cl    0.10633   0.05395   0.18506   0.00000  Uiso   1.00
Cl48   Cl    0.22792   0.27958   0.31392   0.00000  Uiso   1.00
Cl49   Cl    0.22700   0.05395   0.31494   0.00000  Uiso   1.00
Cl50   Cl    0.10542   0.27957   0.18607   0.00000  Uiso   1.00
Cl51   Cl    0.11351   0.24110   0.01765   0.00000  Uiso   1.00
Cl52   Cl    0.11443   0.08965   0.47772   0.00000  Uiso   1.00
Cl53   Cl    0.21926   0.24165   0.48232   0.00000  Uiso   1.00
Cl54   Cl    0.21951   0.09012   0.02235   0.00000  Uiso   1.00
C55    C     0.42077   0.16667   0.24995   0.00000  Uiso   1.00
C56    C     0.57923   0.16667   0.25005   0.00000  Uiso   1.00
C57    C     0.49994   0.16663   0.16507   0.00000  Uiso   1.00
C58    C     0.50005   0.16663   0.33493   0.00000  Uiso   1.00
C59    C     0.47383   0.02471   0.22210   0.00000  Uiso   1.00
C60    C     0.52632   0.30867   0.27772   0.00000  Uiso   1.00
C61    C     0.52617   0.02471   0.27790   0.00000  Uiso   1.00
C62    C     0.47368   0.30867   0.22228   0.00000  Uiso   1.00
C63    C     0.35463   0.12447   0.25000   0.00000  Uiso   1.00
C64    C     0.64538   0.20885   0.24999   0.00000  Uiso   1.00
C65    C     0.64537   0.12448   0.25000   0.00000  Uiso   1.00
C66    C     0.35463   0.20885   0.25001   0.00000  Uiso   1.00
C67    C     0.47710   0.19948   0.04654   0.00000  Uiso   1.00
C68    C     0.47762   0.13194   0.45144   0.00000  Uiso   1.00
C69    C     0.52270   0.19969   0.45345   0.00000  Uiso   1.00
C70    C     0.52269   0.13216   0.04860   0.00000  Uiso   1.00
C71    C     0.47775   0.20003   0.09265   0.00000  Uiso   1.00
C72    C     0.47817   0.13208   0.40534   0.00000  Uiso   1.00
C73    C     0.52202   0.20024   0.40734   0.00000  Uiso   1.00
C74    C     0.52212   0.13229   0.09470   0.00000  Uiso   1.00
C75    C     0.50000   0.16641   0.11681   0.00000  Uiso   1.00
C76    C     0.50002   0.16640   0.38320   0.00000  Uiso   1.00
C77    C     0.49992   0.16569   0.02428   0.00000  Uiso   1.00
C78    C     0.50016   0.16568   0.47574   0.00000  Uiso   1.00
C79    C     0.62389   0.16666   0.25002   0.00000  Uiso   1.00
C80    C     0.37611   0.16666   0.24998   0.00000  Uiso   1.00
Cu81   Cu    0.50000   0.21355   0.25000   0.00000  Uiso   1.00
Cu82   Cu    0.50000   0.11978   0.25000   0.00000  Uiso   1.00
H83    H     0.46013   0.22607   0.10955   0.00000  Uiso   1.00
H84    H     0.46083   0.10601   0.38675   0.00000  Uiso   1.00
H85    H     0.53941   0.22647   0.39044   0.00000  Uiso   1.00
H86    H     0.53963   0.10638   0.11330   0.00000  Uiso   1.00
H87    H     0.37061   0.09147   0.25003   0.00000  Uiso   1.00
H88    H     0.62940   0.24185   0.24994   0.00000  Uiso   1.00
H89    H     0.62939   0.09147   0.24996   0.00000  Uiso   1.00
H90    H     0.37060   0.24185   0.25006   0.00000  Uiso   1.00
N91    N     0.50000   0.28402   0.25000   0.00000  Uiso   1.00
N92    N     0.50000   0.04931   0.25000   0.00000  Uiso   1.00
O93    O     0.43988   0.20625   0.24999   0.00000  Uiso   1.00
O94    O     0.56012   0.12709   0.25000   0.00000  Uiso   1.00
O95    O     0.56012   0.20625   0.25000   0.00000  Uiso   1.00
O96    O     0.43988   0.12709   0.24999   0.00000  Uiso   1.00
O97    O     0.50000   0.20626   0.18573   0.00000  Uiso   1.00
O98    O     0.50000   0.12707   0.31427   0.00000  Uiso   1.00
O99    O     0.50000   0.20626   0.31427   0.00000  Uiso   1.00
O100   O     0.50000   0.12707   0.18573   0.00000  Uiso   1.00
Cl101  Cl    0.43967   0.05395   0.18506   0.00000  Uiso   1.00
Cl102  Cl    0.56126   0.27958   0.31392   0.00000  Uiso   1.00
Cl103  Cl    0.56033   0.05395   0.31494   0.00000  Uiso   1.00
Cl104  Cl    0.43875   0.27957   0.18607   0.00000  Uiso   1.00
Cl105  Cl    0.44684   0.24110   0.01765   0.00000  Uiso   1.00
Cl106  Cl    0.44777   0.08965   0.47772   0.00000  Uiso   1.00
Cl107  Cl    0.55260   0.24165   0.48232   0.00000  Uiso   1.00
Cl108  Cl    0.55284   0.09012   0.02235   0.00000  Uiso   1.00
C109   C     0.75410   0.16667   0.24995   0.00000  Uiso   1.00
C110   C     0.91257   0.16667   0.25005   0.00000  Uiso   1.00
C111   C     0.83328   0.16663   0.16507   0.00000  Uiso   1.00
C112   C     0.83339   0.16663   0.33493   0.00000  Uiso   1.00
C113   C     0.80717   0.02471   0.22210   0.00000  Uiso   1.00
C114   C     0.85966   0.30867   0.27772   0.00000  Uiso   1.00
C115   C     0.85950   0.02471   0.27790   0.00000  Uiso   1.00
C116   C     0.80701   0.30867   0.22228   0.00000  Uiso   1.00
C117   C     0.68796   0.12447   0.25000   0.00000  Uiso   1.00
C118   C     0.97871   0.20885   0.24999   0.00000  Uiso   1.00
C119   C     0.97871   0.12448   0.25000   0.00000  Uiso   1.00
C120   C     0.68796   0.20885   0.25001   0.00000  Uiso   1.00
C121   C     0.81043   0.19948   0.04654   0.00000  Uiso   1.00
C122   C     0.81096   0.13194   0.45144   0.00000  Uiso   1.00
C123   C     0.85603   0.19969   0.45345   0.00000  Uiso   1.00
C124   C     0.85603   0.13216   0.04860   0.00000  Uiso   1.00
C125   C     0.81108   0.20003   0.09265   0.00000  Uiso   1.00
C126   C     0.81150   0.13208   0.40534   0.00000  Uiso   1.00
C127   C     0.85535   0.20024   0.40734   0.00000  Uiso   1.00
C128   C     0.85545   0.13229   0.09470   0.00000  Uiso   1.00
C129   C     0.83333   0.16641   0.11681   0.00000  Uiso   1.00
C130   C     0.83335   0.16640   0.38320   0.00000  Uiso   1.00
C131   C     0.83326   0.16569   0.02428   0.00000  Uiso   1.00
C132   C     0.83349   0.16568   0.47574   0.00000  Uiso   1.00
C133   C     0.95722   0.16666   0.25002   0.00000  Uiso   1.00
C134   C     0.70944   0.16666   0.24998   0.00000  Uiso   1.00
Cu135  Cu    0.83333   0.21355   0.25000   0.00000  Uiso   1.00
Cu136  Cu    0.83333   0.11978   0.25000   0.00000  Uiso   1.00
H137   H     0.79346   0.22607   0.10955   0.00000  Uiso   1.00
H138   H     0.79417   0.10601   0.38675   0.00000  Uiso   1.00
H139   H     0.87275   0.22647   0.39044   0.00000  Uiso   1.00
H140   H     0.87296   0.10638   0.11330   0.00000  Uiso   1.00
H141   H     0.70394   0.09147   0.25003   0.00000  Uiso   1.00
H142   H     0.96273   0.24185   0.24994   0.00000  Uiso   1.00
H143   H     0.96272   0.09147   0.24996   0.00000  Uiso   1.00
H144   H     0.70394   0.24185   0.25006   0.00000  Uiso   1.00
N145   N     0.83333   0.28402   0.25000   0.00000  Uiso   1.00
N146   N     0.83333   0.04931   0.25000   0.00000  Uiso   1.00
O147   O     0.77321   0.20625   0.24999   0.00000  Uiso   1.00
O148   O     0.89345   0.12709   0.25000   0.00000  Uiso   1.00
O149   O     0.89345   0.20625   0.25000   0.00000  Uiso   1.00
O150   O     0.77321   0.12709   0.24999   0.00000  Uiso   1.00
O151   O     0.83333   0.20626   0.18573   0.00000  Uiso   1.00
O152   O     0.83334   0.12707   0.31427   0.00000  Uiso   1.00
O153   O     0.83334   0.20626   0.31427   0.00000  Uiso   1.00
O154   O     0.83333   0.12707   0.18573   0.00000  Uiso   1.00
Cl155  Cl    0.77300   0.05395   0.18506   0.00000  Uiso   1.00
Cl156  Cl    0.89459   0.27958   0.31392   0.00000  Uiso   1.00
Cl157  Cl    0.89367   0.05395   0.31494   0.00000  Uiso   1.00
Cl158  Cl    0.77209   0.27957   0.18607   0.00000  Uiso   1.00
Cl159  Cl    0.78018   0.24110   0.01765   0.00000  Uiso   1.00
Cl160  Cl    0.78110   0.08965   0.47772   0.00000  Uiso   1.00
Cl161  Cl    0.88593   0.24165   0.48232   0.00000  Uiso   1.00
Cl162  Cl    0.88617   0.09012   0.02235   0.00000  Uiso   1.00
C163   C     0.08743   0.50000   0.24995   0.00000  Uiso   1.00
C164   C     0.24590   0.50000   0.25005   0.00000  Uiso   1.00
C165   C     0.16661   0.49997   0.16507   0.00000  Uiso   1.00
C166   C     0.16672   0.49997   0.33493   0.00000  Uiso   1.00
C167   C     0.14050   0.35804   0.22210   0.00000  Uiso   1.00
C168   C     0.19299   0.64201   0.27772   0.00000  Uiso   1.00
C169   C     0.19284   0.35804   0.27790   0.00000  Uiso   1.00
C170   C     0.14035   0.64200   0.22228   0.00000  Uiso   1.00
C171   C     0.02129   0.45781   0.25000   0.00000  Uiso   1.00
C172   C     0.31204   0.54218   0.24999   0.00000  Uiso   1.00
C173   C     0.31204   0.45781   0.25000   0.00000  Uiso   1.00
C174   C     0.02129   0.54218   0.25001   0.00000  Uiso   1.00
C175   C     0.14377   0.53281   0.04654   0.00000  Uiso   1.00
C176   C     0.14429   0.46528   0.45144   0.00000  Uiso   1.00
C177   C     0.18936   0.53302   0.45345   0.00000  Uiso   1.00
C178   C     0.18936   0.46549   0.04860   0.00000  Uiso   1.00
C179   C     0.14442   0.53336   0.09265   0.00000  Uiso   1.00
C180   C     0.14483   0.46542   0.40534   0.00000  Uiso   1.00
C181   C     0.18869   0.53358   0.40734   0.00000  Uiso   1.00
C182   C     0.18879   0.46563   0.09470   0.00000  Uiso   1.00
C183   C     0.16667   0.49974   0.11681   0.00000  Uiso   1.00
C184   C     0.16668   0.49974   0.38320   0.00000  Uiso   1.00
C185   C     0.16659   0.49903   0.02428   0.00000  Uiso   1.00
C186   C     0.16682   0.49902   0.47574   0.00000  Uiso   1.00
C187   C     0.29056   0.50000   0.25002   0.00000  Uiso   1.00
C188   C     0.04278   0.49999   0.24998   0.00000  Uiso   1.00
Cu189  Cu    0.16667   0.54689   0.25000   0.00000  Uiso   1.00
Cu190  Cu    0.16667   0.45311   0.25000   0.00000  Uiso   1.00
H191   H     0.12680   0.55941   0.10955   0.00000  Uiso   1.00
H192   H     0.12750   0.43934   0.38675   0.00000  Uiso   1.00
H193   H     0.20608   0.55981   0.39044   0.00000  Uiso   1.00
H194   H     0.20629   0.43971   0.11330   0.00000  Uiso   1.00
H195   H     0.03728   0.42481   0.25003   0.00000  Uiso   1.00
H196   H     0.29606   0.57518   0.24994   0.00000  Uiso   1.00
H197   H     0.29606   0.42481   0.24996   0.00000  Uiso   1.00
H198   H     0.03727   0.57518   0.25006   0.00000  Uiso   1.00
N199   N     0.16667   0.61736   0.25000   0.00000  Uiso   1.00
N200   N     0.16667   0.38264   0.25000   0.00000  Uiso   1.00
O201   O     0.10655   0.53958   0.24999   0.00000  Uiso   1.00
O202   O     0.22679   0.46042   0.25000   0.00000  Uiso   1.00
O203   O     0.22679   0.53958   0.25000   0.00000  Uiso   1.00
O204   O     0.10655   0.46042   0.24999   0.00000  Uiso   1.00
O205   O     0.16666   0.53959   0.18573   0.00000  Uiso   1.00
O206   O     0.16667   0.46041   0.31427   0.00000  Uiso   1.00
O207   O     0.16667   0.53959   0.31427   0.00000  Uiso   1.00
O208   O     0.16666   0.46041   0.18573   0.00000  Uiso   1.00
Cl209  Cl    0.10633   0.38728   0.18506   0.00000  Uiso   1.00
Cl210  Cl    0.22792   0.61291   0.31392   0.00000  Uiso   1.00
Cl211  Cl    0.22700   0.38729   0.31494   0.00000  Uiso   1.00
Cl212  Cl    0.10542   0.61290   0.18607   0.00000  Uiso   1.00
Cl213  Cl    0.11351   0.57443   0.01765   0.00000  Uiso   1.00
Cl214  Cl    0.11443   0.42298   0.47772   0.00000  Uiso   1.00
Cl215  Cl    0.21926   0.57498   0.48232   0.00000  Uiso   1.00
Cl216  Cl    0.21951   0.42345   0.02235   0.00000  Uiso   1.00
C217   C     0.42077   0.50000   0.24995   0.00000  Uiso   1.00
C218   C     0.57923   0.50000   0.25005   0.00000  Uiso   1.00
C219   C     0.49994   0.49997   0.16507   0.00000  Uiso   1.00
C220   C     0.50005   0.49997   0.33493   0.00000  Uiso   1.00
C221   C     0.47383   0.35804   0.22210   0.00000  Uiso   1.00
C222   C     0.52632   0.64201   0.27772   0.00000  Uiso   1.00
C223   C     0.52617   0.35804   0.27790   0.00000  Uiso   1.00
C224   C     0.47368   0.64200   0.22228   0.00000  Uiso   1.00
C225   C     0.35463   0.45781   0.25000   0.00000  Uiso   1.00
C226   C     0.64538   0.54218   0.24999   0.00000  Uiso   1.00
C227   C     0.64537   0.45781   0.25000   0.00000  Uiso   1.00
C228   C     0.35463   0.54218   0.25001   0.00000  Uiso   1.00
C229   C     0.47710   0.53281   0.04654   0.00000  Uiso   1.00
C230   C     0.47762   0.46528   0.45144   0.00000  Uiso   1.00
C231   C     0.52270   0.53302   0.45345   0.00000  Uiso   1.00
C232   C     0.52269   0.46549   0.04860   0.00000  Uiso   1.00
C233   C     0.47775   0.53336   0.09265   0.00000  Uiso   1.00
C234   C     0.47817   0.46542   0.40534   0.00000  Uiso   1.00
C235   C     0.52202   0.53358   0.40734   0.00000  Uiso   1.00
C236   C     0.52212   0.46563   0.09470   0.00000  Uiso   1.00
C237   C     0.50000   0.49974   0.11681   0.00000  Uiso   1.00
C238   C     0.50002   0.49974   0.38320   0.00000  Uiso   1.00
C239   C     0.49992   0.49903   0.02428   0.00000  Uiso   1.00
C240   C     0.50016   0.49902   0.47574   0.00000  Uiso   1.00
C241   C     0.62389   0.50000   0.25002   0.00000  Uiso   1.00
C242   C     0.37611   0.49999   0.24998   0.00000  Uiso   1.00
Cu243  Cu    0.50000   0.54689   0.25000   0.00000  Uiso   1.00
Cu244  Cu    0.50000   0.45311   0.25000   0.00000  Uiso   1.00
H245   H     0.46013   0.55941   0.10955   0.00000  Uiso   1.00
H246   H     0.46083   0.43934   0.38675   0.00000  Uiso   1.00
H247   H     0.53941   0.55981   0.39044   0.00000  Uiso   1.00
H248   H     0.53963   0.43971   0.11330   0.00000  Uiso   1.00
H249   H     0.37061   0.42481   0.25003   0.00000  Uiso   1.00
H250   H     0.62940   0.57518   0.24994   0.00000  Uiso   1.00
H251   H     0.62939   0.42481   0.24996   0.00000  Uiso   1.00
H252   H     0.37060   0.57518   0.25006   0.00000  Uiso   1.00
N253   N     0.50000   0.61736   0.25000   0.00000  Uiso   1.00
N254   N     0.50000   0.38264   0.25000   0.00000  Uiso   1.00
O255   O     0.43988   0.53958   0.24999   0.00000  Uiso   1.00
O256   O     0.56012   0.46042   0.25000   0.00000  Uiso   1.00
O257   O     0.56012   0.53958   0.25000   0.00000  Uiso   1.00
O258   O     0.43988   0.46042   0.24999   0.00000  Uiso   1.00
O259   O     0.50000   0.53959   0.18573   0.00000  Uiso   1.00
O260   O     0.50000   0.46041   0.31427   0.00000  Uiso   1.00
O261   O     0.50000   0.53959   0.31427   0.00000  Uiso   1.00
O262   O     0.50000   0.46041   0.18573   0.00000  Uiso   1.00
Cl263  Cl    0.43967   0.38728   0.18506   0.00000  Uiso   1.00
Cl264  Cl    0.56126   0.61291   0.31392   0.00000  Uiso   1.00
Cl265  Cl    0.56033   0.38729   0.31494   0.00000  Uiso   1.00
Cl266  Cl    0.43875   0.61290   0.18607   0.00000  Uiso   1.00
Cl267  Cl    0.44684   0.57443   0.01765   0.00000  Uiso   1.00
Cl268  Cl    0.44777   0.42298   0.47772   0.00000  Uiso   1.00
Cl269  Cl    0.55260   0.57498   0.48232   0.00000  Uiso   1.00
Cl270  Cl    0.55284   0.42345   0.02235   0.00000  Uiso   1.00
C271   C     0.75410   0.50000   0.24995   0.00000  Uiso   1.00
C272   C     0.91257   0.50000   0.25005   0.00000  Uiso   1.00
C273   C     0.83328   0.49997   0.16507   0.00000  Uiso   1.00
C274   C     0.83339   0.49997   0.33493   0.00000  Uiso   1.00
C275   C     0.80717   0.35804   0.22210   0.00000  Uiso   1.00
C276   C     0.85966   0.64201   0.27772   0.00000  Uiso   1.00
C277   C     0.85950   0.35804   0.27790   0.00000  Uiso   1.00
C278   C     0.80701   0.64200   0.22228   0.00000  Uiso   1.00
C279   C     0.68796   0.45781   0.25000   0.00000  Uiso   1.00
C280   C     0.97871   0.54218   0.24999   0.00000  Uiso   1.00
C281   C     0.97871   0.45781   0.25000   0.00000  Uiso   1.00
C282   C     0.68796   0.54218   0.25001   0.00000  Uiso   1.00
C283   C     0.81043   0.53281   0.04654   0.00000  Uiso   1.00
C284   C     0.81096   0.46528   0.45144   0.00000  Uiso   1.00
C285   C     0.85603   0.53302   0.45345   0.00000  Uiso   1.00
C286   C     0.85603   0.46549   0.04860   0.00000  Uiso   1.00
C287   C     0.81108   0.53336   0.09265   0.00000  Uiso   1.00
C288   C     0.81150   0.46542   0.40534   0.00000  Uiso   1.00
C289   C     0.85535   0.53358   0.40734   0.00000  Uiso   1.00
C290   C     0.85545   0.46563   0.09470   0.00000  Uiso   1.00
C291   C     0.83333   0.49974   0.11681   0.00000  Uiso   1.00
C292   C     0.83335   0.49974   0.38320   0.00000  Uiso   1.00
C293   C     0.83326   0.49903   0.02428   0.00000  Uiso   1.00
C294   C     0.83349   0.49902   0.47574   0.00000  Uiso   1.00
C295   C     0.95722   0.50000   0.25002   0.00000  Uiso   1.00
C296   C     0.70944   0.49999   0.24998   0.00000  Uiso   1.00
Cu297  Cu    0.83333   0.54689   0.25000   0.00000  Uiso   1.00
Cu298  Cu    0.83333   0.45311   0.25000   0.00000  Uiso   1.00
H299   H     0.79346   0.55941   0.10955   0.00000  Uiso   1.00
H300   H     0.79417   0.43934   0.38675   0.00000  Uiso   1.00
H301   H     0.87275   0.55981   0.39044   0.00000  Uiso   1.00
H302   H     0.87296   0.43971   0.11330   0.00000  Uiso   1.00
H303   H     0.70394   0.42481   0.25003   0.00000  Uiso   1.00
H304   H     0.96273   0.57518   0.24994   0.00000  Uiso   1.00
H305   H     0.96272   0.42481   0.24996   0.00000  Uiso   1.00
H306   H     0.70394   0.57518   0.25006   0.00000  Uiso   1.00
N307   N     0.83333   0.61736   0.25000   0.00000  Uiso   1.00
N308   N     0.83333   0.38264   0.25000   0.00000  Uiso   1.00
O309   O     0.77321   0.53958   0.24999   0.00000  Uiso   1.00
O310   O     0.89345   0.46042   0.25000   0.00000  Uiso   1.00
O311   O     0.89345   0.53958   0.25000   0.00000  Uiso   1.00
O312   O     0.77321   0.46042   0.24999   0.00000  Uiso   1.00
O313   O     0.83333   0.53959   0.18573   0.00000  Uiso   1.00
O314   O     0.83334   0.46041   0.31427   0.00000  Uiso   1.00
O315   O     0.83334   0.53959   0.31427   0.00000  Uiso   1.00
O316   O     0.83333   0.46041   0.18573   0.00000  Uiso   1.00
Cl317  Cl    0.77300   0.38728   0.18506   0.00000  Uiso   1.00
Cl318  Cl    0.89459   0.61291   0.31392   0.00000  Uiso   1.00
Cl319  Cl    0.89367   0.38729   0.31494   0.00000  Uiso   1.00
Cl320  Cl    0.77209   0.61290   0.18607   0.00000  Uiso   1.00
Cl321  Cl    0.78018   0.57443   0.01765   0.00000  Uiso   1.00
Cl322  Cl    0.78110   0.42298   0.47772   0.00000  Uiso   1.00
Cl323  Cl    0.88593   0.57498   0.48232   0.00000  Uiso   1.00
Cl324  Cl    0.88617   0.42345   0.02235   0.00000  Uiso   1.00
C325   C     0.08743   0.83333   0.24995   0.00000  Uiso   1.00
C326   C     0.24590   0.83333   0.25005   0.00000  Uiso   1.00
C327   C     0.16661   0.83330   0.16507   0.00000  Uiso   1.00
C328   C     0.16672   0.83330   0.33493   0.00000  Uiso   1.00
C329   C     0.14050   0.69138   0.22210   0.00000  Uiso   1.00
C330   C     0.19299   0.97534   0.27772   0.00000  Uiso   1.00
C331   C     0.19284   0.69138   0.27790   0.00000  Uiso   1.00
C332   C     0.14035   0.97534   0.22228   0.00000  Uiso   1.00
C333   C     0.02129   0.79114   0.25000   0.00000  Uiso   1.00
C334   C     0.31204   0.87551   0.24999   0.00000  Uiso   1.00
C335   C     0.31204   0.79114   0.25000   0.00000  Uiso   1.00
C336   C     0.02129   0.87551   0.25001   0.00000  Uiso   1.00
C337   C     0.14377   0.86615   0.04654   0.00000  Uiso   1.00
C338   C     0.14429   0.79861   0.45144   0.00000  Uiso   1.00
C339   C     0.18936   0.86636   0.45345   0.00000  Uiso   1.00
C340   C     0.18936   0.79883   0.04860   0.00000  Uiso   1.00
C341   C     0.14442   0.86670   0.09265   0.00000  Uiso   1.00
C342   C     0.14483   0.79875   0.40534   0.00000  Uiso   1.00
C343   C     0.18869   0.86691   0.40734   0.00000  Uiso   1.00
C344   C     0.18879   0.79896   0.09470   0.00000  Uiso   1.00
C345   C     0.16667   0.83307   0.11681   0.00000  Uiso   1.00
C346   C     0.16668   0.83307   0.38320   0.00000  Uiso   1.00
C347   C     0.16659   0.83236   0.02428   0.00000  Uiso   1.00
C348   C     0.16682   0.83235   0.47574   0.00000  Uiso   1.00
C349   C     0.29056   0.83333   0.25002   0.00000  Uiso   1.00
C350   C     0.04278   0.83333   0.24998   0.00000  Uiso   1.00
Cu351  Cu    0.16667   0.88022   0.25000   0.00000  Uiso   1.00
Cu352  Cu    0.16667   0.78645   0.25000   0.00000  Uiso   1.00
H353   H     0.12680   0.89274   0.10955   0.00000  Uiso   1.00
H354   H     0.12750   0.77267   0.38675   0.00000  Uiso   1.00
H355   H     0.20608   0.89314   0.39044   0.00000  Uiso   1.00
H356   H     0.20629   0.77304   0.11330   0.00000  Uiso   1.00
H357   H     0.03728   0.75814   0.25003   0.00000  Uiso   1.00
H358   H     0.29606   0.90852   0.24994   0.00000  Uiso   1.00
H359   H     0.29606   0.75814   0.24996   0.00000  Uiso   1.00
H360   H     0.03727   0.90851   0.25006   0.00000  Uiso   1.00
N361   N     0.16667   0.95069   0.25000   0.00000  Uiso   1.00
N362   N     0.16667   0.71598   0.25000   0.00000  Uiso   1.00
O363   O     0.10655   0.87291   0.24999   0.00000  Uiso   1.00
O364   O     0.22679   0.79375   0.25000   0.00000  Uiso   1.00
O365   O     0.22679   0.87291   0.25000   0.00000  Uiso   1.00
O366   O     0.10655   0.79375   0.24999   0.00000  Uiso   1.00
O367   O     0.16666   0.87293   0.18573   0.00000  Uiso   1.00
O368   O     0.16667   0.79374   0.31427   0.00000  Uiso   1.00
O369   O     0.16667   0.87293   0.31427   0.00000  Uiso   1.00
O370   O     0.16666   0.79374   0.18573   0.00000  Uiso   1.00
Cl371  Cl    0.10633   0.72061   0.18506   0.00000  Uiso   1.00
Cl372  Cl    0.22792   0.94624   0.31392   0.00000  Uiso   1.00
Cl373  Cl    0.22700   0.72062   0.31494   0.00000  Uiso   1.00
Cl374  Cl    0.10542   0.94623   0.18607   0.00000  Uiso   1.00
Cl375  Cl    0.11351   0.90776   0.01765   0.00000  Uiso   1.00
Cl376  Cl    0.11443   0.75632   0.47772   0.00000  Uiso   1.00
Cl377  Cl    0.21926   0.90831   0.48232   0.00000  Uiso   1.00
Cl378  Cl    0.21951   0.75679   0.02235   0.00000  Uiso   1.00
C379   C     0.42077   0.83333   0.24995   0.00000  Uiso   1.00
C380   C     0.57923   0.83333   0.25005   0.00000  Uiso   1.00
C381   C     0.49994   0.83330   0.16507   0.00000  Uiso   1.00
C382   C     0.50005   0.83330   0.33493   0.00000  Uiso   1.00
C383   C     0.47383   0.69138   0.22210   0.00000  Uiso   1.00
C384   C     0.52632   0.97534   0.27772   0.00000  Uiso   1.00
C385   C     0.52617   0.69138   0.27790   0.00000  Uiso   1.00
C386   C     0.47368   0.97534   0.22228   0.00000  Uiso   1.00
C387   C     0.35463   0.79114   0.25000   0.00000  Uiso   1.00
C388   C     0.64538   0.87551   0.24999   0.00000  Uiso   1.00
C389   C     0.64537   0.79114   0.25000   0.00000  Uiso   1.00
C390   C     0.35463   0.87551   0.25001   0.00000  Uiso   1.00
C391   C     0.47710   0.86615   0.04654   0.00000  Uiso   1.00
C392   C     0.47762   0.79861   0.45144   0.00000  Uiso   1.00
C393   C     0.52270   0.86636   0.45345   0.00000  Uiso   1.00
C394   C     0.52269   0.79883   0.04860   0.00000  Uiso   1.00
C395   C     0.47775   0.86670   0.09265   0.00000  Uiso   1.00
C396   C     0.47817   0.79875   0.40534   0.00000  Uiso   1.00
C397   C     0.52202   0.86691   0.40734   0.00000  Uiso   1.00
C398   C     0.52212   0.79896   0.09470   0.00000  Uiso   1.00
C399   C     0.50000   0.83307   0.11681   0.00000  Uiso   1.00
C400   C     0.50002   0.83307   0.38320   0.00000  Uiso   1.00
C401   C     0.49992   0.83236   0.02428   0.00000  Uiso   1.00
C402   C     0.50016   0.83235   0.47574   0.00000  Uiso   1.00
C403   C     0.62389   0.83333   0.25002   0.00000  Uiso   1.00
C404   C     0.37611   0.83333   0.24998   0.00000  Uiso   1.00
Cu405  Cu    0.50000   0.88022   0.25000   0.00000  Uiso   1.00
Cu406  Cu    0.50000   0.78645   0.25000   0.00000  Uiso   1.00
H407   H     0.46013   0.89274   0.10955   0.00000  Uiso   1.00
H408   H     0.46083   0.77267   0.38675   0.00000  Uiso   1.00
H409   H     0.53941   0.89314   0.39044   0.00000  Uiso   1.00
H410   H     0.53963   0.77304   0.11330   0.00000  Uiso   1.00
H411   H     0.37061   0.75814   0.25003   0.00000  Uiso   1.00
H412   H     0.62940   0.90852   0.24994   0.00000  Uiso   1.00
H413   H     0.62939   0.75814   0.24996   0.00000  Uiso   1.00
H414   H     0.37060   0.90851   0.25006   0.00000  Uiso   1.00
N415   N     0.50000   0.95069   0.25000   0.00000  Uiso   1.00
N416   N     0.50000   0.71598   0.25000   0.00000  Uiso   1.00
O417   O     0.43988   0.87291   0.24999   0.00000  Uiso   1.00
O418   O     0.56012   0.79375   0.25000   0.00000  Uiso   1.00
O419   O     0.56012   0.87291   0.25000   0.00000  Uiso   1.00
O420   O     0.43988   0.79375   0.24999   0.00000  Uiso   1.00
O421   O     0.50000   0.87293   0.18573   0.00000  Uiso   1.00
O422   O     0.50000   0.79374   0.31427   0.00000  Uiso   1.00
O423   O     0.50000   0.87293   0.31427   0.00000  Uiso   1.00
O424   O     0.50000   0.79374   0.18573   0.00000  Uiso   1.00
Cl425  Cl    0.43967   0.72061   0.18506   0.00000  Uiso   1.00
Cl426  Cl    0.56126   0.94624   0.31392   0.00000  Uiso   1.00
Cl427  Cl    0.56033   0.72062   0.31494   0.00000  Uiso   1.00
Cl428  Cl    0.43875   0.94623   0.18607   0.00000  Uiso   1.00
Cl429  Cl    0.44684   0.90776   0.01765   0.00000  Uiso   1.00
Cl430  Cl    0.44777   0.75632   0.47772   0.00000  Uiso   1.00
Cl431  Cl    0.55260   0.90831   0.48232   0.00000  Uiso   1.00
Cl432  Cl    0.55284   0.75679   0.02235   0.00000  Uiso   1.00
C433   C     0.75410   0.83333   0.24995   0.00000  Uiso   1.00
C434   C     0.91257   0.83333   0.25005   0.00000  Uiso   1.00
C435   C     0.83328   0.83330   0.16507   0.00000  Uiso   1.00
C436   C     0.83339   0.83330   0.33493   0.00000  Uiso   1.00
C437   C     0.80717   0.69138   0.22210   0.00000  Uiso   1.00
C438   C     0.85966   0.97534   0.27772   0.00000  Uiso   1.00
C439   C     0.85950   0.69138   0.27790   0.00000  Uiso   1.00
C440   C     0.80701   0.97534   0.22228   0.00000  Uiso   1.00
C441   C     0.68796   0.79114   0.25000   0.00000  Uiso   1.00
C442   C     0.97871   0.87551   0.24999   0.00000  Uiso   1.00
C443   C     0.97871   0.79114   0.25000   0.00000  Uiso   1.00
C444   C     0.68796   0.87551   0.25001   0.00000  Uiso   1.00
C445   C     0.81043   0.86615   0.04654   0.00000  Uiso   1.00
C446   C     0.81096   0.79861   0.45144   0.00000  Uiso   1.00
C447   C     0.85603   0.86636   0.45345   0.00000  Uiso   1.00
C448   C     0.85603   0.79883   0.04860   0.00000  Uiso   1.00
C449   C     0.81108   0.86670   0.09265   0.00000  Uiso   1.00
C450   C     0.81150   0.79875   0.40534   0.00000  Uiso   1.00
C451   C     0.85535   0.86691   0.40734   0.00000  Uiso   1.00
C452   C     0.85545   0.79896   0.09470   0.00000  Uiso   1.00
C453   C     0.83333   0.83307   0.11681   0.00000  Uiso   1.00
C454   C     0.83335   0.83307   0.38320   0.00000  Uiso   1.00
C455   C     0.83326   0.83236   0.02428   0.00000  Uiso   1.00
C456   C     0.83349   0.83235   0.47574   0.00000  Uiso   1.00
C457   C     0.95722   0.83333   0.25002   0.00000  Uiso   1.00
C458   C     0.70944   0.83333   0.24998   0.00000  Uiso   1.00
Cu459  Cu    0.83333   0.88022   0.25000   0.00000  Uiso   1.00
Cu460  Cu    0.83333   0.78645   0.25000   0.00000  Uiso   1.00
H461   H     0.79346   0.89274   0.10955   0.00000  Uiso   1.00
H462   H     0.79417   0.77267   0.38675   0.00000  Uiso   1.00
H463   H     0.87275   0.89314   0.39044   0.00000  Uiso   1.00
H464   H     0.87296   0.77304   0.11330   0.00000  Uiso   1.00
H465   H     0.70394   0.75814   0.25003   0.00000  Uiso   1.00
H466   H     0.96273   0.90852   0.24994   0.00000  Uiso   1.00
H467   H     0.96272   0.75814   0.24996   0.00000  Uiso   1.00
H468   H     0.70394   0.90851   0.25006   0.00000  Uiso   1.00
N469   N     0.83333   0.95069   0.25000   0.00000  Uiso   1.00
N470   N     0.83333   0.71598   0.25000   0.00000  Uiso   1.00
O471   O     0.77321   0.87291   0.24999   0.00000  Uiso   1.00
O472   O     0.89345   0.79375   0.25000   0.00000  Uiso   1.00
O473   O     0.89345   0.87291   0.25000   0.00000  Uiso   1.00
O474   O     0.77321   0.79375   0.24999   0.00000  Uiso   1.00
O475   O     0.83333   0.87293   0.18573   0.00000  Uiso   1.00
O476   O     0.83334   0.79374   0.31427   0.00000  Uiso   1.00
O477   O     0.83334   0.87293   0.31427   0.00000  Uiso   1.00
O478   O     0.83333   0.79374   0.18573   0.00000  Uiso   1.00
Cl479  Cl    0.77300   0.72061   0.18506   0.00000  Uiso   1.00
Cl480  Cl    0.89459   0.94624   0.31392   0.00000  Uiso   1.00
Cl481  Cl    0.89367   0.72062   0.31494   0.00000  Uiso   1.00
Cl482  Cl    0.77209   0.94623   0.18607   0.00000  Uiso   1.00
Cl483  Cl    0.78018   0.90776   0.01765   0.00000  Uiso   1.00
Cl484  Cl    0.78110   0.75632   0.47772   0.00000  Uiso   1.00
Cl485  Cl    0.88593   0.90831   0.48232   0.00000  Uiso   1.00
Cl486  Cl    0.88617   0.75679   0.02235   0.00000  Uiso   1.00
C487   C     0.08743   0.16667   0.74995   0.00000  Uiso   1.00
C488   C     0.24590   0.16667   0.75005   0.00000  Uiso   1.00
C489   C     0.16661   0.16663   0.66507   0.00000  Uiso   1.00
C490   C     0.16672   0.16663   0.83493   0.00000  Uiso   1.00
C491   C     0.14050   0.02471   0.72210   0.00000  Uiso   1.00
C492   C     0.19299   0.30867   0.77772   0.00000  Uiso   1.00
C493   C     0.19284   0.02471   0.77790   0.00000  Uiso   1.00
C494   C     0.14035   0.30867   0.72228   0.00000  Uiso   1.00
C495   C     0.02129   0.12447   0.75000   0.00000  Uiso   1.00
C496   C     0.31204   0.20885   0.74999   0.00000  Uiso   1.00
C497   C     0.31204   0.12448   0.75000   0.00000  Uiso   1.00
C498   C     0.02129   0.20885   0.75001   0.00000  Uiso   1.00
C499   C     0.14377   0.19948   0.54654   0.00000  Uiso   1.00
C500   C     0.14429   0.13194   0.95144   0.00000  Uiso   1.00
C501   C     0.18936   0.19969   0.95345   0.00000  Uiso   1.00
C502   C     0.18936   0.13216   0.54860   0.00000  Uiso   1.00
C503   C     0.14442   0.20003   0.59265   0.00000  Uiso   1.00
C504   C     0.14483   0.13208   0.90534   0.00000  Uiso   1.00
C505   C     0.18869   0.20024   0.90734   0.00000  Uiso   1.00
C506   C     0.18879   0.13229   0.59470   0.00000  Uiso   1.00
C507   C     0.16667   0.16641   0.61681   0.00000  Uiso   1.00
C508   C     0.16668   0.16640   0.88320   0.00000  Uiso   1.00
C509   C     0.16659   0.16569   0.52428   0.00000  Uiso   1.00
C510   C     0.16682   0.16568   0.97574   0.00000  Uiso   1.00
C511   C     0.29056   0.16666   0.75002   0.00000  Uiso   1.00
C512   C     0.04278   0.16666   0.74998   0.00000  Uiso   1.00
Cu513  Cu    0.16667   0.21355   0.75000   0.00000  Uiso   1.00
Cu514  Cu    0.16667   0.11978   0.75000   0.00000  Uiso   1.00
H515   H     0.12680   0.22607   0.60955   0.00000  Uiso   1.00
H516   H     0.12750   0.10601   0.88675   0.00000  Uiso   1.00
H517   H     0.20608   0.22647   0.89044   0.00000  Uiso   1.00
H518   H     0.20629   0.10638   0.61330   0.00000  Uiso   1.00
H519   H     0.03728   0.09147   0.75003   0.00000  Uiso   1.00
H520   H     0.29606   0.24185   0.74994   0.00000  Uiso   1.00
H521   H     0.29606   0.09147   0.74996   0.00000  Uiso   1.00
H522   H     0.03727   0.24185   0.75006   0.00000  Uiso   1.00
N523   N     0.16667   0.28402   0.75000   0.00000  Uiso   1.00
N524   N     0.16667   0.04931   0.75000   0.00000  Uiso   1.00
O525   O     0.10655   0.20625   0.74999   0.00000  Uiso   1.00
O526   O     0.22679   0.12709   0.75000   0.00000  Uiso   1.00
O527   O     0.22679   0.20625   0.75000   0.00000  Uiso   1.00
O528   O     0.10655   0.12709   0.74999   0.00000  Uiso   1.00
O529   O     0.16666   0.20626   0.68573   0.00000  Uiso   1.00
O530   O     0.16667   0.12707   0.81427   0.00000  Uiso   1.00
O531   O     0.16667   0.20626   0.81427   0.00000  Uiso   1.00
O532   O     0.16666   0.12707   0.68573   0.00000  Uiso   1.00
Cl533  Cl    0.10633   0.05395   0.68506   0.00000  Uiso   1.00
Cl534  Cl    0.22792   0.27958   0.81392   0.00000  Uiso   1.00
Cl535  Cl    0.22700   0.05395   0.81494   0.00000  Uiso   1.00
Cl536  Cl    0.10542   0.27957   0.68607   0.00000  Uiso   1.00
Cl537  Cl    0.11351   0.24110   0.51765   0.00000  Uiso   1.00
Cl538  Cl    0.11443   0.08965   0.97772   0.00000  Uiso   1.00
Cl539  Cl    0.21926   0.24165   0.98232   0.00000  Uiso   1.00
Cl540  Cl    0.21951   0.09012   0.52235   0.00000  Uiso   1.00
C541   C     0.42077   0.16667   0.74995   0.00000  Uiso   1.00
C542   C     0.57923   0.16667   0.75005   0.00000  Uiso   1.00
C543   C     0.49994   0.16663   0.66507   0.00000  Uiso   1.00
C544   C     0.50005   0.16663   0.83493   0.00000  Uiso   1.00
C545   C     0.47383   0.02471   0.72210   0.00000  Uiso   1.00
C546   C     0.52632   0.30867   0.77772   0.00000  Uiso   1.00
C547   C     0.52617   0.02471   0.77790   0.00000  Uiso   1.00
C548   C     0.47368   0.30867   0.72228   0.00000  Uiso   1.00
C549   C     0.35463   0.12447   0.75000   0.00000  Uiso   1.00
C550   C     0.64538   0.20885   0.74999   0.00000  Uiso   1.00
C551   C     0.64537   0.12448   0.75000   0.00000  Uiso   1.00
C552   C     0.35463   0.20885   0.75001   0.00000  Uiso   1.00
C553   C     0.47710   0.19948   0.54654   0.00000  Uiso   1.00
C554   C     0.47762   0.13194   0.95144   0.00000  Uiso   1.00
C555   C     0.52270   0.19969   0.95345   0.00000  Uiso   1.00
C556   C     0.52269   0.13216   0.54860   0.00000  Uiso   1.00
C557   C     0.47775   0.20003   0.59265   0.00000  Uiso   1.00
C558   C     0.47817   0.13208   0.90534   0.00000  Uiso   1.00
C559   C     0.52202   0.20024   0.90734   0.00000  Uiso   1.00
C560   C     0.52212   0.13229   0.59470   0.00000  Uiso   1.00
C561   C     0.50000   0.16641   0.61681   0.00000  Uiso   1.00
C562   C     0.50002   0.16640   0.88320   0.00000  Uiso   1.00
C563   C     0.49992   0.16569   0.52428   0.00000  Uiso   1.00
C564   C     0.50016   0.16568   0.97574   0.00000  Uiso   1.00
C565   C     0.62389   0.16666   0.75002   0.00000  Uiso   1.00
C566   C     0.37611   0.16666   0.74998   0.00000  Uiso   1.00
Cu567  Cu    0.50000   0.21355   0.75000   0.00000  Uiso   1.00
Cu568  Cu    0.50000   0.11978   0.75000   0.00000  Uiso   1.00
H569   H     0.46013   0.22607   0.60955   0.00000  Uiso   1.00
H570   H     0.46083   0.10601   0.88675   0.00000  Uiso   1.00
H571   H     0.53941   0.22647   0.89044   0.00000  Uiso   1.00
H572   H     0.53963   0.10638   0.61330   0.00000  Uiso   1.00
H573   H     0.37061   0.09147   0.75003   0.00000  Uiso   1.00
H574   H     0.62940   0.24185   0.74994   0.00000  Uiso   1.00
H575   H     0.62939   0.09147   0.74996   0.00000  Uiso   1.00
H576   H     0.37060   0.24185   0.75006   0.00000  Uiso   1.00
N577   N     0.50000   0.28402   0.75000   0.00000  Uiso   1.00
N578   N     0.50000   0.04931   0.75000   0.00000  Uiso   1.00
O579   O     0.43988   0.20625   0.74999   0.00000  Uiso   1.00
O580   O     0.56012   0.12709   0.75000   0.00000  Uiso   1.00
O581   O     0.56012   0.20625   0.75000   0.00000  Uiso   1.00
O582   O     0.43988   0.12709   0.74999   0.00000  Uiso   1.00
O583   O     0.50000   0.20626   0.68573   0.00000  Uiso   1.00
O584   O     0.50000   0.12707   0.81427   0.00000  Uiso   1.00
O585   O     0.50000   0.20626   0.81427   0.00000  Uiso   1.00
O586   O     0.50000   0.12707   0.68573   0.00000  Uiso   1.00
Cl587  Cl    0.43967   0.05395   0.68506   0.00000  Uiso   1.00
Cl588  Cl    0.56126   0.27958   0.81392   0.00000  Uiso   1.00
Cl589  Cl    0.56033   0.05395   0.81494   0.00000  Uiso   1.00
Cl590  Cl    0.43875   0.27957   0.68607   0.00000  Uiso   1.00
Cl591  Cl    0.44684   0.24110   0.51765   0.00000  Uiso   1.00
Cl592  Cl    0.44777   0.08965   0.97772   0.00000  Uiso   1.00
Cl593  Cl    0.55260   0.24165   0.98232   0.00000  Uiso   1.00
Cl594  Cl    0.55284   0.09012   0.52235   0.00000  Uiso   1.00
C595   C     0.75410   0.16667   0.74995   0.00000  Uiso   1.00
C596   C     0.91257   0.16667   0.75005   0.00000  Uiso   1.00
C597   C     0.83328   0.16663   0.66507   0.00000  Uiso   1.00
C598   C     0.83339   0.16663   0.83493   0.00000  Uiso   1.00
C599   C     0.80717   0.02471   0.72210   0.00000  Uiso   1.00
C600   C     0.85966   0.30867   0.77772   0.00000  Uiso   1.00
C601   C     0.85950   0.02471   0.77790   0.00000  Uiso   1.00
C602   C     0.80701   0.30867   0.72228   0.00000  Uiso   1.00
C603   C     0.68796   0.12447   0.75000   0.00000  Uiso   1.00
C604   C     0.97871   0.20885   0.74999   0.00000  Uiso   1.00
C605   C     0.97871   0.12448   0.75000   0.00000  Uiso   1.00
C606   C     0.68796   0.20885   0.75001   0.00000  Uiso   1.00
C607   C     0.81043   0.19948   0.54654   0.00000  Uiso   1.00
C608   C     0.81096   0.13194   0.95144   0.00000  Uiso   1.00
C609   C     0.85603   0.19969   0.95345   0.00000  Uiso   1.00
C610   C     0.85603   0.13216   0.54860   0.00000  Uiso   1.00
C611   C     0.81108   0.20003   0.59265   0.00000  Uiso   1.00
C612   C     0.81150   0.13208   0.90534   0.00000  Uiso   1.00
C613   C     0.85535   0.20024   0.90734   0.00000  Uiso   1.00
C614   C     0.85545   0.13229   0.59470   0.00000  Uiso   1.00
C615   C     0.83333   0.16641   0.61681   0.00000  Uiso   1.00
C616   C     0.83335   0.16640   0.88320   0.00000  Uiso   1.00
C617   C     0.83326   0.16569   0.52428   0.00000  Uiso   1.00
C618   C     0.83349   0.16568   0.97574   0.00000  Uiso   1.00
C619   C     0.95722   0.16666   0.75002   0.00000  Uiso   1.00
C620   C     0.70944   0.16666   0.74998   0.00000  Uiso   1.00
Cu621  Cu    0.83333   0.21355   0.75000   0.00000  Uiso   1.00
Cu622  Cu    0.83333   0.11978   0.75000   0.00000  Uiso   1.00
H623   H     0.79346   0.22607   0.60955   0.00000  Uiso   1.00
H624   H     0.79417   0.10601   0.88675   0.00000  Uiso   1.00
H625   H     0.87275   0.22647   0.89044   0.00000  Uiso   1.00
H626   H     0.87296   0.10638   0.61330   0.00000  Uiso   1.00
H627   H     0.70394   0.09147   0.75003   0.00000  Uiso   1.00
H628   H     0.96273   0.24185   0.74994   0.00000  Uiso   1.00
H629   H     0.96272   0.09147   0.74996   0.00000  Uiso   1.00
H630   H     0.70394   0.24185   0.75006   0.00000  Uiso   1.00
N631   N     0.83333   0.28402   0.75000   0.00000  Uiso   1.00
N632   N     0.83333   0.04931   0.75000   0.00000  Uiso   1.00
O633   O     0.77321   0.20625   0.74999   0.00000  Uiso   1.00
O634   O     0.89345   0.12709   0.75000   0.00000  Uiso   1.00
O635   O     0.89345   0.20625   0.75000   0.00000  Uiso   1.00
O636   O     0.77321   0.12709   0.74999   0.00000  Uiso   1.00
O637   O     0.83333   0.20626   0.68573   0.00000  Uiso   1.00
O638   O     0.83334   0.12707   0.81427   0.00000  Uiso   1.00
O639   O     0.83334   0.20626   0.81427   0.00000  Uiso   1.00
O640   O     0.83333   0.12707   0.68573   0.00000  Uiso   1.00
Cl641  Cl    0.77300   0.05395   0.68506   0.00000  Uiso   1.00
Cl642  Cl    0.89459   0.27958   0.81392   0.00000  Uiso   1.00
Cl643  Cl    0.89367   0.05395   0.81494   0.00000  Uiso   1.00
Cl644  Cl    0.77209   0.27957   0.68607   0.00000  Uiso   1.00
Cl645  Cl    0.78018   0.24110   0.51765   0.00000  Uiso   1.00
Cl646  Cl    0.78110   0.08965   0.97772   0.00000  Uiso   1.00
Cl647  Cl    0.88593   0.24165   0.98232   0.00000  Uiso   1.00
Cl648  Cl    0.88617   0.09012   0.52235   0.00000  Uiso   1.00
C649   C     0.08743   0.50000   0.74995   0.00000  Uiso   1.00
C650   C     0.24590   0.50000   0.75005   0.00000  Uiso   1.00
C651   C     0.16661   0.49997   0.66507   0.00000  Uiso   1.00
C652   C     0.16672   0.49997   0.83493   0.00000  Uiso   1.00
C653   C     0.14050   0.35804   0.72210   0.00000  Uiso   1.00
C654   C     0.19299   0.64201   0.77772   0.00000  Uiso   1.00
C655   C     0.19284   0.35804   0.77790   0.00000  Uiso   1.00
C656   C     0.14035   0.64200   0.72228   0.00000  Uiso   1.00
C657   C     0.02129   0.45781   0.75000   0.00000  Uiso   1.00
C658   C     0.31204   0.54218   0.74999   0.00000  Uiso   1.00
C659   C     0.31204   0.45781   0.75000   0.00000  Uiso   1.00
C660   C     0.02129   0.54218   0.75001   0.00000  Uiso   1.00
C661   C     0.14377   0.53281   0.54654   0.00000  Uiso   1.00
C662   C     0.14429   0.46528   0.95144   0.00000  Uiso   1.00
C663   C     0.18936   0.53302   0.95345   0.00000  Uiso   1.00
C664   C     0.18936   0.46549   0.54860   0.00000  Uiso   1.00
C665   C     0.14442   0.53336   0.59265   0.00000  Uiso   1.00
C666   C     0.14483   0.46542   0.90534   0.00000  Uiso   1.00
C667   C     0.18869   0.53358   0.90734   0.00000  Uiso   1.00
C668   C     0.18879   0.46563   0.59470   0.00000  Uiso   1.00
C669   C     0.16667   0.49974   0.61681   0.00000  Uiso   1.00
C670   C     0.16668   0.49974   0.88320   0.00000  Uiso   1.00
C671   C     0.16659   0.49903   0.52428   0.00000  Uiso   1.00
C672   C     0.16682   0.49902   0.97574   0.00000  Uiso   1.00
C673   C     0.29056   0.50000   0.75002   0.00000  Uiso   1.00
C674   C     0.04278   0.49999   0.74998   0.00000  Uiso   1.00
Cu675  Cu    0.16667   0.54689   0.75000   0.00000  Uiso   1.00
Cu676  Cu    0.16667   0.45311   0.75000   0.00000  Uiso   1.00
H677   H     0.12680   0.55941   0.60955   0.00000  Uiso   1.00
H678   H     0.12750   0.43934   0.88675   0.00000  Uiso   1.00
H679   H     0.20608   0.55981   0.89044   0.00000  Uiso   1.00
H680   H     0.20629   0.43971   0.61330   0.00000  Uiso   1.00
H681   H     0.03728   0.42481   0.75003   0.00000  Uiso   1.00
H682   H     0.29606   0.57518   0.74994   0.00000  Uiso   1.00
H683   H     0.29606   0.42481   0.74996   0.00000  Uiso   1.00
H684   H     0.03727   0.57518   0.75006   0.00000  Uiso   1.00
N685   N     0.16667   0.61736   0.75000   0.00000  Uiso   1.00
N686   N     0.16667   0.38264   0.75000   0.00000  Uiso   1.00
O687   O     0.10655   0.53958   0.74999   0.00000  Uiso   1.00
O688   O     0.22679   0.46042   0.75000   0.00000  Uiso   1.00
O689   O     0.22679   0.53958   0.75000   0.00000  Uiso   1.00
O690   O     0.10655   0.46042   0.74999   0.00000  Uiso   1.00
O691   O     0.16666   0.53959   0.68573   0.00000  Uiso   1.00
O692   O     0.16667   0.46041   0.81427   0.00000  Uiso   1.00
O693   O     0.16667   0.53959   0.81427   0.00000  Uiso   1.00
O694   O     0.16666   0.46041   0.68573   0.00000  Uiso   1.00
Cl695  Cl    0.10633   0.38728   0.68506   0.00000  Uiso   1.00
Cl696  Cl    0.22792   0.61291   0.81392   0.00000  Uiso   1.00
Cl697  Cl    0.22700   0.38729   0.81494   0.00000  Uiso   1.00
Cl698  Cl    0.10542   0.61290   0.68607   0.00000  Uiso   1.00
Cl699  Cl    0.11351   0.57443   0.51765   0.00000  Uiso   1.00
Cl700  Cl    0.11443   0.42298   0.97772   0.00000  Uiso   1.00
Cl701  Cl    0.21926   0.57498   0.98232   0.00000  Uiso   1.00
Cl702  Cl    0.21951   0.42345   0.52235   0.00000  Uiso   1.00
C703   C     0.42077   0.50000   0.74995   0.00000  Uiso   1.00
C704   C     0.57923   0.50000   0.75005   0.00000  Uiso   1.00
C705   C     0.49994   0.49997   0.66507   0.00000  Uiso   1.00
C706   C     0.50005   0.49997   0.83493   0.00000  Uiso   1.00
C707   C     0.47383   0.35804   0.72210   0.00000  Uiso   1.00
C708   C     0.52632   0.64201   0.77772   0.00000  Uiso   1.00
C709   C     0.52617   0.35804   0.77790   0.00000  Uiso   1.00
C710   C     0.47368   0.64200   0.72228   0.00000  Uiso   1.00
C711   C     0.35463   0.45781   0.75000   0.00000  Uiso   1.00
C712   C     0.64538   0.54218   0.74999   0.00000  Uiso   1.00
C713   C     0.64537   0.45781   0.75000   0.00000  Uiso   1.00
C714   C     0.35463   0.54218   0.75001   0.00000  Uiso   1.00
C715   C     0.47710   0.53281   0.54654   0.00000  Uiso   1.00
C716   C     0.47762   0.46528   0.95144   0.00000  Uiso   1.00
C717   C     0.52270   0.53302   0.95345   0.00000  Uiso   1.00
C718   C     0.52269   0.46549   0.54860   0.00000  Uiso   1.00
C719   C     0.47775   0.53336   0.59265   0.00000  Uiso   1.00
C720   C     0.47817   0.46542   0.90534   0.00000  Uiso   1.00
C721   C     0.52202   0.53358   0.90734   0.00000  Uiso   1.00
C722   C     0.52212   0.46563   0.59470   0.00000  Uiso   1.00
C723   C     0.50000   0.49974   0.61681   0.00000  Uiso   1.00
C724   C     0.50002   0.49974   0.88320   0.00000  Uiso   1.00
C725   C     0.49992   0.49903   0.52428   0.00000  Uiso   1.00
C726   C     0.50016   0.49902   0.97574   0.00000  Uiso   1.00
C727   C     0.62389   0.50000   0.75002   0.00000  Uiso   1.00
C728   C     0.37611   0.49999   0.74998   0.00000  Uiso   1.00
Cu729  Cu    0.50000   0.54689   0.75000   0.00000  Uiso   1.00
Cu730  Cu    0.50000   0.45311   0.75000   0.00000  Uiso   1.00
H731   H     0.46013   0.55941   0.60955   0.00000  Uiso   1.00
H732   H     0.46083   0.43934   0.88675   0.00000  Uiso   1.00
H733   H     0.53941   0.55981   0.89044   0.00000  Uiso   1.00
H734   H     0.53963   0.43971   0.61330   0.00000  Uiso   1.00
H735   H     0.37061   0.42481   0.75003   0.00000  Uiso   1.00
H736   H     0.62940   0.57518   0.74994   0.00000  Uiso   1.00
H737   H     0.62939   0.42481   0.74996   0.00000  Uiso   1.00
H738   H     0.37060   0.57518   0.75006   0.00000  Uiso   1.00
N739   N     0.50000   0.61736   0.75000   0.00000  Uiso   1.00
N740   N     0.50000   0.38264   0.75000   0.00000  Uiso   1.00
O741   O     0.43988   0.53958   0.74999   0.00000  Uiso   1.00
O742   O     0.56012   0.46042   0.75000   0.00000  Uiso   1.00
O743   O     0.56012   0.53958   0.75000   0.00000  Uiso   1.00
O744   O     0.43988   0.46042   0.74999   0.00000  Uiso   1.00
O745   O     0.50000   0.53959   0.68573   0.00000  Uiso   1.00
O746   O     0.50000   0.46041   0.81427   0.00000  Uiso   1.00
O747   O     0.50000   0.53959   0.81427   0.00000  Uiso   1.00
O748   O     0.50000   0.46041   0.68573   0.00000  Uiso   1.00
Cl749  Cl    0.43967   0.38728   0.68506   0.00000  Uiso   1.00
Cl750  Cl    0.56126   0.61291   0.81392   0.00000  Uiso   1.00
Cl751  Cl    0.56033   0.38729   0.81494   0.00000  Uiso   1.00
Cl752  Cl    0.43875   0.61290   0.68607   0.00000  Uiso   1.00
Cl753  Cl    0.44684   0.57443   0.51765   0.00000  Uiso   1.00
Cl754  Cl    0.44777   0.42298   0.97772   0.00000  Uiso   1.00
Cl755  Cl    0.55260   0.57498   0.98232   0.00000  Uiso   1.00
Cl756  Cl    0.55284   0.42345   0.52235   0.00000  Uiso   1.00
C757   C     0.75410   0.50000   0.74995   0.00000  Uiso   1.00
C758   C     0.91257   0.50000   0.75005   0.00000  Uiso   1.00
C759   C     0.83328   0.49997   0.66507   0.00000  Uiso   1.00
C760   C     0.83339   0.49997   0.83493   0.00000  Uiso   1.00
C761   C     0.80717   0.35804   0.72210   0.00000  Uiso   1.00
C762   C     0.85966   0.64201   0.77772   0.00000  Uiso   1.00
C763   C     0.85950   0.35804   0.77790   0.00000  Uiso   1.00
C764   C     0.80701   0.64200   0.72228   0.00000  Uiso   1.00
C765   C     0.68796   0.45781   0.75000   0.00000  Uiso   1.00
C766   C     0.97871   0.54218   0.74999   0.00000  Uiso   1.00
C767   C     0.97871   0.45781   0.75000   0.00000  Uiso   1.00
C768   C     0.68796   0.54218   0.75001   0.00000  Uiso   1.00
C769   C     0.81043   0.53281   0.54654   0.00000  Uiso   1.00
C770   C     0.81096   0.46528   0.95144   0.00000  Uiso   1.00
C771   C     0.85603   0.53302   0.95345   0.00000  Uiso   1.00
C772   C     0.85603   0.46549   0.54860   0.00000  Uiso   1.00
C773   C     0.81108   0.53336   0.59265   0.00000  Uiso   1.00
C774   C     0.81150   0.46542   0.90534   0.00000  Uiso   1.00
C775   C     0.85535   0.53358   0.90734   0.00000  Uiso   1.00
C776   C     0.85545   0.46563   0.59470   0.00000  Uiso   1.00
C777   C     0.83333   0.49974   0.61681   0.00000  Uiso   1.00
C778   C     0.83335   0.49974   0.88320   0.00000  Uiso   1.00
C779   C     0.83326   0.49903   0.52428   0.00000  Uiso   1.00
C780   C     0.83349   0.49902   0.97574   0.00000  Uiso   1.00
C781   C     0.95722   0.50000   0.75002   0.00000  Uiso   1.00
C782   C     0.70944   0.49999   0.74998   0.00000  Uiso   1.00
Cu783  Cu    0.83333   0.54689   0.75000   0.00000  Uiso   1.00
Cu784  Cu    0.83333   0.45311   0.75000   0.00000  Uiso   1.00
H785   H     0.79346   0.55941   0.60955   0.00000  Uiso   1.00
H786   H     0.79417   0.43934   0.88675   0.00000  Uiso   1.00
H787   H     0.87275   0.55981   0.89044   0.00000  Uiso   1.00
H788   H     0.87296   0.43971   0.61330   0.00000  Uiso   1.00
H789   H     0.70394   0.42481   0.75003   0.00000  Uiso   1.00
H790   H     0.96273   0.57518   0.74994   0.00000  Uiso   1.00
H791   H     0.96272   0.42481   0.74996   0.00000  Uiso   1.00
H792   H     0.70394   0.57518   0.75006   0.00000  Uiso   1.00
N793   N     0.83333   0.61736   0.75000   0.00000  Uiso   1.00
N794   N     0.83333   0.38264   0.75000   0.00000  Uiso   1.00
O795   O     0.77321   0.53958   0.74999   0.00000  Uiso   1.00
O796   O     0.89345   0.46042   0.75000   0.00000  Uiso   1.00
O797   O     0.89345   0.53958   0.75000   0.00000  Uiso   1.00
O798   O     0.77321   0.46042   0.74999   0.00000  Uiso   1.00
O799   O     0.83333   0.53959   0.68573   0.00000  Uiso   1.00
O800   O     0.83334   0.46041   0.81427   0.00000  Uiso   1.00
O801   O     0.83334   0.53959   0.81427   0.00000  Uiso   1.00
O802   O     0.83333   0.46041   0.68573   0.00000  Uiso   1.00
Cl803  Cl    0.77300   0.38728   0.68506   0.00000  Uiso   1.00
Cl804  Cl    0.89459   0.61291   0.81392   0.00000  Uiso   1.00
Cl805  Cl    0.89367   0.38729   0.81494   0.00000  Uiso   1.00
Cl806  Cl    0.77209   0.61290   0.68607   0.00000  Uiso   1.00
Cl807  Cl    0.78018   0.57443   0.51765   0.00000  Uiso   1.00
Cl808  Cl    0.78110   0.42298   0.97772   0.00000  Uiso   1.00
Cl809  Cl    0.88593   0.57498   0.98232   0.00000  Uiso   1.00
Cl810  Cl    0.88617   0.42345   0.52235   0.00000  Uiso   1.00
C811   C     0.08743   0.83333   0.74995   0.00000  Uiso   1.00
C812   C     0.24590   0.83333   0.75005   0.00000  Uiso   1.00
C813   C     0.16661   0.83330   0.66507   0.00000  Uiso   1.00
C814   C     0.16672   0.83330   0.83493   0.00000  Uiso   1.00
C815   C     0.14050   0.69138   0.72210   0.00000  Uiso   1.00
C816   C     0.19299   0.97534   0.77772   0.00000  Uiso   1.00
C817   C     0.19284   0.69138   0.77790   0.00000  Uiso   1.00
C818   C     0.14035   0.97534   0.72228   0.00000  Uiso   1.00
C819   C     0.02129   0.79114   0.75000   0.00000  Uiso   1.00
C820   C     0.31204   0.87551   0.74999   0.00000  Uiso   1.00
C821   C     0.31204   0.79114   0.75000   0.00000  Uiso   1.00
C822   C     0.02129   0.87551   0.75001   0.00000  Uiso   1.00
C823   C     0.14377   0.86615   0.54654   0.00000  Uiso   1.00
C824   C     0.14429   0.79861   0.95144   0.00000  Uiso   1.00
C825   C     0.18936   0.86636   0.95345   0.00000  Uiso   1.00
C826   C     0.18936   0.79883   0.54860   0.00000  Uiso   1.00
C827   C     0.14442   0.86670   0.59265   0.00000  Uiso   1.00
C828   C     0.14483   0.79875   0.90534   0.00000  Uiso   1.00
C829   C     0.18869   0.86691   0.90734   0.00000  Uiso   1.00
C830   C     0.18879   0.79896   0.59470   0.00000  Uiso   1.00
C831   C     0.16667   0.83307   0.61681   0.00000  Uiso   1.00
C832   C     0.16668   0.83307   0.88320   0.00000  Uiso   1.00
C833   C     0.16659   0.83236   0.52428   0.00000  Uiso   1.00
C834   C     0.16682   0.83235   0.97574   0.00000  Uiso   1.00
C835   C     0.29056   0.83333   0.75002   0.00000  Uiso   1.00
C836   C     0.04278   0.83333   0.74998   0.00000  Uiso   1.00
Cu837  Cu    0.16667   0.88022   0.75000   0.00000  Uiso   1.00
Cu838  Cu    0.16667   0.78645   0.75000   0.00000  Uiso   1.00
H839   H     0.12680   0.89274   0.60955   0.00000  Uiso   1.00
H840   H     0.12750   0.77267   0.88675   0.00000  Uiso   1.00
H841   H     0.20608   0.89314   0.89044   0.00000  Uiso   1.00
H842   H     0.20629   0.77304   0.61330   0.00000  Uiso   1.00
H843   H     0.03728   0.75814   0.75003   0.00000  Uiso   1.00
H844   H     0.29606   0.90852   0.74994   0.00000  Uiso   1.00
H845   H     0.29606   0.75814   0.74996   0.00000  Uiso   1.00
H846   H     0.03727   0.90851   0.75006   0.00000  Uiso   1.00
N847   N     0.16667   0.95069   0.75000   0.00000  Uiso   1.00
N848   N     0.16667   0.71598   0.75000   0.00000  Uiso   1.00
O849   O     0.10655   0.87291   0.74999   0.00000  Uiso   1.00
O850   O     0.22679   0.79375   0.75000   0.00000  Uiso   1.00
O851   O     0.22679   0.87291   0.75000   0.00000  Uiso   1.00
O852   O     0.10655   0.79375   0.74999   0.00000  Uiso   1.00
O853   O     0.16666   0.87293   0.68573   0.00000  Uiso   1.00
O854   O     0.16667   0.79374   0.81427   0.00000  Uiso   1.00
O855   O     0.16667   0.87293   0.81427   0.00000  Uiso   1.00
O856   O     0.16666   0.79374   0.68573   0.00000  Uiso   1.00
Cl857  Cl    0.10633   0.72061   0.68506   0.00000  Uiso   1.00
Cl858  Cl    0.22792   0.94624   0.81392   0.00000  Uiso   1.00
Cl859  Cl    0.22700   0.72062   0.81494   0.00000  Uiso   1.00
Cl860  Cl    0.10542   0.94623   0.68607   0.00000  Uiso   1.00
Cl861  Cl    0.11351   0.90776   0.51765   0.00000  Uiso   1.00
Cl862  Cl    0.11443   0.75632   0.97772   0.00000  Uiso   1.00
Cl863  Cl    0.21926   0.90831   0.98232   0.00000  Uiso   1.00
Cl864  Cl    0.21951   0.75679   0.52235   0.00000  Uiso   1.00
C865   C     0.42077   0.83333   0.74995   0.00000  Uiso   1.00
C866   C     0.57923   0.83333   0.75005   0.00000  Uiso   1.00
C867   C     0.49994   0.83330   0.66507   0.00000  Uiso   1.00
C868   C     0.50005   0.83330   0.83493   0.00000  Uiso   1.00
C869   C     0.47383   0.69138   0.72210   0.00000  Uiso   1.00
C870   C     0.52632   0.97534   0.77772   0.00000  Uiso   1.00
C871   C     0.52617   0.69138   0.77790   0.00000  Uiso   1.00
C872   C     0.47368   0.97534   0.72228   0.00000  Uiso   1.00
C873   C     0.35463   0.79114   0.75000   0.00000  Uiso   1.00
C874   C     0.64538   0.87551   0.74999   0.00000  Uiso   1.00
C875   C     0.64537   0.79114   0.75000   0.00000  Uiso   1.00
C876   C     0.35463   0.87551   0.75001   0.00000  Uiso   1.00
C877   C     0.47710   0.86615   0.54654   0.00000  Uiso   1.00
C878   C     0.47762   0.79861   0.95144   0.00000  Uiso   1.00
C879   C     0.52270   0.86636   0.95345   0.00000  Uiso   1.00
C880   C     0.52269   0.79883   0.54860   0.00000  Uiso   1.00
C881   C     0.47775   0.86670   0.59265   0.00000  Uiso   1.00
C882   C     0.47817   0.79875   0.90534   0.00000  Uiso   1.00
C883   C     0.52202   0.86691   0.90734   0.00000  Uiso   1.00
C884   C     0.52212   0.79896   0.59470   0.00000  Uiso   1.00
C885   C     0.50000   0.83307   0.61681   0.00000  Uiso   1.00
C886   C     0.50002   0.83307   0.88320   0.00000  Uiso   1.00
C887   C     0.49992   0.83236   0.52428   0.00000  Uiso   1.00
C888   C     0.50016   0.83235   0.97574   0.00000  Uiso   1.00
C889   C     0.62389   0.83333   0.75002   0.00000  Uiso   1.00
C890   C     0.37611   0.83333   0.74998   0.00000  Uiso   1.00
Cu891  Cu    0.50000   0.88022   0.75000   0.00000  Uiso   1.00
Cu892  Cu    0.50000   0.78645   0.75000   0.00000  Uiso   1.00
H893   H     0.46013   0.89274   0.60955   0.00000  Uiso   1.00
H894   H     0.46083   0.77267   0.88675   0.00000  Uiso   1.00
H895   H     0.53941   0.89314   0.89044   0.00000  Uiso   1.00
H896   H     0.53963   0.77304   0.61330   0.00000  Uiso   1.00
H897   H     0.37061   0.75814   0.75003   0.00000  Uiso   1.00
H898   H     0.62940   0.90852   0.74994   0.00000  Uiso   1.00
H899   H     0.62939   0.75814   0.74996   0.00000  Uiso   1.00
H900   H     0.37060   0.90851   0.75006   0.00000  Uiso   1.00
N901   N     0.50000   0.95069   0.75000   0.00000  Uiso   1.00
N902   N     0.50000   0.71598   0.75000   0.00000  Uiso   1.00
O903   O     0.43988   0.87291   0.74999   0.00000  Uiso   1.00
O904   O     0.56012   0.79375   0.75000   0.00000  Uiso   1.00
O905   O     0.56012   0.87291   0.75000   0.00000  Uiso   1.00
O906   O     0.43988   0.79375   0.74999   0.00000  Uiso   1.00
O907   O     0.50000   0.87293   0.68573   0.00000  Uiso   1.00
O908   O     0.50000   0.79374   0.81427   0.00000  Uiso   1.00
O909   O     0.50000   0.87293   0.81427   0.00000  Uiso   1.00
O910   O     0.50000   0.79374   0.68573   0.00000  Uiso   1.00
Cl911  Cl    0.43967   0.72061   0.68506   0.00000  Uiso   1.00
Cl912  Cl    0.56126   0.94624   0.81392   0.00000  Uiso   1.00
Cl913  Cl    0.56033   0.72062   0.81494   0.00000  Uiso   1.00
Cl914  Cl    0.43875   0.94623   0.68607   0.00000  Uiso   1.00
Cl915  Cl    0.44684   0.90776   0.51765   0.00000  Uiso   1.00
Cl916  Cl    0.44777   0.75632   0.97772   0.00000  Uiso   1.00
Cl917  Cl    0.55260   0.90831   0.98232   0.00000  Uiso   1.00
Cl918  Cl    0.55284   0.75679   0.52235   0.00000  Uiso   1.00
C919   C     0.75410   0.83333   0.74995   0.00000  Uiso   1.00
C920   C     0.91257   0.83333   0.75005   0.00000  Uiso   1.00
C921   C     0.83328   0.83330   0.66507   0.00000  Uiso   1.00
C922   C     0.83339   0.83330   0.83493   0.00000  Uiso   1.00
C923   C     0.80717   0.69138   0.72210   0.00000  Uiso   1.00
C924   C     0.85966   0.97534   0.77772   0.00000  Uiso   1.00
C925   C     0.85950   0.69138   0.77790   0.00000  Uiso   1.00
C926   C     0.80701   0.97534   0.72228   0.00000  Uiso   1.00
C927   C     0.68796   0.79114   0.75000   0.00000  Uiso   1.00
C928   C     0.97871   0.87551   0.74999   0.00000  Uiso   1.00
C929   C     0.97871   0.79114   0.75000   0.00000  Uiso   1.00
C930   C     0.68796   0.87551   0.75001   0.00000  Uiso   1.00
C931   C     0.81043   0.86615   0.54654   0.00000  Uiso   1.00
C932   C     0.81096   0.79861   0.95144   0.00000  Uiso   1.00
C933   C     0.85603   0.86636   0.95345   0.00000  Uiso   1.00
C934   C     0.85603   0.79883   0.54860   0.00000  Uiso   1.00
C935   C     0.81108   0.86670   0.59265   0.00000  Uiso   1.00
C936   C     0.81150   0.79875   0.90534   0.00000  Uiso   1.00
C937   C     0.85535   0.86691   0.90734   0.00000  Uiso   1.00
C938   C     0.85545   0.79896   0.59470   0.00000  Uiso   1.00
C939   C     0.83333   0.83307   0.61681   0.00000  Uiso   1.00
C940   C     0.83335   0.83307   0.88320   0.00000  Uiso   1.00
C941   C     0.83326   0.83236   0.52428   0.00000  Uiso   1.00
C942   C     0.83349   0.83235   0.97574   0.00000  Uiso   1.00
C943   C     0.95722   0.83333   0.75002   0.00000  Uiso   1.00
C944   C     0.70944   0.83333   0.74998   0.00000  Uiso   1.00
Cu945  Cu    0.83333   0.88022   0.75000   0.00000  Uiso   1.00
Cu946  Cu    0.83333   0.78645   0.75000   0.00000  Uiso   1.00
H947   H     0.79346   0.89274   0.60955   0.00000  Uiso   1.00
H948   H     0.79417   0.77267   0.88675   0.00000  Uiso   1.00
H949   H     0.87275   0.89314   0.89044   0.00000  Uiso   1.00
H950   H     0.87296   0.77304   0.61330   0.00000  Uiso   1.00
H951   H     0.70394   0.75814   0.75003   0.00000  Uiso   1.00
H952   H     0.96273   0.90852   0.74994   0.00000  Uiso   1.00
H953   H     0.96272   0.75814   0.74996   0.00000  Uiso   1.00
H954   H     0.70394   0.90851   0.75006   0.00000  Uiso   1.00
N955   N     0.83333   0.95069   0.75000   0.00000  Uiso   1.00
N956   N     0.83333   0.71598   0.75000   0.00000  Uiso   1.00
O957   O     0.77321   0.87291   0.74999   0.00000  Uiso   1.00
O958   O     0.89345   0.79375   0.75000   0.00000  Uiso   1.00
O959   O     0.89345   0.87291   0.75000   0.00000  Uiso   1.00
O960   O     0.77321   0.79375   0.74999   0.00000  Uiso   1.00
O961   O     0.83333   0.87293   0.68573   0.00000  Uiso   1.00
O962   O     0.83334   0.79374   0.81427   0.00000  Uiso   1.00
O963   O     0.83334   0.87293   0.81427   0.00000  Uiso   1.00
O964   O     0.83333   0.79374   0.68573   0.00000  Uiso   1.00
Cl965  Cl    0.77300   0.72061   0.68506   0.00000  Uiso   1.00
Cl966  Cl    0.89459   0.94624   0.81392   0.00000  Uiso   1.00
Cl967  Cl    0.89367   0.72062   0.81494   0.00000  Uiso   1.00
Cl968  Cl    0.77209   0.94623   0.68607   0.00000  Uiso   1.00
Cl969  Cl    0.78018   0.90776   0.51765   0.00000  Uiso   1.00
Cl970  Cl    0.78110   0.75632   0.97772   0.00000  Uiso   1.00
Cl971  Cl    0.88593   0.90831   0.98232   0.00000  Uiso   1.00
Cl972  Cl    0.88617   0.75679   0.52235   0.00000  Uiso   1.00
loop_
_geom_bond_atom_site_label_1
_geom_bond_atom_site_label_2
_geom_bond_distance
_geom_bond_site_symmetry_2
_ccdc_geom_bond_type
C1     C26     1.451   .     S
C1     O39     1.298   .     A
C1     O42     1.298   .     A
C2     O40     1.298   .     A
C2     C25     1.451   .     S
C2     O41     1.298   .     A
C3     O46     1.299   .     A
C3     O43     1.300   .     A
C3     C21     1.457   .     S
C4     C22     1.457   .     S
C4     O45     1.301   .     A
C4     O44     1.299   .     A
C5     N38     1.373   .     A
C5     Cl47    1.763   .     S
C5     C332    1.422   1_545 S
C6     N37     1.374   .     A
C6     Cl48    1.761   .     S
C6     C169    1.422   .     S
C7     Cl49    1.763   .     S
C7     N38     1.373   .     A
C7     C330    1.422   1_545 S
C8     N37     1.374   .     A
C8     Cl50    1.761   .     S
C8     C167    1.422   .     S
C9     H33     1.083   .     S
C9     C26     1.401   .     A
C9     C119    1.383   1_455 S
C10    H34     1.083   .     S
C10    C25     1.401   .     A
C10    C66     1.383   .     S
C11    H35     1.083   .     S
C11    C25     1.401   .     A
C11    C63     1.383   .     S
C12    H36     1.083   .     S
C12    C26     1.401   .     A
C12    C118    1.383   1_455 S
C13    C17     1.391   .     A
C13    Cl51    1.762   .     S
C13    C23     1.408   .     A
C14    C24     1.408   .     A
C14    C18     1.392   .     A
C14    Cl52    1.762   .     S
C15    C19     1.391   .     A
C15    C24     1.408   .     A
C15    Cl53    1.762   .     S
C16    C20     1.392   .     A
C16    C23     1.408   .     A
C16    Cl54    1.762   .     S
C17    H29     1.082   .     S
C17    C21     1.399   .     A
C18    H30     1.084   .     S
C18    C22     1.400   .     A
C19    H31     1.082   .     S
C19    C22     1.399   .     A
C20    C21     1.400   .     A
C20    H32     1.084   .     S
C23    C510    1.465   1_554 S
C24    C509    1.465   .     S
Cu27   O41     1.964   .     S
Cu27   O45     1.951   .     S
Cu27   N37     2.030   .     S
Cu27   O39     1.964   .     S
Cu27   O43     1.951   .     S
Cu27   Cu28    2.701   .     S
Cu28   N38     2.030   .     S
Cu28   O46     1.951   .     S
Cu28   O42     1.964   .     S
Cu28   O40     1.964   .     S
Cu28   O44     1.951   .     S
C55    C80     1.451   .     S
C55    O93     1.298   .     A
C55    O96     1.298   .     A
C56    O94     1.298   .     A
C56    C79     1.451   .     S
C56    O95     1.298   .     A
C57    O100    1.299   .     A
C57    O97     1.300   .     A
C57    C75     1.457   .     S
C58    C76     1.457   .     S
C58    O99     1.301   .     A
C58    O98     1.299   .     A
C59    N92     1.373   .     A
C59    Cl101   1.763   .     S
C59    C386    1.422   1_545 S
C60    N91     1.374   .     A
C60    Cl102   1.761   .     S
C60    C223    1.422   .     S
C61    Cl103   1.763   .     S
C61    N92     1.373   .     A
C61    C384    1.422   1_545 S
C62    N91     1.374   .     A
C62    Cl104   1.761   .     S
C62    C221    1.422   .     S
C63    H87     1.083   .     S
C63    C80     1.401   .     A
C64    H88     1.083   .     S
C64    C79     1.401   .     A
C64    C120    1.383   .     S
C65    H89     1.083   .     S
C65    C79     1.401   .     A
C65    C117    1.383   .     S
C66    H90     1.083   .     S
C66    C80     1.401   .     A
C67    C71     1.391   .     A
C67    Cl105   1.762   .     S
C67    C77     1.408   .     A
C68    C78     1.408   .     A
C68    C72     1.392   .     A
C68    Cl106   1.762   .     S
C69    C73     1.391   .     A
C69    C78     1.408   .     A
C69    Cl107   1.762   .     S
C70    C74     1.392   .     A
C70    C77     1.408   .     A
C70    Cl108   1.762   .     S
C71    H83     1.082   .     S
C71    C75     1.399   .     A
C72    H84     1.084   .     S
C72    C76     1.400   .     A
C73    H85     1.082   .     S
C73    C76     1.399   .     A
C74    C75     1.400   .     A
C74    H86     1.084   .     S
C77    C564    1.465   1_554 S
C78    C563    1.465   .     S
Cu81   O95     1.964   .     S
Cu81   O99     1.951   .     S
Cu81   N91     2.030   .     S
Cu81   O93     1.964   .     S
Cu81   O97     1.951   .     S
Cu81   Cu82    2.701   .     S
Cu82   N92     2.030   .     S
Cu82   O100    1.951   .     S
Cu82   O96     1.964   .     S
Cu82   O94     1.964   .     S
Cu82   O98     1.951   .     S
C109   C134    1.451   .     S
C109   O147    1.298   .     A
C109   O150    1.298   .     A
C110   O148    1.298   .     A
C110   C133    1.451   .     S
C110   O149    1.298   .     A
C111   O154    1.299   .     A
C111   O151    1.300   .     A
C111   C129    1.457   .     S
C112   C130    1.457   .     S
C112   O153    1.301   .     A
C112   O152    1.299   .     A
C113   N146    1.373   .     A
C113   Cl155   1.763   .     S
C113   C440    1.422   1_545 S
C114   N145    1.374   .     A
C114   Cl156   1.761   .     S
C114   C277    1.422   .     S
C115   Cl157   1.763   .     S
C115   N146    1.373   .     A
C115   C438    1.422   1_545 S
C116   N145    1.374   .     A
C116   Cl158   1.761   .     S
C116   C275    1.422   .     S
C117   H141    1.083   .     S
C117   C134    1.401   .     A
C118   H142    1.083   .     S
C118   C133    1.401   .     A
C118   C12     1.383   1_655 S
C119   H143    1.083   .     S
C119   C133    1.401   .     A
C119   C9      1.383   1_655 S
C120   H144    1.083   .     S
C120   C134    1.401   .     A
C121   C125    1.391   .     A
C121   Cl159   1.762   .     S
C121   C131    1.408   .     A
C122   C132    1.408   .     A
C122   C126    1.392   .     A
C122   Cl160   1.762   .     S
C123   C127    1.391   .     A
C123   C132    1.408   .     A
C123   Cl161   1.762   .     S
C124   C128    1.392   .     A
C124   C131    1.408   .     A
C124   Cl162   1.762   .     S
C125   H137    1.082   .     S
C125   C129    1.399   .     A
C126   H138    1.084   .     S
C126   C130    1.400   .     A
C127   H139    1.082   .     S
C127   C130    1.399   .     A
C128   C129    1.400   .     A
C128   H140    1.084   .     S
C131   C618    1.465   1_554 S
C132   C617    1.465   .     S
Cu135  O149    1.964   .     S
Cu135  O153    1.951   .     S
Cu135  N145    2.030   .     S
Cu135  O147    1.964   .     S
Cu135  O151    1.951   .     S
Cu135  Cu136   2.701   .     S
Cu136  N146    2.030   .     S
Cu136  O154    1.951   .     S
Cu136  O150    1.964   .     S
Cu136  O148    1.964   .     S
Cu136  O152    1.951   .     S
C163   C188    1.451   .     S
C163   O201    1.298   .     A
C163   O204    1.298   .     A
C164   O202    1.298   .     A
C164   C187    1.451   .     S
C164   O203    1.298   .     A
C165   O208    1.299   .     A
C165   O205    1.300   .     A
C165   C183    1.457   .     S
C166   C184    1.457   .     S
C166   O207    1.301   .     A
C166   O206    1.299   .     A
C167   N200    1.373   .     A
C167   Cl209   1.763   .     S
C168   N199    1.374   .     A
C168   Cl210   1.761   .     S
C168   C331    1.422   .     S
C169   Cl211   1.763   .     S
C169   N200    1.373   .     A
C170   N199    1.374   .     A
C170   Cl212   1.761   .     S
C170   C329    1.422   .     S
C171   H195    1.083   .     S
C171   C188    1.401   .     A
C171   C281    1.383   1_455 S
C172   H196    1.083   .     S
C172   C187    1.401   .     A
C172   C228    1.383   .     S
C173   H197    1.083   .     S
C173   C187    1.401   .     A
C173   C225    1.383   .     S
C174   H198    1.083   .     S
C174   C188    1.401   .     A
C174   C280    1.383   1_455 S
C175   C179    1.391   .     A
C175   Cl213   1.762   .     S
C175   C185    1.408   .     A
C176   C186    1.408   .     A
C176   C180    1.392   .     A
C176   Cl214   1.762   .     S
C177   C181    1.391   .     A
C177   C186    1.408   .     A
C177   Cl215   1.762   .     S
C178   C182    1.392   .     A
C178   C185    1.408   .     A
C178   Cl216   1.762   .     S
C179   H191    1.082   .     S
C179   C183    1.399   .     A
C180   H192    1.084   .     S
C180   C184    1.400   .     A
C181   H193    1.082   .     S
C181   C184    1.399   .     A
C182   C183    1.400   .     A
C182   H194    1.084   .     S
C185   C672    1.465   1_554 S
C186   C671    1.465   .     S
Cu189  O203    1.964   .     S
Cu189  O207    1.951   .     S
Cu189  N199    2.030   .     S
Cu189  O201    1.964   .     S
Cu189  O205    1.951   .     S
Cu189  Cu190   2.701   .     S
Cu190  N200    2.030   .     S
Cu190  O208    1.951   .     S
Cu190  O204    1.964   .     S
Cu190  O202    1.964   .     S
Cu190  O206    1.951   .     S
C217   C242    1.451   .     S
C217   O255    1.298   .     A
C217   O258    1.298   .     A
C218   O256    1.298   .     A
C218   C241    1.451   .     S
C218   O257    1.298   .     A
C219   O262    1.299   .     A
C219   O259    1.300   .     A
C219   C237    1.457   .     S
C220   C238    1.457   .     S
C220   O261    1.301   .     A
C220   O260    1.299   .     A
C221   N254    1.373   .     A
C221   Cl263   1.763   .     S
C222   N253    1.374   .     A
C222   Cl264   1.761   .     S
C222   C385    1.422   .     S
C223   Cl265   1.763   .     S
C223   N254    1.373   .     A
C224   N253    1.374   .     A
C224   Cl266   1.761   .     S
C224   C383    1.422   .     S
C225   H249    1.083   .     S
C225   C242    1.401   .     A
C226   H250    1.083   .     S
C226   C241    1.401   .     A
C226   C282    1.383   .     S
C227   H251    1.083   .     S
C227   C241    1.401   .     A
C227   C279    1.383   .     S
C228   H252    1.083   .     S
C228   C242    1.401   .     A
C229   C233    1.391   .     A
C229   Cl267   1.762   .     S
C229   C239    1.408   .     A
C230   C240    1.408   .     A
C230   C234    1.392   .     A
C230   Cl268   1.762   .     S
C231   C235    1.391   .     A
C231   C240    1.408   .     A
C231   Cl269   1.762   .     S
C232   C236    1.392   .     A
C232   C239    1.408   .     A
C232   Cl270   1.762   .     S
C233   H245    1.082   .     S
C233   C237    1.399   .     A
C234   H246    1.084   .     S
C234   C238    1.400   .     A
C235   H247    1.082   .     S
C235   C238    1.399   .     A
C236   C237    1.400   .     A
C236   H248    1.084   .     S
C239   C726    1.465   1_554 S
C240   C725    1.465   .     S
Cu243  O257    1.964   .     S
Cu243  O261    1.951   .     S
Cu243  N253    2.030   .     S
Cu243  O255    1.964   .     S
Cu243  O259    1.951   .     S
Cu243  Cu244   2.701   .     S
Cu244  N254    2.030   .     S
Cu244  O262    1.951   .     S
Cu244  O258    1.964   .     S
Cu244  O256    1.964   .     S
Cu244  O260    1.951   .     S
C271   C296    1.451   .     S
C271   O309    1.298   .     A
C271   O312    1.298   .     A
C272   O310    1.298   .     A
C272   C295    1.451   .     S
C272   O311    1.298   .     A
C273   O316    1.299   .     A
C273   O313    1.300   .     A
C273   C291    1.457   .     S
C274   C292    1.457   .     S
C274   O315    1.301   .     A
C274   O314    1.299   .     A
C275   N308    1.373   .     A
C275   Cl317   1.763   .     S
C276   N307    1.374   .     A
C276   Cl318   1.761   .     S
C276   C439    1.422   .     S
C277   Cl319   1.763   .     S
C277   N308    1.373   .     A
C278   N307    1.374   .     A
C278   Cl320   1.761   .     S
C278   C437    1.422   .     S
C279   H303    1.083   .     S
C279   C296    1.401   .     A
C280   H304    1.083   .     S
C280   C295    1.401   .     A
C280   C174    1.383   1_655 S
C281   H305    1.083   .     S
C281   C295    1.401   .     A
C281   C171    1.383   1_655 S
C282   H306    1.083   .     S
C282   C296    1.401   .     A
C283   C287    1.391   .     A
C283   Cl321   1.762   .     S
C283   C293    1.408   .     A
C284   C294    1.408   .     A
C284   C288    1.392   .     A
C284   Cl322   1.762   .     S
C285   C289    1.391   .     A
C285   C294    1.408   .     A
C285   Cl323   1.762   .     S
C286   C290    1.392   .     A
C286   C293    1.408   .     A
C286   Cl324   1.762   .     S
C287   H299    1.082   .     S
C287   C291    1.399   .     A
C288   H300    1.084   .     S
C288   C292    1.400   .     A
C289   H301    1.082   .     S
C289   C292    1.399   .     A
C290   C291    1.400   .     A
C290   H302    1.084   .     S
C293   C780    1.465   1_554 S
C294   C779    1.465   .     S
Cu297  O311    1.964   .     S
Cu297  O315    1.951   .     S
Cu297  N307    2.030   .     S
Cu297  O309    1.964   .     S
Cu297  O313    1.951   .     S
Cu297  Cu298   2.701   .     S
Cu298  N308    2.030   .     S
Cu298  O316    1.951   .     S
Cu298  O312    1.964   .     S
Cu298  O310    1.964   .     S
Cu298  O314    1.951   .     S
C325   C350    1.451   .     S
C325   O363    1.298   .     A
C325   O366    1.298   .     A
C326   O364    1.298   .     A
C326   C349    1.451   .     S
C326   O365    1.298   .     A
C327   O370    1.299   .     A
C327   O367    1.300   .     A
C327   C345    1.457   .     S
C328   C346    1.457   .     S
C328   O369    1.301   .     A
C328   O368    1.299   .     A
C329   N362    1.373   .     A
C329   Cl371   1.763   .     S
C330   N361    1.374   .     A
C330   Cl372   1.761   .     S
C330   C7      1.422   1_565 S
C331   Cl373   1.763   .     S
C331   N362    1.373   .     A
C332   N361    1.374   .     A
C332   Cl374   1.761   .     S
C332   C5      1.422   1_565 S
C333   H357    1.083   .     S
C333   C350    1.401   .     A
C333   C443    1.383   1_455 S
C334   H358    1.083   .     S
C334   C349    1.401   .     A
C334   C390    1.383   .     S
C335   H359    1.083   .     S
C335   C349    1.401   .     A
C335   C387    1.383   .     S
C336   H360    1.083   .     S
C336   C350    1.401   .     A
C336   C442    1.383   1_455 S
C337   C341    1.391   .     A
C337   Cl375   1.762   .     S
C337   C347    1.408   .     A
C338   C348    1.408   .     A
C338   C342    1.392   .     A
C338   Cl376   1.762   .     S
C339   C343    1.391   .     A
C339   C348    1.408   .     A
C339   Cl377   1.762   .     S
C340   C344    1.392   .     A
C340   C347    1.408   .     A
C340   Cl378   1.762   .     S
C341   H353    1.082   .     S
C341   C345    1.399   .     A
C342   H354    1.084   .     S
C342   C346    1.400   .     A
C343   H355    1.082   .     S
C343   C346    1.399   .     A
C344   C345    1.400   .     A
C344   H356    1.084   .     S
C347   C834    1.465   1_554 S
C348   C833    1.465   .     S
Cu351  O365    1.964   .     S
Cu351  O369    1.951   .     S
Cu351  N361    2.030   .     S
Cu351  O363    1.964   .     S
Cu351  O367    1.951   .     S
Cu351  Cu352   2.701   .     S
Cu352  N362    2.030   .     S
Cu352  O370    1.951   .     S
Cu352  O366    1.964   .     S
Cu352  O364    1.964   .     S
Cu352  O368    1.951   .     S
C379   C404    1.451   .     S
C379   O417    1.298   .     A
C379   O420    1.298   .     A
C380   O418    1.298   .     A
C380   C403    1.451   .     S
C380   O419    1.298   .     A
C381   O424    1.299   .     A
C381   O421    1.300   .     A
C381   C399    1.457   .     S
C382   C400    1.457   .     S
C382   O423    1.301   .     A
C382   O422    1.299   .     A
C383   N416    1.373   .     A
C383   Cl425   1.763   .     S
C384   N415    1.374   .     A
C384   Cl426   1.761   .     S
C384   C61     1.422   1_565 S
C385   Cl427   1.763   .     S
C385   N416    1.373   .     A
C386   N415    1.374   .     A
C386   Cl428   1.761   .     S
C386   C59     1.422   1_565 S
C387   H411    1.083   .     S
C387   C404    1.401   .     A
C388   H412    1.083   .     S
C388   C403    1.401   .     A
C388   C444    1.383   .     S
C389   H413    1.083   .     S
C389   C403    1.401   .     A
C389   C441    1.383   .     S
C390   H414    1.083   .     S
C390   C404    1.401   .     A
C391   C395    1.391   .     A
C391   Cl429   1.762   .     S
C391   C401    1.408   .     A
C392   C402    1.408   .     A
C392   C396    1.392   .     A
C392   Cl430   1.762   .     S
C393   C397    1.391   .     A
C393   C402    1.408   .     A
C393   Cl431   1.762   .     S
C394   C398    1.392   .     A
C394   C401    1.408   .     A
C394   Cl432   1.762   .     S
C395   H407    1.082   .     S
C395   C399    1.399   .     A
C396   H408    1.084   .     S
C396   C400    1.400   .     A
C397   H409    1.082   .     S
C397   C400    1.399   .     A
C398   C399    1.400   .     A
C398   H410    1.084   .     S
C401   C888    1.465   1_554 S
C402   C887    1.465   .     S
Cu405  O419    1.964   .     S
Cu405  O423    1.951   .     S
Cu405  N415    2.030   .     S
Cu405  O417    1.964   .     S
Cu405  O421    1.951   .     S
Cu405  Cu406   2.701   .     S
Cu406  N416    2.030   .     S
Cu406  O424    1.951   .     S
Cu406  O420    1.964   .     S
Cu406  O418    1.964   .     S
Cu406  O422    1.951   .     S
C433   C458    1.451   .     S
C433   O471    1.298   .     A
C433   O474    1.298   .     A
C434   O472    1.298   .     A
C434   C457    1.451   .     S
C434   O473    1.298   .     A
C435   O478    1.299   .     A
C435   O475    1.300   .     A
C435   C453    1.457   .     S
C436   C454    1.457   .     S
C436   O477    1.301   .     A
C436   O476    1.299   .     A
C437   N470    1.373   .     A
C437   Cl479   1.763   .     S
C438   N469    1.374   .     A
C438   Cl480   1.761   .     S
C438   C115    1.422   1_565 S
C439   Cl481   1.763   .     S
C439   N470    1.373   .     A
C440   N469    1.374   .     A
C440   Cl482   1.761   .     S
C440   C113    1.422   1_565 S
C441   H465    1.083   .     S
C441   C458    1.401   .     A
C442   H466    1.083   .     S
C442   C457    1.401   .     A
C442   C336    1.383   1_655 S
C443   H467    1.083   .     S
C443   C457    1.401   .     A
C443   C333    1.383   1_655 S
C444   H468    1.083   .     S
C444   C458    1.401   .     A
C445   C449    1.391   .     A
C445   Cl483   1.762   .     S
C445   C455    1.408   .     A
C446   C456    1.408   .     A
C446   C450    1.392   .     A
C446   Cl484   1.762   .     S
C447   C451    1.391   .     A
C447   C456    1.408   .     A
C447   Cl485   1.762   .     S
C448   C452    1.392   .     A
C448   C455    1.408   .     A
C448   Cl486   1.762   .     S
C449   H461    1.082   .     S
C449   C453    1.399   .     A
C450   H462    1.084   .     S
C450   C454    1.400   .     A
C451   H463    1.082   .     S
C451   C454    1.399   .     A
C452   C453    1.400   .     A
C452   H464    1.084   .     S
C455   C942    1.465   1_554 S
C456   C941    1.465   .     S
Cu459  O473    1.964   .     S
Cu459  O477    1.951   .     S
Cu459  N469    2.030   .     S
Cu459  O471    1.964   .     S
Cu459  O475    1.951   .     S
Cu459  Cu460   2.701   .     S
Cu460  N470    2.030   .     S
Cu460  O478    1.951   .     S
Cu460  O474    1.964   .     S
Cu460  O472    1.964   .     S
Cu460  O476    1.951   .     S
C487   C512    1.451   .     S
C487   O525    1.298   .     A
C487   O528    1.298   .     A
C488   O526    1.298   .     A
C488   C511    1.451   .     S
C488   O527    1.298   .     A
C489   O532    1.299   .     A
C489   O529    1.300   .     A
C489   C507    1.457   .     S
C490   C508    1.457   .     S
C490   O531    1.301   .     A
C490   O530    1.299   .     A
C491   N524    1.373   .     A
C491   Cl533   1.763   .     S
C491   C818    1.422   1_545 S
C492   N523    1.374   .     A
C492   Cl534   1.761   .     S
C492   C655    1.422   .     S
C493   Cl535   1.763   .     S
C493   N524    1.373   .     A
C493   C816    1.422   1_545 S
C494   N523    1.374   .     A
C494   Cl536   1.761   .     S
C494   C653    1.422   .     S
C495   H519    1.083   .     S
C495   C512    1.401   .     A
C495   C605    1.383   1_455 S
C496   H520    1.083   .     S
C496   C511    1.401   .     A
C496   C552    1.383   .     S
C497   H521    1.083   .     S
C497   C511    1.401   .     A
C497   C549    1.383   .     S
C498   H522    1.083   .     S
C498   C512    1.401   .     A
C498   C604    1.383   1_455 S
C499   C503    1.391   .     A
C499   Cl537   1.762   .     S
C499   C509    1.408   .     A
C500   C510    1.408   .     A
C500   C504    1.392   .     A
C500   Cl538   1.762   .     S
C501   C505    1.391   .     A
C501   C510    1.408   .     A
C501   Cl539   1.762   .     S
C502   C506    1.392   .     A
C502   C509    1.408   .     A
C502   Cl540   1.762   .     S
C503   H515    1.082   .     S
C503   C507    1.399   .     A
C504   H516    1.084   .     S
C504   C508    1.400   .     A
C505   H517    1.082   .     S
C505   C508    1.399   .     A
C506   C507    1.400   .     A
C506   H518    1.084   .     S
C510   C23     1.465   1_556 S
Cu513  O527    1.964   .     S
Cu513  O531    1.951   .     S
Cu513  N523    2.030   .     S
Cu513  O525    1.964   .     S
Cu513  O529    1.951   .     S
Cu513  Cu514   2.701   .     S
Cu514  N524    2.030   .     S
Cu514  O532    1.951   .     S
Cu514  O528    1.964   .     S
Cu514  O526    1.964   .     S
Cu514  O530    1.951   .     S
C541   C566    1.451   .     S
C541   O579    1.298   .     A
C541   O582    1.298   .     A
C542   O580    1.298   .     A
C542   C565    1.451   .     S
C542   O581    1.298   .     A
C543   O586    1.299   .     A
C543   O583    1.300   .     A
C543   C561    1.457   .     S
C544   C562    1.457   .     S
C544   O585    1.301   .     A
C544   O584    1.299   .     A
C545   N578    1.373   .     A
C545   Cl587   1.763   .     S
C545   C872    1.422   1_545 S
C546   N577    1.374   .     A
C546   Cl588   1.761   .     S
C546   C709    1.422   .     S
C547   Cl589   1.763   .     S
C547   N578    1.373   .     A
C547   C870    1.422   1_545 S
C548   N577    1.374   .     A
C548   Cl590   1.761   .     S
C548   C707    1.422   .     S
C549   H573    1.083   .     S
C549   C566    1.401   .     A
C550   H574    1.083   .     S
C550   C565    1.401   .     A
C550   C606    1.383   .     S
C551   H575    1.083   .     S
C551   C565    1.401   .     A
C551   C603    1.383   .     S
C552   H576    1.083   .     S
C552   C566    1.401   .     A
C553   C557    1.391   .     A
C553   Cl591   1.762   .     S
C553   C563    1.408   .     A
C554   C564    1.408   .     A
C554   C558    1.392   .     A
C554   Cl592   1.762   .     S
C555   C559    1.391   .     A
C555   C564    1.408   .     A
C555   Cl593   1.762   .     S
C556   C560    1.392   .     A
C556   C563    1.408   .     A
C556   Cl594   1.762   .     S
C557   H569    1.082   .     S
C557   C561    1.399   .     A
C558   H570    1.084   .     S
C558   C562    1.400   .     A
C559   H571    1.082   .     S
C559   C562    1.399   .     A
C560   C561    1.400   .     A
C560   H572    1.084   .     S
C564   C77     1.465   1_556 S
Cu567  O581    1.964   .     S
Cu567  O585    1.951   .     S
Cu567  N577    2.030   .     S
Cu567  O579    1.964   .     S
Cu567  O583    1.951   .     S
Cu567  Cu568   2.701   .     S
Cu568  N578    2.030   .     S
Cu568  O586    1.951   .     S
Cu568  O582    1.964   .     S
Cu568  O580    1.964   .     S
Cu568  O584    1.951   .     S
C595   C620    1.451   .     S
C595   O633    1.298   .     A
C595   O636    1.298   .     A
C596   O634    1.298   .     A
C596   C619    1.451   .     S
C596   O635    1.298   .     A
C597   O640    1.299   .     A
C597   O637    1.300   .     A
C597   C615    1.457   .     S
C598   C616    1.457   .     S
C598   O639    1.301   .     A
C598   O638    1.299   .     A
C599   N632    1.373   .     A
C599   Cl641   1.763   .     S
C599   C926    1.422   1_545 S
C600   N631    1.374   .     A
C600   Cl642   1.761   .     S
C600   C763    1.422   .     S
C601   Cl643   1.763   .     S
C601   N632    1.373   .     A
C601   C924    1.422   1_545 S
C602   N631    1.374   .     A
C602   Cl644   1.761   .     S
C602   C761    1.422   .     S
C603   H627    1.083   .     S
C603   C620    1.401   .     A
C604   H628    1.083   .     S
C604   C619    1.401   .     A
C604   C498    1.383   1_655 S
C605   H629    1.083   .     S
C605   C619    1.401   .     A
C605   C495    1.383   1_655 S
C606   H630    1.083   .     S
C606   C620    1.401   .     A
C607   C611    1.391   .     A
C607   Cl645   1.762   .     S
C607   C617    1.408   .     A
C608   C618    1.408   .     A
C608   C612    1.392   .     A
C608   Cl646   1.762   .     S
C609   C613    1.391   .     A
C609   C618    1.408   .     A
C609   Cl647   1.762   .     S
C610   C614    1.392   .     A
C610   C617    1.408   .     A
C610   Cl648   1.762   .     S
C611   H623    1.082   .     S
C611   C615    1.399   .     A
C612   H624    1.084   .     S
C612   C616    1.400   .     A
C613   H625    1.082   .     S
C613   C616    1.399   .     A
C614   C615    1.400   .     A
C614   H626    1.084   .     S
C618   C131    1.465   1_556 S
Cu621  O635    1.964   .     S
Cu621  O639    1.951   .     S
Cu621  N631    2.030   .     S
Cu621  O633    1.964   .     S
Cu621  O637    1.951   .     S
Cu621  Cu622   2.701   .     S
Cu622  N632    2.030   .     S
Cu622  O640    1.951   .     S
Cu622  O636    1.964   .     S
Cu622  O634    1.964   .     S
Cu622  O638    1.951   .     S
C649   C674    1.451   .     S
C649   O687    1.298   .     A
C649   O690    1.298   .     A
C650   O688    1.298   .     A
C650   C673    1.451   .     S
C650   O689    1.298   .     A
C651   O694    1.299   .     A
C651   O691    1.300   .     A
C651   C669    1.457   .     S
C652   C670    1.457   .     S
C652   O693    1.301   .     A
C652   O692    1.299   .     A
C653   N686    1.373   .     A
C653   Cl695   1.763   .     S
C654   N685    1.374   .     A
C654   Cl696   1.761   .     S
C654   C817    1.422   .     S
C655   Cl697   1.763   .     S
C655   N686    1.373   .     A
C656   N685    1.374   .     A
C656   Cl698   1.761   .     S
C656   C815    1.422   .     S
C657   H681    1.083   .     S
C657   C674    1.401   .     A
C657   C767    1.383   1_455 S
C658   H682    1.083   .     S
C658   C673    1.401   .     A
C658   C714    1.383   .     S
C659   H683    1.083   .     S
C659   C673    1.401   .     A
C659   C711    1.383   .     S
C660   H684    1.083   .     S
C660   C674    1.401   .     A
C660   C766    1.383   1_455 S
C661   C665    1.391   .     A
C661   Cl699   1.762   .     S
C661   C671    1.408   .     A
C662   C672    1.408   .     A
C662   C666    1.392   .     A
C662   Cl700   1.762   .     S
C663   C667    1.391   .     A
C663   C672    1.408   .     A
C663   Cl701   1.762   .     S
C664   C668    1.392   .     A
C664   C671    1.408   .     A
C664   Cl702   1.762   .     S
C665   H677    1.082   .     S
C665   C669    1.399   .     A
C666   H678    1.084   .     S
C666   C670    1.400   .     A
C667   H679    1.082   .     S
C667   C670    1.399   .     A
C668   C669    1.400   .     A
C668   H680    1.084   .     S
C672   C185    1.465   1_556 S
Cu675  O689    1.964   .     S
Cu675  O693    1.951   .     S
Cu675  N685    2.030   .     S
Cu675  O687    1.964   .     S
Cu675  O691    1.951   .     S
Cu675  Cu676   2.701   .     S
Cu676  N686    2.030   .     S
Cu676  O694    1.951   .     S
Cu676  O690    1.964   .     S
Cu676  O688    1.964   .     S
Cu676  O692    1.951   .     S
C703   C728    1.451   .     S
C703   O741    1.298   .     A
C703   O744    1.298   .     A
C704   O742    1.298   .     A
C704   C727    1.451   .     S
C704   O743    1.298   .     A
C705   O748    1.299   .     A
C705   O745    1.300   .     A
C705   C723    1.457   .     S
C706   C724    1.457   .     S
C706   O747    1.301   .     A
C706   O746    1.299   .     A
C707   N740    1.373   .     A
C707   Cl749   1.763   .     S
C708   N739    1.374   .     A
C708   Cl750   1.761   .     S
C708   C871    1.422   .     S
C709   Cl751   1.763   .     S
C709   N740    1.373   .     A
C710   N739    1.374   .     A
C710   Cl752   1.761   .     S
C710   C869    1.422   .     S
C711   H735    1.083   .     S
C711   C728    1.401   .     A
C712   H736    1.083   .     S
C712   C727    1.401   .     A
C712   C768    1.383   .     S
C713   H737    1.083   .     S
C713   C727    1.401   .     A
C713   C765    1.383   .     S
C714   H738    1.083   .     S
C714   C728    1.401   .     A
C715   C719    1.391   .     A
C715   Cl753   1.762   .     S
C715   C725    1.408   .     A
C716   C726    1.408   .     A
C716   C720    1.392   .     A
C716   Cl754   1.762   .     S
C717   C721    1.391   .     A
C717   C726    1.408   .     A
C717   Cl755   1.762   .     S
C718   C722    1.392   .     A
C718   C725    1.408   .     A
C718   Cl756   1.762   .     S
C719   H731    1.082   .     S
C719   C723    1.399   .     A
C720   H732    1.084   .     S
C720   C724    1.400   .     A
C721   H733    1.082   .     S
C721   C724    1.399   .     A
C722   C723    1.400   .     A
C722   H734    1.084   .     S
C726   C239    1.465   1_556 S
Cu729  O743    1.964   .     S
Cu729  O747    1.951   .     S
Cu729  N739    2.030   .     S
Cu729  O741    1.964   .     S
Cu729  O745    1.951   .     S
Cu729  Cu730   2.701   .     S
Cu730  N740    2.030   .     S
Cu730  O748    1.951   .     S
Cu730  O744    1.964   .     S
Cu730  O742    1.964   .     S
Cu730  O746    1.951   .     S
C757   C782    1.451   .     S
C757   O795    1.298   .     A
C757   O798    1.298   .     A
C758   O796    1.298   .     A
C758   C781    1.451   .     S
C758   O797    1.298   .     A
C759   O802    1.299   .     A
C759   O799    1.300   .     A
C759   C777    1.457   .     S
C760   C778    1.457   .     S
C760   O801    1.301   .     A
C760   O800    1.299   .     A
C761   N794    1.373   .     A
C761   Cl803   1.763   .     S
C762   N793    1.374   .     A
C762   Cl804   1.761   .     S
C762   C925    1.422   .     S
C763   Cl805   1.763   .     S
C763   N794    1.373   .     A
C764   N793    1.374   .     A
C764   Cl806   1.761   .     S
C764   C923    1.422   .     S
C765   H789    1.083   .     S
C765   C782    1.401   .     A
C766   H790    1.083   .     S
C766   C781    1.401   .     A
C766   C660    1.383   1_655 S
C767   H791    1.083   .     S
C767   C781    1.401   .     A
C767   C657    1.383   1_655 S
C768   H792    1.083   .     S
C768   C782    1.401   .     A
C769   C773    1.391   .     A
C769   Cl807   1.762   .     S
C769   C779    1.408   .     A
C770   C780    1.408   .     A
C770   C774    1.392   .     A
C770   Cl808   1.762   .     S
C771   C775    1.391   .     A
C771   C780    1.408   .     A
C771   Cl809   1.762   .     S
C772   C776    1.392   .     A
C772   C779    1.408   .     A
C772   Cl810   1.762   .     S
C773   H785    1.082   .     S
C773   C777    1.399   .     A
C774   H786    1.084   .     S
C774   C778    1.400   .     A
C775   H787    1.082   .     S
C775   C778    1.399   .     A
C776   C777    1.400   .     A
C776   H788    1.084   .     S
C780   C293    1.465   1_556 S
Cu783  O797    1.964   .     S
Cu783  O801    1.951   .     S
Cu783  N793    2.030   .     S
Cu783  O795    1.964   .     S
Cu783  O799    1.951   .     S
Cu783  Cu784   2.701   .     S
Cu784  N794    2.030   .     S
Cu784  O802    1.951   .     S
Cu784  O798    1.964   .     S
Cu784  O796    1.964   .     S
Cu784  O800    1.951   .     S
C811   C836    1.451   .     S
C811   O849    1.298   .     A
C811   O852    1.298   .     A
C812   O850    1.298   .     A
C812   C835    1.451   .     S
C812   O851    1.298   .     A
C813   O856    1.299   .     A
C813   O853    1.300   .     A
C813   C831    1.457   .     S
C814   C832    1.457   .     S
C814   O855    1.301   .     A
C814   O854    1.299   .     A
C815   N848    1.373   .     A
C815   Cl857   1.763   .     S
C816   N847    1.374   .     A
C816   Cl858   1.761   .     S
C816   C493    1.422   1_565 S
C817   Cl859   1.763   .     S
C817   N848    1.373   .     A
C818   N847    1.374   .     A
C818   Cl860   1.761   .     S
C818   C491    1.422   1_565 S
C819   H843    1.083   .     S
C819   C836    1.401   .     A
C819   C929    1.383   1_455 S
C820   H844    1.083   .     S
C820   C835    1.401   .     A
C820   C876    1.383   .     S
C821   H845    1.083   .     S
C821   C835    1.401   .     A
C821   C873    1.383   .     S
C822   H846    1.083   .     S
C822   C836    1.401   .     A
C822   C928    1.383   1_455 S
C823   C827    1.391   .     A
C823   Cl861   1.762   .     S
C823   C833    1.408   .     A
C824   C834    1.408   .     A
C824   C828    1.392   .     A
C824   Cl862   1.762   .     S
C825   C829    1.391   .     A
C825   C834    1.408   .     A
C825   Cl863   1.762   .     S
C826   C830    1.392   .     A
C826   C833    1.408   .     A
C826   Cl864   1.762   .     S
C827   H839    1.082   .     S
C827   C831    1.399   .     A
C828   H840    1.084   .     S
C828   C832    1.400   .     A
C829   H841    1.082   .     S
C829   C832    1.399   .     A
C830   C831    1.400   .     A
C830   H842    1.084   .     S
C834   C347    1.465   1_556 S
Cu837  O851    1.964   .     S
Cu837  O855    1.951   .     S
Cu837  N847    2.030   .     S
Cu837  O849    1.964   .     S
Cu837  O853    1.951   .     S
Cu837  Cu838   2.701   .     S
Cu838  N848    2.030   .     S
Cu838  O856    1.951   .     S
Cu838  O852    1.964   .     S
Cu838  O850    1.964   .     S
Cu838  O854    1.951   .     S
C865   C890    1.451   .     S
C865   O903    1.298   .     A
C865   O906    1.298   .     A
C866   O904    1.298   .     A
C866   C889    1.451   .     S
C866   O905    1.298   .     A
C867   O910    1.299   .     A
C867   O907    1.300   .     A
C867   C885    1.457   .     S
C868   C886    1.457   .     S
C868   O909    1.301   .     A
C868   O908    1.299   .     A
C869   N902    1.373   .     A
C869   Cl911   1.763   .     S
C870   N901    1.374   .     A
C870   Cl912   1.761   .     S
C870   C547    1.422   1_565 S
C871   Cl913   1.763   .     S
C871   N902    1.373   .     A
C872   N901    1.374   .     A
C872   Cl914   1.761   .     S
C872   C545    1.422   1_565 S
C873   H897    1.083   .     S
C873   C890    1.401   .     A
C874   H898    1.083   .     S
C874   C889    1.401   .     A
C874   C930    1.383   .     S
C875   H899    1.083   .     S
C875   C889    1.401   .     A
C875   C927    1.383   .     S
C876   H900    1.083   .     S
C876   C890    1.401   .     A
C877   C881    1.391   .     A
C877   Cl915   1.762   .     S
C877   C887    1.408   .     A
C878   C888    1.408   .     A
C878   C882    1.392   .     A
C878   Cl916   1.762   .     S
C879   C883    1.391   .     A
C879   C888    1.408   .     A
C879   Cl917   1.762   .     S
C880   C884    1.392   .     A
C880   C887    1.408   .     A
C880   Cl918   1.762   .     S
C881   H893    1.082   .     S
C881   C885    1.399   .     A
C882   H894    1.084   .     S
C882   C886    1.400   .     A
C883   H895    1.082   .     S
C883   C886    1.399   .     A
C884   C885    1.400   .     A
C884   H896    1.084   .     S
C888   C401    1.465   1_556 S
Cu891  O905    1.964   .     S
Cu891  O909    1.951   .     S
Cu891  N901    2.030   .     S
Cu891  O903    1.964   .     S
Cu891  O907    1.951   .     S
Cu891  Cu892   2.701   .     S
Cu892  N902    2.030   .     S
Cu892  O910    1.951   .     S
Cu892  O906    1.964   .     S
Cu892  O904    1.964   .     S
Cu892  O908    1.951   .     S
C919   C944    1.451   .     S
C919   O957    1.298   .     A
C919   O960    1.298   .     A
C920   O958    1.298   .     A
C920   C943    1.451   .     S
C920   O959    1.298   .     A
C921   O964    1.299   .     A
C921   O961    1.300   .     A
C921   C939    1.457   .     S
C922   C940    1.457   .     S
C922   O963    1.301   .     A
C922   O962    1.299   .     A
C923   N956    1.373   .     A
C923   Cl965   1.763   .     S
C924   N955    1.374   .     A
C924   Cl966   1.761   .     S
C924   C601    1.422   1_565 S
C925   Cl967   1.763   .     S
C925   N956    1.373   .     A
C926   N955    1.374   .     A
C926   Cl968   1.761   .     S
C926   C599    1.422   1_565 S
C927   H951    1.083   .     S
C927   C944    1.401   .     A
C928   H952    1.083   .     S
C928   C943    1.401   .     A
C928   C822    1.383   1_655 S
C929   H953    1.083   .     S
C929   C943    1.401   .     A
C929   C819    1.383   1_655 S
C930   H954    1.083   .     S
C930   C944    1.401   .     A
C931   C935    1.391   .     A
C931   Cl969   1.762   .     S
C931   C941    1.408   .     A
C932   C942    1.408   .     A
C932   C936    1.392   .     A
C932   Cl970   1.762   .     S
C933   C937    1.391   .     A
C933   C942    1.408   .     A
C933   Cl971   1.762   .     S
C934   C938    1.392   .     A
C934   C941    1.408   .     A
C934   Cl972   1.762   .     S
C935   H947    1.082   .     S
C935   C939    1.399   .     A
C936   H948    1.084   .     S
C936   C940    1.400   .     A
C937   H949    1.082   .     S
C937   C940    1.399   .     A
C938   C939    1.400   .     A
C938   H950    1.084   .     S
C942   C455    1.465   1_556 S
Cu945  O959    1.964   .     S
Cu945  O963    1.951   .     S
Cu945  N955    2.030   .     S
Cu945  O957    1.964   .     S
Cu945  O961    1.951   .     S
Cu945  Cu946   2.701   .     S
Cu946  N956    2.030   .     S
Cu946  O964    1.951   .     S
Cu946  O960    1.964   .     S
Cu946  O958    1.964   .     S
Cu946  O962    1.951   .     S
