data_str_m2_o2_o5_pcu_sym.84
_audit_creation_date              2020-01-03
_audit_creation_method            'Materials Studio'
_symmetry_space_group_name_H-M    'P1'
_symmetry_Int_Tables_number       1
_symmetry_cell_setting            triclinic
loop_
_symmetry_equiv_pos_as_xyz
  x,y,z
_cell_length_a                    30.5789
_cell_length_b                    27.9795
_cell_length_c                    27.2661
_cell_angle_alpha                 90.0001
_cell_angle_beta                  93.8242
_cell_angle_gamma                 90.0022
loop_
_atom_site_label
_atom_site_type_symbol
_atom_site_fract_x
_atom_site_fract_y
_atom_site_fract_z
_atom_site_U_iso_or_equiv
_atom_site_adp_type
_atom_site_occupancy
O1     O     0.18573   0.29071   0.16667   0.00000  Uiso   1.00
O2     O     0.31427   0.20928   0.16666   0.00000  Uiso   1.00
O3     O     0.31427   0.29071   0.16666   0.00000  Uiso   1.00
O4     O     0.18573   0.20928   0.16667   0.00000  Uiso   1.00
C5     C     0.16520   0.24991   0.17003   0.00000  Uiso   1.00
C6     C     0.33480   0.24991   0.16331   0.00000  Uiso   1.00
O7     O     0.25000   0.29071   0.09613   0.00000  Uiso   1.00
O8     O     0.25000   0.20929   0.23720   0.00000  Uiso   1.00
O9     O     0.25000   0.29071   0.23720   0.00000  Uiso   1.00
O10    O     0.25000   0.20929   0.09613   0.00000  Uiso   1.00
C11    C     0.26429   0.05340   0.20828   0.00000  Uiso   1.00
C12    C     0.22650   0.44590   0.12985   0.00000  Uiso   1.00
C13    C     0.23572   0.05339   0.12506   0.00000  Uiso   1.00
C14    C     0.27350   0.44590   0.20349   0.00000  Uiso   1.00
C15    C     0.24986   0.25000   0.07358   0.00000  Uiso   1.00
C16    C     0.25015   0.25000   0.25975   0.00000  Uiso   1.00
Cu17   Cu    0.25000   0.29821   0.16667   0.00000  Uiso   1.00
Cu18   Cu    0.25000   0.20178   0.16667   0.00000  Uiso   1.00
N19    N     0.25000   0.12934   0.16667   0.00000  Uiso   1.00
N20    N     0.25000   0.37065   0.16667   0.00000  Uiso   1.00
C21    C     0.25001   0.02687   0.16667   0.00000  Uiso   1.00
C22    C     0.25001   0.47246   0.16667   0.00000  Uiso   1.00
C23    C     0.24995   0.25000   0.02185   0.00000  Uiso   1.00
C24    C     0.25005   0.25000   0.31149   0.00000  Uiso   1.00
C25    C     0.04791   0.29186   0.18359   0.00000  Uiso   1.00
C26    C     0.45279   0.20873   0.17251   0.00000  Uiso   1.00
C27    C     0.45210   0.29187   0.14977   0.00000  Uiso   1.00
C28    C     0.04721   0.20873   0.16084   0.00000  Uiso   1.00
H29    H     0.03051   0.32386   0.19324   0.00000  Uiso   1.00
H30    H     0.46999   0.17651   0.18422   0.00000  Uiso   1.00
H31    H     0.46951   0.32386   0.14012   0.00000  Uiso   1.00
H32    H     0.03001   0.17651   0.14912   0.00000  Uiso   1.00
C33    C     0.09388   0.29201   0.18657   0.00000  Uiso   1.00
C34    C     0.40750   0.20639   0.16476   0.00000  Uiso   1.00
C35    C     0.40613   0.29202   0.14678   0.00000  Uiso   1.00
C36    C     0.09250   0.20639   0.16859   0.00000  Uiso   1.00
C37    C     0.11696   0.24949   0.17520   0.00000  Uiso   1.00
C38    C     0.38304   0.24950   0.15815   0.00000  Uiso   1.00
C39    C     0.02430   0.25091   0.16882   0.00000  Uiso   1.00
C40    C     0.47571   0.25092   0.16453   0.00000  Uiso   1.00
C41    C     0.26582   0.10375   0.20756   0.00000  Uiso   1.00
C42    C     0.22736   0.39564   0.12969   0.00000  Uiso   1.00
C43    C     0.23417   0.10374   0.12578   0.00000  Uiso   1.00
C44    C     0.27264   0.39564   0.20365   0.00000  Uiso   1.00
H45    H     0.27504   0.03568   0.24209   0.00000  Uiso   1.00
H46    H     0.20669   0.46325   0.10085   0.00000  Uiso   1.00
H47    H     0.22496   0.03566   0.09126   0.00000  Uiso   1.00
H48    H     0.29331   0.46325   0.23249   0.00000  Uiso   1.00
N49    N     0.28420   0.12675   0.25111   0.00000  Uiso   1.00
O50    O     0.27382   0.11158   0.29386   0.00000  Uiso   1.00
O51    O     0.31814   0.15438   0.24923   0.00000  Uiso   1.00
N52    N     0.20516   0.37153   0.08909   0.00000  Uiso   1.00
O53    O     0.21808   0.37853   0.04516   0.00000  Uiso   1.00
O54    O     0.16643   0.35365   0.09366   0.00000  Uiso   1.00
N55    N     0.21571   0.12673   0.08225   0.00000  Uiso   1.00
O56    O     0.22583   0.11140   0.03947   0.00000  Uiso   1.00
O57    O     0.18187   0.15448   0.08423   0.00000  Uiso   1.00
N58    N     0.29484   0.37153   0.24424   0.00000  Uiso   1.00
O59    O     0.28192   0.37854   0.28818   0.00000  Uiso   1.00
O60    O     0.33356   0.35365   0.23968   0.00000  Uiso   1.00
C61    C     0.11671   0.33681   0.20577   0.00000  Uiso   1.00
H62    H     0.14183   0.32767   0.23561   0.00000  Uiso   1.00
H63    H     0.13205   0.35582   0.17575   0.00000  Uiso   1.00
H64    H     0.09349   0.36219   0.22154   0.00000  Uiso   1.00
C65    C     0.38792   0.15690   0.15989   0.00000  Uiso   1.00
H66    H     0.36387   0.15491   0.12760   0.00000  Uiso   1.00
H67    H     0.41326   0.12952   0.15349   0.00000  Uiso   1.00
H68    H     0.37300   0.14663   0.19390   0.00000  Uiso   1.00
C69    C     0.38330   0.33682   0.12759   0.00000  Uiso   1.00
H70    H     0.35821   0.32769   0.09773   0.00000  Uiso   1.00
H71    H     0.36795   0.35581   0.15761   0.00000  Uiso   1.00
H72    H     0.40653   0.36222   0.11186   0.00000  Uiso   1.00
C73    C     0.11207   0.15689   0.17347   0.00000  Uiso   1.00
H74    H     0.13618   0.15491   0.20571   0.00000  Uiso   1.00
H75    H     0.08674   0.12953   0.17997   0.00000  Uiso   1.00
H76    H     0.12692   0.14657   0.13942   0.00000  Uiso   1.00
O77    O     0.68573   0.29071   0.16667   0.00000  Uiso   1.00
O78    O     0.81427   0.20928   0.16666   0.00000  Uiso   1.00
O79    O     0.81427   0.29071   0.16666   0.00000  Uiso   1.00
O80    O     0.68573   0.20928   0.16667   0.00000  Uiso   1.00
C81    C     0.66520   0.24991   0.17003   0.00000  Uiso   1.00
C82    C     0.83480   0.24991   0.16331   0.00000  Uiso   1.00
O83    O     0.75000   0.29071   0.09613   0.00000  Uiso   1.00
O84    O     0.75000   0.20929   0.23720   0.00000  Uiso   1.00
O85    O     0.75000   0.29071   0.23720   0.00000  Uiso   1.00
O86    O     0.75000   0.20929   0.09613   0.00000  Uiso   1.00
C87    C     0.76429   0.05340   0.20828   0.00000  Uiso   1.00
C88    C     0.72650   0.44590   0.12985   0.00000  Uiso   1.00
C89    C     0.73572   0.05339   0.12506   0.00000  Uiso   1.00
C90    C     0.77350   0.44590   0.20349   0.00000  Uiso   1.00
C91    C     0.74986   0.25000   0.07358   0.00000  Uiso   1.00
C92    C     0.75015   0.25000   0.25975   0.00000  Uiso   1.00
Cu93   Cu    0.75000   0.29821   0.16667   0.00000  Uiso   1.00
Cu94   Cu    0.75000   0.20178   0.16667   0.00000  Uiso   1.00
N95    N     0.75000   0.12934   0.16667   0.00000  Uiso   1.00
N96    N     0.75000   0.37065   0.16667   0.00000  Uiso   1.00
C97    C     0.75001   0.02687   0.16667   0.00000  Uiso   1.00
C98    C     0.75001   0.47246   0.16667   0.00000  Uiso   1.00
C99    C     0.74995   0.25000   0.02185   0.00000  Uiso   1.00
C100   C     0.75005   0.25000   0.31149   0.00000  Uiso   1.00
C101   C     0.54791   0.29186   0.18359   0.00000  Uiso   1.00
C102   C     0.95279   0.20873   0.17251   0.00000  Uiso   1.00
C103   C     0.95210   0.29187   0.14977   0.00000  Uiso   1.00
C104   C     0.54721   0.20873   0.16084   0.00000  Uiso   1.00
H105   H     0.53051   0.32386   0.19324   0.00000  Uiso   1.00
H106   H     0.96999   0.17651   0.18422   0.00000  Uiso   1.00
H107   H     0.96951   0.32386   0.14012   0.00000  Uiso   1.00
H108   H     0.53001   0.17651   0.14912   0.00000  Uiso   1.00
C109   C     0.59388   0.29201   0.18657   0.00000  Uiso   1.00
C110   C     0.90750   0.20639   0.16476   0.00000  Uiso   1.00
C111   C     0.90613   0.29202   0.14678   0.00000  Uiso   1.00
C112   C     0.59250   0.20639   0.16859   0.00000  Uiso   1.00
C113   C     0.61696   0.24949   0.17520   0.00000  Uiso   1.00
C114   C     0.88304   0.24950   0.15815   0.00000  Uiso   1.00
C115   C     0.52430   0.25091   0.16882   0.00000  Uiso   1.00
C116   C     0.97571   0.25092   0.16453   0.00000  Uiso   1.00
C117   C     0.76582   0.10375   0.20756   0.00000  Uiso   1.00
C118   C     0.72736   0.39564   0.12969   0.00000  Uiso   1.00
C119   C     0.73417   0.10374   0.12578   0.00000  Uiso   1.00
C120   C     0.77264   0.39564   0.20365   0.00000  Uiso   1.00
H121   H     0.77504   0.03568   0.24209   0.00000  Uiso   1.00
H122   H     0.70669   0.46325   0.10085   0.00000  Uiso   1.00
H123   H     0.72496   0.03566   0.09126   0.00000  Uiso   1.00
H124   H     0.79331   0.46325   0.23249   0.00000  Uiso   1.00
N125   N     0.78420   0.12675   0.25111   0.00000  Uiso   1.00
O126   O     0.77382   0.11158   0.29386   0.00000  Uiso   1.00
O127   O     0.81814   0.15438   0.24923   0.00000  Uiso   1.00
N128   N     0.70516   0.37153   0.08909   0.00000  Uiso   1.00
O129   O     0.71808   0.37853   0.04516   0.00000  Uiso   1.00
O130   O     0.66643   0.35365   0.09366   0.00000  Uiso   1.00
N131   N     0.71571   0.12673   0.08225   0.00000  Uiso   1.00
O132   O     0.72583   0.11140   0.03947   0.00000  Uiso   1.00
O133   O     0.68187   0.15448   0.08423   0.00000  Uiso   1.00
N134   N     0.79484   0.37153   0.24424   0.00000  Uiso   1.00
O135   O     0.78192   0.37854   0.28818   0.00000  Uiso   1.00
O136   O     0.83356   0.35365   0.23968   0.00000  Uiso   1.00
C137   C     0.61671   0.33681   0.20577   0.00000  Uiso   1.00
H138   H     0.64183   0.32767   0.23561   0.00000  Uiso   1.00
H139   H     0.63205   0.35582   0.17575   0.00000  Uiso   1.00
H140   H     0.59349   0.36219   0.22154   0.00000  Uiso   1.00
C141   C     0.88792   0.15690   0.15989   0.00000  Uiso   1.00
H142   H     0.86387   0.15491   0.12760   0.00000  Uiso   1.00
H143   H     0.91326   0.12952   0.15349   0.00000  Uiso   1.00
H144   H     0.87300   0.14663   0.19390   0.00000  Uiso   1.00
C145   C     0.88330   0.33682   0.12759   0.00000  Uiso   1.00
H146   H     0.85821   0.32769   0.09773   0.00000  Uiso   1.00
H147   H     0.86795   0.35581   0.15761   0.00000  Uiso   1.00
H148   H     0.90653   0.36222   0.11186   0.00000  Uiso   1.00
C149   C     0.61207   0.15689   0.17347   0.00000  Uiso   1.00
H150   H     0.63618   0.15491   0.20571   0.00000  Uiso   1.00
H151   H     0.58674   0.12953   0.17997   0.00000  Uiso   1.00
H152   H     0.62692   0.14657   0.13942   0.00000  Uiso   1.00
O153   O     0.18573   0.79071   0.16667   0.00000  Uiso   1.00
O154   O     0.31427   0.70928   0.16666   0.00000  Uiso   1.00
O155   O     0.31427   0.79071   0.16666   0.00000  Uiso   1.00
O156   O     0.18573   0.70928   0.16667   0.00000  Uiso   1.00
C157   C     0.16520   0.74991   0.17003   0.00000  Uiso   1.00
C158   C     0.33480   0.74991   0.16331   0.00000  Uiso   1.00
O159   O     0.25000   0.79071   0.09613   0.00000  Uiso   1.00
O160   O     0.25000   0.70929   0.23720   0.00000  Uiso   1.00
O161   O     0.25000   0.79071   0.23720   0.00000  Uiso   1.00
O162   O     0.25000   0.70929   0.09613   0.00000  Uiso   1.00
C163   C     0.26429   0.55340   0.20828   0.00000  Uiso   1.00
C164   C     0.22650   0.94590   0.12985   0.00000  Uiso   1.00
C165   C     0.23572   0.55339   0.12506   0.00000  Uiso   1.00
C166   C     0.27350   0.94590   0.20349   0.00000  Uiso   1.00
C167   C     0.24986   0.75000   0.07358   0.00000  Uiso   1.00
C168   C     0.25015   0.75000   0.25975   0.00000  Uiso   1.00
Cu169  Cu    0.25000   0.79821   0.16667   0.00000  Uiso   1.00
Cu170  Cu    0.25000   0.70178   0.16667   0.00000  Uiso   1.00
N171   N     0.25000   0.62934   0.16667   0.00000  Uiso   1.00
N172   N     0.25000   0.87065   0.16667   0.00000  Uiso   1.00
C173   C     0.25001   0.52687   0.16667   0.00000  Uiso   1.00
C174   C     0.25001   0.97246   0.16667   0.00000  Uiso   1.00
C175   C     0.24995   0.75000   0.02185   0.00000  Uiso   1.00
C176   C     0.25005   0.75000   0.31149   0.00000  Uiso   1.00
C177   C     0.04791   0.79186   0.18359   0.00000  Uiso   1.00
C178   C     0.45279   0.70873   0.17251   0.00000  Uiso   1.00
C179   C     0.45210   0.79187   0.14977   0.00000  Uiso   1.00
C180   C     0.04721   0.70873   0.16084   0.00000  Uiso   1.00
H181   H     0.03051   0.82386   0.19324   0.00000  Uiso   1.00
H182   H     0.46999   0.67651   0.18422   0.00000  Uiso   1.00
H183   H     0.46951   0.82386   0.14012   0.00000  Uiso   1.00
H184   H     0.03001   0.67651   0.14912   0.00000  Uiso   1.00
C185   C     0.09388   0.79201   0.18657   0.00000  Uiso   1.00
C186   C     0.40750   0.70639   0.16476   0.00000  Uiso   1.00
C187   C     0.40613   0.79202   0.14678   0.00000  Uiso   1.00
C188   C     0.09250   0.70639   0.16859   0.00000  Uiso   1.00
C189   C     0.11696   0.74949   0.17520   0.00000  Uiso   1.00
C190   C     0.38304   0.74950   0.15815   0.00000  Uiso   1.00
C191   C     0.02430   0.75091   0.16882   0.00000  Uiso   1.00
C192   C     0.47571   0.75092   0.16453   0.00000  Uiso   1.00
C193   C     0.26582   0.60375   0.20756   0.00000  Uiso   1.00
C194   C     0.22736   0.89564   0.12969   0.00000  Uiso   1.00
C195   C     0.23417   0.60374   0.12578   0.00000  Uiso   1.00
C196   C     0.27264   0.89564   0.20365   0.00000  Uiso   1.00
H197   H     0.27504   0.53568   0.24209   0.00000  Uiso   1.00
H198   H     0.20669   0.96325   0.10085   0.00000  Uiso   1.00
H199   H     0.22496   0.53566   0.09126   0.00000  Uiso   1.00
H200   H     0.29331   0.96325   0.23249   0.00000  Uiso   1.00
N201   N     0.28420   0.62675   0.25111   0.00000  Uiso   1.00
O202   O     0.27382   0.61158   0.29386   0.00000  Uiso   1.00
O203   O     0.31814   0.65438   0.24923   0.00000  Uiso   1.00
N204   N     0.20516   0.87153   0.08909   0.00000  Uiso   1.00
O205   O     0.21808   0.87853   0.04516   0.00000  Uiso   1.00
O206   O     0.16643   0.85365   0.09366   0.00000  Uiso   1.00
N207   N     0.21571   0.62673   0.08225   0.00000  Uiso   1.00
O208   O     0.22583   0.61140   0.03947   0.00000  Uiso   1.00
O209   O     0.18187   0.65448   0.08423   0.00000  Uiso   1.00
N210   N     0.29484   0.87153   0.24424   0.00000  Uiso   1.00
O211   O     0.28192   0.87854   0.28818   0.00000  Uiso   1.00
O212   O     0.33356   0.85365   0.23968   0.00000  Uiso   1.00
C213   C     0.11671   0.83681   0.20577   0.00000  Uiso   1.00
H214   H     0.14183   0.82767   0.23561   0.00000  Uiso   1.00
H215   H     0.13205   0.85582   0.17575   0.00000  Uiso   1.00
H216   H     0.09349   0.86219   0.22154   0.00000  Uiso   1.00
C217   C     0.38792   0.65690   0.15989   0.00000  Uiso   1.00
H218   H     0.36387   0.65491   0.12760   0.00000  Uiso   1.00
H219   H     0.41326   0.62952   0.15349   0.00000  Uiso   1.00
H220   H     0.37300   0.64663   0.19390   0.00000  Uiso   1.00
C221   C     0.38330   0.83682   0.12759   0.00000  Uiso   1.00
H222   H     0.35821   0.82769   0.09773   0.00000  Uiso   1.00
H223   H     0.36795   0.85581   0.15761   0.00000  Uiso   1.00
H224   H     0.40653   0.86222   0.11186   0.00000  Uiso   1.00
C225   C     0.11207   0.65689   0.17347   0.00000  Uiso   1.00
H226   H     0.13618   0.65491   0.20571   0.00000  Uiso   1.00
H227   H     0.08674   0.62953   0.17997   0.00000  Uiso   1.00
H228   H     0.12692   0.64657   0.13942   0.00000  Uiso   1.00
O229   O     0.68573   0.79071   0.16667   0.00000  Uiso   1.00
O230   O     0.81427   0.70928   0.16666   0.00000  Uiso   1.00
O231   O     0.81427   0.79071   0.16666   0.00000  Uiso   1.00
O232   O     0.68573   0.70928   0.16667   0.00000  Uiso   1.00
C233   C     0.66520   0.74991   0.17003   0.00000  Uiso   1.00
C234   C     0.83480   0.74991   0.16331   0.00000  Uiso   1.00
O235   O     0.75000   0.79071   0.09613   0.00000  Uiso   1.00
O236   O     0.75000   0.70929   0.23720   0.00000  Uiso   1.00
O237   O     0.75000   0.79071   0.23720   0.00000  Uiso   1.00
O238   O     0.75000   0.70929   0.09613   0.00000  Uiso   1.00
C239   C     0.76429   0.55340   0.20828   0.00000  Uiso   1.00
C240   C     0.72650   0.94590   0.12985   0.00000  Uiso   1.00
C241   C     0.73572   0.55339   0.12506   0.00000  Uiso   1.00
C242   C     0.77350   0.94590   0.20349   0.00000  Uiso   1.00
C243   C     0.74986   0.75000   0.07358   0.00000  Uiso   1.00
C244   C     0.75015   0.75000   0.25975   0.00000  Uiso   1.00
Cu245  Cu    0.75000   0.79821   0.16667   0.00000  Uiso   1.00
Cu246  Cu    0.75000   0.70178   0.16667   0.00000  Uiso   1.00
N247   N     0.75000   0.62934   0.16667   0.00000  Uiso   1.00
N248   N     0.75000   0.87065   0.16667   0.00000  Uiso   1.00
C249   C     0.75001   0.52687   0.16667   0.00000  Uiso   1.00
C250   C     0.75001   0.97246   0.16667   0.00000  Uiso   1.00
C251   C     0.74995   0.75000   0.02185   0.00000  Uiso   1.00
C252   C     0.75005   0.75000   0.31149   0.00000  Uiso   1.00
C253   C     0.54791   0.79186   0.18359   0.00000  Uiso   1.00
C254   C     0.95279   0.70873   0.17251   0.00000  Uiso   1.00
C255   C     0.95210   0.79187   0.14977   0.00000  Uiso   1.00
C256   C     0.54721   0.70873   0.16084   0.00000  Uiso   1.00
H257   H     0.53051   0.82386   0.19324   0.00000  Uiso   1.00
H258   H     0.96999   0.67651   0.18422   0.00000  Uiso   1.00
H259   H     0.96951   0.82386   0.14012   0.00000  Uiso   1.00
H260   H     0.53001   0.67651   0.14912   0.00000  Uiso   1.00
C261   C     0.59388   0.79201   0.18657   0.00000  Uiso   1.00
C262   C     0.90750   0.70639   0.16476   0.00000  Uiso   1.00
C263   C     0.90613   0.79202   0.14678   0.00000  Uiso   1.00
C264   C     0.59250   0.70639   0.16859   0.00000  Uiso   1.00
C265   C     0.61696   0.74949   0.17520   0.00000  Uiso   1.00
C266   C     0.88304   0.74950   0.15815   0.00000  Uiso   1.00
C267   C     0.52430   0.75091   0.16882   0.00000  Uiso   1.00
C268   C     0.97571   0.75092   0.16453   0.00000  Uiso   1.00
C269   C     0.76582   0.60375   0.20756   0.00000  Uiso   1.00
C270   C     0.72736   0.89564   0.12969   0.00000  Uiso   1.00
C271   C     0.73417   0.60374   0.12578   0.00000  Uiso   1.00
C272   C     0.77264   0.89564   0.20365   0.00000  Uiso   1.00
H273   H     0.77504   0.53568   0.24209   0.00000  Uiso   1.00
H274   H     0.70669   0.96325   0.10085   0.00000  Uiso   1.00
H275   H     0.72496   0.53566   0.09126   0.00000  Uiso   1.00
H276   H     0.79331   0.96325   0.23249   0.00000  Uiso   1.00
N277   N     0.78420   0.62675   0.25111   0.00000  Uiso   1.00
O278   O     0.77382   0.61158   0.29386   0.00000  Uiso   1.00
O279   O     0.81814   0.65438   0.24923   0.00000  Uiso   1.00
N280   N     0.70516   0.87153   0.08909   0.00000  Uiso   1.00
O281   O     0.71808   0.87853   0.04516   0.00000  Uiso   1.00
O282   O     0.66643   0.85365   0.09366   0.00000  Uiso   1.00
N283   N     0.71571   0.62673   0.08225   0.00000  Uiso   1.00
O284   O     0.72583   0.61140   0.03947   0.00000  Uiso   1.00
O285   O     0.68187   0.65448   0.08423   0.00000  Uiso   1.00
N286   N     0.79484   0.87153   0.24424   0.00000  Uiso   1.00
O287   O     0.78192   0.87854   0.28818   0.00000  Uiso   1.00
O288   O     0.83356   0.85365   0.23968   0.00000  Uiso   1.00
C289   C     0.61671   0.83681   0.20577   0.00000  Uiso   1.00
H290   H     0.64183   0.82767   0.23561   0.00000  Uiso   1.00
H291   H     0.63205   0.85582   0.17575   0.00000  Uiso   1.00
H292   H     0.59349   0.86219   0.22154   0.00000  Uiso   1.00
C293   C     0.88792   0.65690   0.15989   0.00000  Uiso   1.00
H294   H     0.86387   0.65491   0.12760   0.00000  Uiso   1.00
H295   H     0.91326   0.62952   0.15349   0.00000  Uiso   1.00
H296   H     0.87300   0.64663   0.19390   0.00000  Uiso   1.00
C297   C     0.88330   0.83682   0.12759   0.00000  Uiso   1.00
H298   H     0.85821   0.82769   0.09773   0.00000  Uiso   1.00
H299   H     0.86795   0.85581   0.15761   0.00000  Uiso   1.00
H300   H     0.90653   0.86222   0.11186   0.00000  Uiso   1.00
C301   C     0.61207   0.65689   0.17347   0.00000  Uiso   1.00
H302   H     0.63618   0.65491   0.20571   0.00000  Uiso   1.00
H303   H     0.58674   0.62953   0.17997   0.00000  Uiso   1.00
H304   H     0.62692   0.64657   0.13942   0.00000  Uiso   1.00
O305   O     0.18573   0.29071   0.50000   0.00000  Uiso   1.00
O306   O     0.31427   0.20928   0.50000   0.00000  Uiso   1.00
O307   O     0.31427   0.29071   0.50000   0.00000  Uiso   1.00
O308   O     0.18573   0.20928   0.50000   0.00000  Uiso   1.00
C309   C     0.16520   0.24991   0.50336   0.00000  Uiso   1.00
C310   C     0.33480   0.24991   0.49664   0.00000  Uiso   1.00
O311   O     0.25000   0.29071   0.42946   0.00000  Uiso   1.00
O312   O     0.25000   0.20929   0.57054   0.00000  Uiso   1.00
O313   O     0.25000   0.29071   0.57054   0.00000  Uiso   1.00
O314   O     0.25000   0.20929   0.42946   0.00000  Uiso   1.00
C315   C     0.26429   0.05340   0.54161   0.00000  Uiso   1.00
C316   C     0.22650   0.44590   0.46318   0.00000  Uiso   1.00
C317   C     0.23572   0.05339   0.45839   0.00000  Uiso   1.00
C318   C     0.27350   0.44590   0.53683   0.00000  Uiso   1.00
C319   C     0.24986   0.25000   0.40692   0.00000  Uiso   1.00
C320   C     0.25015   0.25000   0.59308   0.00000  Uiso   1.00
Cu321  Cu    0.25000   0.29821   0.50000   0.00000  Uiso   1.00
Cu322  Cu    0.25000   0.20178   0.50000   0.00000  Uiso   1.00
N323   N     0.25000   0.12934   0.50000   0.00000  Uiso   1.00
N324   N     0.25000   0.37065   0.50000   0.00000  Uiso   1.00
C325   C     0.25001   0.02687   0.50000   0.00000  Uiso   1.00
C326   C     0.25001   0.47246   0.50000   0.00000  Uiso   1.00
C327   C     0.24995   0.25000   0.35518   0.00000  Uiso   1.00
C328   C     0.25005   0.25000   0.64482   0.00000  Uiso   1.00
C329   C     0.04791   0.29186   0.51692   0.00000  Uiso   1.00
C330   C     0.45279   0.20873   0.50584   0.00000  Uiso   1.00
C331   C     0.45210   0.29187   0.48310   0.00000  Uiso   1.00
C332   C     0.04721   0.20873   0.49417   0.00000  Uiso   1.00
H333   H     0.03051   0.32386   0.52658   0.00000  Uiso   1.00
H334   H     0.46999   0.17651   0.51755   0.00000  Uiso   1.00
H335   H     0.46951   0.32386   0.47346   0.00000  Uiso   1.00
H336   H     0.03001   0.17651   0.48246   0.00000  Uiso   1.00
C337   C     0.09388   0.29201   0.51991   0.00000  Uiso   1.00
C338   C     0.40750   0.20639   0.49809   0.00000  Uiso   1.00
C339   C     0.40613   0.29202   0.48012   0.00000  Uiso   1.00
C340   C     0.09250   0.20639   0.50192   0.00000  Uiso   1.00
C341   C     0.11696   0.24949   0.50853   0.00000  Uiso   1.00
C342   C     0.38304   0.24950   0.49148   0.00000  Uiso   1.00
C343   C     0.02430   0.25091   0.50215   0.00000  Uiso   1.00
C344   C     0.47571   0.25092   0.49786   0.00000  Uiso   1.00
C345   C     0.26582   0.10375   0.54089   0.00000  Uiso   1.00
C346   C     0.22736   0.39564   0.46302   0.00000  Uiso   1.00
C347   C     0.23417   0.10374   0.45911   0.00000  Uiso   1.00
C348   C     0.27264   0.39564   0.53698   0.00000  Uiso   1.00
H349   H     0.27504   0.03568   0.57542   0.00000  Uiso   1.00
H350   H     0.20669   0.46325   0.43418   0.00000  Uiso   1.00
H351   H     0.22496   0.03566   0.42459   0.00000  Uiso   1.00
H352   H     0.29331   0.46325   0.56583   0.00000  Uiso   1.00
N353   N     0.28420   0.12675   0.58445   0.00000  Uiso   1.00
O354   O     0.27382   0.11158   0.62719   0.00000  Uiso   1.00
O355   O     0.31814   0.15438   0.58256   0.00000  Uiso   1.00
N356   N     0.20516   0.37153   0.42243   0.00000  Uiso   1.00
O357   O     0.21808   0.37853   0.37849   0.00000  Uiso   1.00
O358   O     0.16643   0.35365   0.42699   0.00000  Uiso   1.00
N359   N     0.21571   0.12673   0.41558   0.00000  Uiso   1.00
O360   O     0.22583   0.11140   0.37281   0.00000  Uiso   1.00
O361   O     0.18187   0.15448   0.41757   0.00000  Uiso   1.00
N362   N     0.29484   0.37153   0.57758   0.00000  Uiso   1.00
O363   O     0.28192   0.37854   0.62151   0.00000  Uiso   1.00
O364   O     0.33356   0.35365   0.57302   0.00000  Uiso   1.00
C365   C     0.11671   0.33681   0.53910   0.00000  Uiso   1.00
H366   H     0.14183   0.32767   0.56894   0.00000  Uiso   1.00
H367   H     0.13205   0.35582   0.50908   0.00000  Uiso   1.00
H368   H     0.09349   0.36219   0.55487   0.00000  Uiso   1.00
C369   C     0.38792   0.15690   0.49322   0.00000  Uiso   1.00
H370   H     0.36387   0.15491   0.46093   0.00000  Uiso   1.00
H371   H     0.41326   0.12952   0.48682   0.00000  Uiso   1.00
H372   H     0.37300   0.14663   0.52724   0.00000  Uiso   1.00
C373   C     0.38330   0.33682   0.46093   0.00000  Uiso   1.00
H374   H     0.35821   0.32769   0.43107   0.00000  Uiso   1.00
H375   H     0.36795   0.35581   0.49094   0.00000  Uiso   1.00
H376   H     0.40653   0.36222   0.44520   0.00000  Uiso   1.00
C377   C     0.11207   0.15689   0.50680   0.00000  Uiso   1.00
H378   H     0.13618   0.15491   0.53904   0.00000  Uiso   1.00
H379   H     0.08674   0.12953   0.51330   0.00000  Uiso   1.00
H380   H     0.12692   0.14657   0.47275   0.00000  Uiso   1.00
O381   O     0.68573   0.29071   0.50000   0.00000  Uiso   1.00
O382   O     0.81427   0.20928   0.50000   0.00000  Uiso   1.00
O383   O     0.81427   0.29071   0.50000   0.00000  Uiso   1.00
O384   O     0.68573   0.20928   0.50000   0.00000  Uiso   1.00
C385   C     0.66520   0.24991   0.50336   0.00000  Uiso   1.00
C386   C     0.83480   0.24991   0.49664   0.00000  Uiso   1.00
O387   O     0.75000   0.29071   0.42946   0.00000  Uiso   1.00
O388   O     0.75000   0.20929   0.57054   0.00000  Uiso   1.00
O389   O     0.75000   0.29071   0.57054   0.00000  Uiso   1.00
O390   O     0.75000   0.20929   0.42946   0.00000  Uiso   1.00
C391   C     0.76429   0.05340   0.54161   0.00000  Uiso   1.00
C392   C     0.72650   0.44590   0.46318   0.00000  Uiso   1.00
C393   C     0.73572   0.05339   0.45839   0.00000  Uiso   1.00
C394   C     0.77350   0.44590   0.53683   0.00000  Uiso   1.00
C395   C     0.74986   0.25000   0.40692   0.00000  Uiso   1.00
C396   C     0.75015   0.25000   0.59308   0.00000  Uiso   1.00
Cu397  Cu    0.75000   0.29821   0.50000   0.00000  Uiso   1.00
Cu398  Cu    0.75000   0.20178   0.50000   0.00000  Uiso   1.00
N399   N     0.75000   0.12934   0.50000   0.00000  Uiso   1.00
N400   N     0.75000   0.37065   0.50000   0.00000  Uiso   1.00
C401   C     0.75001   0.02687   0.50000   0.00000  Uiso   1.00
C402   C     0.75001   0.47246   0.50000   0.00000  Uiso   1.00
C403   C     0.74995   0.25000   0.35518   0.00000  Uiso   1.00
C404   C     0.75005   0.25000   0.64482   0.00000  Uiso   1.00
C405   C     0.54791   0.29186   0.51692   0.00000  Uiso   1.00
C406   C     0.95279   0.20873   0.50584   0.00000  Uiso   1.00
C407   C     0.95210   0.29187   0.48310   0.00000  Uiso   1.00
C408   C     0.54721   0.20873   0.49417   0.00000  Uiso   1.00
H409   H     0.53051   0.32386   0.52658   0.00000  Uiso   1.00
H410   H     0.96999   0.17651   0.51755   0.00000  Uiso   1.00
H411   H     0.96951   0.32386   0.47346   0.00000  Uiso   1.00
H412   H     0.53001   0.17651   0.48246   0.00000  Uiso   1.00
C413   C     0.59388   0.29201   0.51991   0.00000  Uiso   1.00
C414   C     0.90750   0.20639   0.49809   0.00000  Uiso   1.00
C415   C     0.90613   0.29202   0.48012   0.00000  Uiso   1.00
C416   C     0.59250   0.20639   0.50192   0.00000  Uiso   1.00
C417   C     0.61696   0.24949   0.50853   0.00000  Uiso   1.00
C418   C     0.88304   0.24950   0.49148   0.00000  Uiso   1.00
C419   C     0.52430   0.25091   0.50215   0.00000  Uiso   1.00
C420   C     0.97571   0.25092   0.49786   0.00000  Uiso   1.00
C421   C     0.76582   0.10375   0.54089   0.00000  Uiso   1.00
C422   C     0.72736   0.39564   0.46302   0.00000  Uiso   1.00
C423   C     0.73417   0.10374   0.45911   0.00000  Uiso   1.00
C424   C     0.77264   0.39564   0.53698   0.00000  Uiso   1.00
H425   H     0.77504   0.03568   0.57542   0.00000  Uiso   1.00
H426   H     0.70669   0.46325   0.43418   0.00000  Uiso   1.00
H427   H     0.72496   0.03566   0.42459   0.00000  Uiso   1.00
H428   H     0.79331   0.46325   0.56583   0.00000  Uiso   1.00
N429   N     0.78420   0.12675   0.58445   0.00000  Uiso   1.00
O430   O     0.77382   0.11158   0.62719   0.00000  Uiso   1.00
O431   O     0.81814   0.15438   0.58256   0.00000  Uiso   1.00
N432   N     0.70516   0.37153   0.42243   0.00000  Uiso   1.00
O433   O     0.71808   0.37853   0.37849   0.00000  Uiso   1.00
O434   O     0.66643   0.35365   0.42699   0.00000  Uiso   1.00
N435   N     0.71571   0.12673   0.41558   0.00000  Uiso   1.00
O436   O     0.72583   0.11140   0.37281   0.00000  Uiso   1.00
O437   O     0.68187   0.15448   0.41757   0.00000  Uiso   1.00
N438   N     0.79484   0.37153   0.57758   0.00000  Uiso   1.00
O439   O     0.78192   0.37854   0.62151   0.00000  Uiso   1.00
O440   O     0.83356   0.35365   0.57302   0.00000  Uiso   1.00
C441   C     0.61671   0.33681   0.53910   0.00000  Uiso   1.00
H442   H     0.64183   0.32767   0.56894   0.00000  Uiso   1.00
H443   H     0.63205   0.35582   0.50908   0.00000  Uiso   1.00
H444   H     0.59349   0.36219   0.55487   0.00000  Uiso   1.00
C445   C     0.88792   0.15690   0.49322   0.00000  Uiso   1.00
H446   H     0.86387   0.15491   0.46093   0.00000  Uiso   1.00
H447   H     0.91326   0.12952   0.48682   0.00000  Uiso   1.00
H448   H     0.87300   0.14663   0.52724   0.00000  Uiso   1.00
C449   C     0.88330   0.33682   0.46093   0.00000  Uiso   1.00
H450   H     0.85821   0.32769   0.43107   0.00000  Uiso   1.00
H451   H     0.86795   0.35581   0.49094   0.00000  Uiso   1.00
H452   H     0.90653   0.36222   0.44520   0.00000  Uiso   1.00
C453   C     0.61207   0.15689   0.50680   0.00000  Uiso   1.00
H454   H     0.63618   0.15491   0.53904   0.00000  Uiso   1.00
H455   H     0.58674   0.12953   0.51330   0.00000  Uiso   1.00
H456   H     0.62692   0.14657   0.47275   0.00000  Uiso   1.00
O457   O     0.18573   0.79071   0.50000   0.00000  Uiso   1.00
O458   O     0.31427   0.70928   0.50000   0.00000  Uiso   1.00
O459   O     0.31427   0.79071   0.50000   0.00000  Uiso   1.00
O460   O     0.18573   0.70928   0.50000   0.00000  Uiso   1.00
C461   C     0.16520   0.74991   0.50336   0.00000  Uiso   1.00
C462   C     0.33480   0.74991   0.49664   0.00000  Uiso   1.00
O463   O     0.25000   0.79071   0.42946   0.00000  Uiso   1.00
O464   O     0.25000   0.70929   0.57054   0.00000  Uiso   1.00
O465   O     0.25000   0.79071   0.57054   0.00000  Uiso   1.00
O466   O     0.25000   0.70929   0.42946   0.00000  Uiso   1.00
C467   C     0.26429   0.55340   0.54161   0.00000  Uiso   1.00
C468   C     0.22650   0.94590   0.46318   0.00000  Uiso   1.00
C469   C     0.23572   0.55339   0.45839   0.00000  Uiso   1.00
C470   C     0.27350   0.94590   0.53683   0.00000  Uiso   1.00
C471   C     0.24986   0.75000   0.40692   0.00000  Uiso   1.00
C472   C     0.25015   0.75000   0.59308   0.00000  Uiso   1.00
Cu473  Cu    0.25000   0.79821   0.50000   0.00000  Uiso   1.00
Cu474  Cu    0.25000   0.70178   0.50000   0.00000  Uiso   1.00
N475   N     0.25000   0.62934   0.50000   0.00000  Uiso   1.00
N476   N     0.25000   0.87065   0.50000   0.00000  Uiso   1.00
C477   C     0.25001   0.52687   0.50000   0.00000  Uiso   1.00
C478   C     0.25001   0.97246   0.50000   0.00000  Uiso   1.00
C479   C     0.24995   0.75000   0.35518   0.00000  Uiso   1.00
C480   C     0.25005   0.75000   0.64482   0.00000  Uiso   1.00
C481   C     0.04791   0.79186   0.51692   0.00000  Uiso   1.00
C482   C     0.45279   0.70873   0.50584   0.00000  Uiso   1.00
C483   C     0.45210   0.79187   0.48310   0.00000  Uiso   1.00
C484   C     0.04721   0.70873   0.49417   0.00000  Uiso   1.00
H485   H     0.03051   0.82386   0.52658   0.00000  Uiso   1.00
H486   H     0.46999   0.67651   0.51755   0.00000  Uiso   1.00
H487   H     0.46951   0.82386   0.47346   0.00000  Uiso   1.00
H488   H     0.03001   0.67651   0.48246   0.00000  Uiso   1.00
C489   C     0.09388   0.79201   0.51991   0.00000  Uiso   1.00
C490   C     0.40750   0.70639   0.49809   0.00000  Uiso   1.00
C491   C     0.40613   0.79202   0.48012   0.00000  Uiso   1.00
C492   C     0.09250   0.70639   0.50192   0.00000  Uiso   1.00
C493   C     0.11696   0.74949   0.50853   0.00000  Uiso   1.00
C494   C     0.38304   0.74950   0.49148   0.00000  Uiso   1.00
C495   C     0.02430   0.75091   0.50215   0.00000  Uiso   1.00
C496   C     0.47571   0.75092   0.49786   0.00000  Uiso   1.00
C497   C     0.26582   0.60375   0.54089   0.00000  Uiso   1.00
C498   C     0.22736   0.89564   0.46302   0.00000  Uiso   1.00
C499   C     0.23417   0.60374   0.45911   0.00000  Uiso   1.00
C500   C     0.27264   0.89564   0.53698   0.00000  Uiso   1.00
H501   H     0.27504   0.53568   0.57542   0.00000  Uiso   1.00
H502   H     0.20669   0.96325   0.43418   0.00000  Uiso   1.00
H503   H     0.22496   0.53566   0.42459   0.00000  Uiso   1.00
H504   H     0.29331   0.96325   0.56583   0.00000  Uiso   1.00
N505   N     0.28420   0.62675   0.58445   0.00000  Uiso   1.00
O506   O     0.27382   0.61158   0.62719   0.00000  Uiso   1.00
O507   O     0.31814   0.65438   0.58256   0.00000  Uiso   1.00
N508   N     0.20516   0.87153   0.42243   0.00000  Uiso   1.00
O509   O     0.21808   0.87853   0.37849   0.00000  Uiso   1.00
O510   O     0.16643   0.85365   0.42699   0.00000  Uiso   1.00
N511   N     0.21571   0.62673   0.41558   0.00000  Uiso   1.00
O512   O     0.22583   0.61140   0.37281   0.00000  Uiso   1.00
O513   O     0.18187   0.65448   0.41757   0.00000  Uiso   1.00
N514   N     0.29484   0.87153   0.57758   0.00000  Uiso   1.00
O515   O     0.28192   0.87854   0.62151   0.00000  Uiso   1.00
O516   O     0.33356   0.85365   0.57302   0.00000  Uiso   1.00
C517   C     0.11671   0.83681   0.53910   0.00000  Uiso   1.00
H518   H     0.14183   0.82767   0.56894   0.00000  Uiso   1.00
H519   H     0.13205   0.85582   0.50908   0.00000  Uiso   1.00
H520   H     0.09349   0.86219   0.55487   0.00000  Uiso   1.00
C521   C     0.38792   0.65690   0.49322   0.00000  Uiso   1.00
H522   H     0.36387   0.65491   0.46093   0.00000  Uiso   1.00
H523   H     0.41326   0.62952   0.48682   0.00000  Uiso   1.00
H524   H     0.37300   0.64663   0.52724   0.00000  Uiso   1.00
C525   C     0.38330   0.83682   0.46093   0.00000  Uiso   1.00
H526   H     0.35821   0.82769   0.43107   0.00000  Uiso   1.00
H527   H     0.36795   0.85581   0.49094   0.00000  Uiso   1.00
H528   H     0.40653   0.86222   0.44520   0.00000  Uiso   1.00
C529   C     0.11207   0.65689   0.50680   0.00000  Uiso   1.00
H530   H     0.13618   0.65491   0.53904   0.00000  Uiso   1.00
H531   H     0.08674   0.62953   0.51330   0.00000  Uiso   1.00
H532   H     0.12692   0.64657   0.47275   0.00000  Uiso   1.00
O533   O     0.68573   0.79071   0.50000   0.00000  Uiso   1.00
O534   O     0.81427   0.70928   0.50000   0.00000  Uiso   1.00
O535   O     0.81427   0.79071   0.50000   0.00000  Uiso   1.00
O536   O     0.68573   0.70928   0.50000   0.00000  Uiso   1.00
C537   C     0.66520   0.74991   0.50336   0.00000  Uiso   1.00
C538   C     0.83480   0.74991   0.49664   0.00000  Uiso   1.00
O539   O     0.75000   0.79071   0.42946   0.00000  Uiso   1.00
O540   O     0.75000   0.70929   0.57054   0.00000  Uiso   1.00
O541   O     0.75000   0.79071   0.57054   0.00000  Uiso   1.00
O542   O     0.75000   0.70929   0.42946   0.00000  Uiso   1.00
C543   C     0.76429   0.55340   0.54161   0.00000  Uiso   1.00
C544   C     0.72650   0.94590   0.46318   0.00000  Uiso   1.00
C545   C     0.73572   0.55339   0.45839   0.00000  Uiso   1.00
C546   C     0.77350   0.94590   0.53683   0.00000  Uiso   1.00
C547   C     0.74986   0.75000   0.40692   0.00000  Uiso   1.00
C548   C     0.75015   0.75000   0.59308   0.00000  Uiso   1.00
Cu549  Cu    0.75000   0.79821   0.50000   0.00000  Uiso   1.00
Cu550  Cu    0.75000   0.70178   0.50000   0.00000  Uiso   1.00
N551   N     0.75000   0.62934   0.50000   0.00000  Uiso   1.00
N552   N     0.75000   0.87065   0.50000   0.00000  Uiso   1.00
C553   C     0.75001   0.52687   0.50000   0.00000  Uiso   1.00
C554   C     0.75001   0.97246   0.50000   0.00000  Uiso   1.00
C555   C     0.74995   0.75000   0.35518   0.00000  Uiso   1.00
C556   C     0.75005   0.75000   0.64482   0.00000  Uiso   1.00
C557   C     0.54791   0.79186   0.51692   0.00000  Uiso   1.00
C558   C     0.95279   0.70873   0.50584   0.00000  Uiso   1.00
C559   C     0.95210   0.79187   0.48310   0.00000  Uiso   1.00
C560   C     0.54721   0.70873   0.49417   0.00000  Uiso   1.00
H561   H     0.53051   0.82386   0.52658   0.00000  Uiso   1.00
H562   H     0.96999   0.67651   0.51755   0.00000  Uiso   1.00
H563   H     0.96951   0.82386   0.47346   0.00000  Uiso   1.00
H564   H     0.53001   0.67651   0.48246   0.00000  Uiso   1.00
C565   C     0.59388   0.79201   0.51991   0.00000  Uiso   1.00
C566   C     0.90750   0.70639   0.49809   0.00000  Uiso   1.00
C567   C     0.90613   0.79202   0.48012   0.00000  Uiso   1.00
C568   C     0.59250   0.70639   0.50192   0.00000  Uiso   1.00
C569   C     0.61696   0.74949   0.50853   0.00000  Uiso   1.00
C570   C     0.88304   0.74950   0.49148   0.00000  Uiso   1.00
C571   C     0.52430   0.75091   0.50215   0.00000  Uiso   1.00
C572   C     0.97571   0.75092   0.49786   0.00000  Uiso   1.00
C573   C     0.76582   0.60375   0.54089   0.00000  Uiso   1.00
C574   C     0.72736   0.89564   0.46302   0.00000  Uiso   1.00
C575   C     0.73417   0.60374   0.45911   0.00000  Uiso   1.00
C576   C     0.77264   0.89564   0.53698   0.00000  Uiso   1.00
H577   H     0.77504   0.53568   0.57542   0.00000  Uiso   1.00
H578   H     0.70669   0.96325   0.43418   0.00000  Uiso   1.00
H579   H     0.72496   0.53566   0.42459   0.00000  Uiso   1.00
H580   H     0.79331   0.96325   0.56583   0.00000  Uiso   1.00
N581   N     0.78420   0.62675   0.58445   0.00000  Uiso   1.00
O582   O     0.77382   0.61158   0.62719   0.00000  Uiso   1.00
O583   O     0.81814   0.65438   0.58256   0.00000  Uiso   1.00
N584   N     0.70516   0.87153   0.42243   0.00000  Uiso   1.00
O585   O     0.71808   0.87853   0.37849   0.00000  Uiso   1.00
O586   O     0.66643   0.85365   0.42699   0.00000  Uiso   1.00
N587   N     0.71571   0.62673   0.41558   0.00000  Uiso   1.00
O588   O     0.72583   0.61140   0.37281   0.00000  Uiso   1.00
O589   O     0.68187   0.65448   0.41757   0.00000  Uiso   1.00
N590   N     0.79484   0.87153   0.57758   0.00000  Uiso   1.00
O591   O     0.78192   0.87854   0.62151   0.00000  Uiso   1.00
O592   O     0.83356   0.85365   0.57302   0.00000  Uiso   1.00
C593   C     0.61671   0.83681   0.53910   0.00000  Uiso   1.00
H594   H     0.64183   0.82767   0.56894   0.00000  Uiso   1.00
H595   H     0.63205   0.85582   0.50908   0.00000  Uiso   1.00
H596   H     0.59349   0.86219   0.55487   0.00000  Uiso   1.00
C597   C     0.88792   0.65690   0.49322   0.00000  Uiso   1.00
H598   H     0.86387   0.65491   0.46093   0.00000  Uiso   1.00
H599   H     0.91326   0.62952   0.48682   0.00000  Uiso   1.00
H600   H     0.87300   0.64663   0.52724   0.00000  Uiso   1.00
C601   C     0.88330   0.83682   0.46093   0.00000  Uiso   1.00
H602   H     0.85821   0.82769   0.43107   0.00000  Uiso   1.00
H603   H     0.86795   0.85581   0.49094   0.00000  Uiso   1.00
H604   H     0.90653   0.86222   0.44520   0.00000  Uiso   1.00
C605   C     0.61207   0.65689   0.50680   0.00000  Uiso   1.00
H606   H     0.63618   0.65491   0.53904   0.00000  Uiso   1.00
H607   H     0.58674   0.62953   0.51330   0.00000  Uiso   1.00
H608   H     0.62692   0.64657   0.47275   0.00000  Uiso   1.00
O609   O     0.18573   0.29071   0.83334   0.00000  Uiso   1.00
O610   O     0.31427   0.20928   0.83333   0.00000  Uiso   1.00
O611   O     0.31427   0.29071   0.83333   0.00000  Uiso   1.00
O612   O     0.18573   0.20928   0.83334   0.00000  Uiso   1.00
C613   C     0.16520   0.24991   0.83669   0.00000  Uiso   1.00
C614   C     0.33480   0.24991   0.82998   0.00000  Uiso   1.00
O615   O     0.25000   0.29071   0.76280   0.00000  Uiso   1.00
O616   O     0.25000   0.20929   0.90387   0.00000  Uiso   1.00
O617   O     0.25000   0.29071   0.90387   0.00000  Uiso   1.00
O618   O     0.25000   0.20929   0.76280   0.00000  Uiso   1.00
C619   C     0.26429   0.05340   0.87495   0.00000  Uiso   1.00
C620   C     0.22650   0.44590   0.79651   0.00000  Uiso   1.00
C621   C     0.23572   0.05339   0.79173   0.00000  Uiso   1.00
C622   C     0.27350   0.44590   0.87016   0.00000  Uiso   1.00
C623   C     0.24986   0.25000   0.74025   0.00000  Uiso   1.00
C624   C     0.25015   0.25000   0.92642   0.00000  Uiso   1.00
Cu625  Cu    0.25000   0.29821   0.83333   0.00000  Uiso   1.00
Cu626  Cu    0.25000   0.20178   0.83333   0.00000  Uiso   1.00
N627   N     0.25000   0.12934   0.83333   0.00000  Uiso   1.00
N628   N     0.25000   0.37065   0.83333   0.00000  Uiso   1.00
C629   C     0.25001   0.02687   0.83334   0.00000  Uiso   1.00
C630   C     0.25001   0.47246   0.83334   0.00000  Uiso   1.00
C631   C     0.24995   0.25000   0.68851   0.00000  Uiso   1.00
C632   C     0.25005   0.25000   0.97815   0.00000  Uiso   1.00
C633   C     0.04791   0.29186   0.85026   0.00000  Uiso   1.00
C634   C     0.45279   0.20873   0.83917   0.00000  Uiso   1.00
C635   C     0.45210   0.29187   0.81644   0.00000  Uiso   1.00
C636   C     0.04721   0.20873   0.82751   0.00000  Uiso   1.00
H637   H     0.03051   0.32386   0.85991   0.00000  Uiso   1.00
H638   H     0.46999   0.17651   0.85089   0.00000  Uiso   1.00
H639   H     0.46951   0.32386   0.80679   0.00000  Uiso   1.00
H640   H     0.03001   0.17651   0.81579   0.00000  Uiso   1.00
C641   C     0.09388   0.29201   0.85324   0.00000  Uiso   1.00
C642   C     0.40750   0.20639   0.83142   0.00000  Uiso   1.00
C643   C     0.40613   0.29202   0.81345   0.00000  Uiso   1.00
C644   C     0.09250   0.20639   0.83526   0.00000  Uiso   1.00
C645   C     0.11696   0.24949   0.84187   0.00000  Uiso   1.00
C646   C     0.38304   0.24950   0.82482   0.00000  Uiso   1.00
C647   C     0.02430   0.25091   0.83549   0.00000  Uiso   1.00
C648   C     0.47571   0.25092   0.83120   0.00000  Uiso   1.00
C649   C     0.26582   0.10375   0.87423   0.00000  Uiso   1.00
C650   C     0.22736   0.39564   0.79636   0.00000  Uiso   1.00
C651   C     0.23417   0.10374   0.79244   0.00000  Uiso   1.00
C652   C     0.27264   0.39564   0.87031   0.00000  Uiso   1.00
H653   H     0.27504   0.03568   0.90875   0.00000  Uiso   1.00
H654   H     0.20669   0.46325   0.76751   0.00000  Uiso   1.00
H655   H     0.22496   0.03566   0.75793   0.00000  Uiso   1.00
H656   H     0.29331   0.46325   0.89916   0.00000  Uiso   1.00
N657   N     0.28420   0.12675   0.91778   0.00000  Uiso   1.00
O658   O     0.27382   0.11158   0.96053   0.00000  Uiso   1.00
O659   O     0.31814   0.15438   0.91590   0.00000  Uiso   1.00
N660   N     0.20516   0.37153   0.75576   0.00000  Uiso   1.00
O661   O     0.21808   0.37853   0.71183   0.00000  Uiso   1.00
O662   O     0.16643   0.35365   0.76033   0.00000  Uiso   1.00
N663   N     0.21571   0.12673   0.74891   0.00000  Uiso   1.00
O664   O     0.22583   0.11140   0.70614   0.00000  Uiso   1.00
O665   O     0.18187   0.15448   0.75090   0.00000  Uiso   1.00
N666   N     0.29484   0.37153   0.91091   0.00000  Uiso   1.00
O667   O     0.28192   0.37854   0.95484   0.00000  Uiso   1.00
O668   O     0.33356   0.35365   0.90635   0.00000  Uiso   1.00
C669   C     0.11671   0.33681   0.87244   0.00000  Uiso   1.00
H670   H     0.14183   0.32767   0.90227   0.00000  Uiso   1.00
H671   H     0.13205   0.35582   0.84241   0.00000  Uiso   1.00
H672   H     0.09349   0.36219   0.88821   0.00000  Uiso   1.00
C673   C     0.38792   0.15690   0.82656   0.00000  Uiso   1.00
H674   H     0.36387   0.15491   0.79427   0.00000  Uiso   1.00
H675   H     0.41326   0.12952   0.82016   0.00000  Uiso   1.00
H676   H     0.37300   0.14663   0.86057   0.00000  Uiso   1.00
C677   C     0.38330   0.33682   0.79426   0.00000  Uiso   1.00
H678   H     0.35821   0.32769   0.76440   0.00000  Uiso   1.00
H679   H     0.36795   0.35581   0.82427   0.00000  Uiso   1.00
H680   H     0.40653   0.36222   0.77853   0.00000  Uiso   1.00
C681   C     0.11207   0.15689   0.84013   0.00000  Uiso   1.00
H682   H     0.13618   0.15491   0.87238   0.00000  Uiso   1.00
H683   H     0.08674   0.12953   0.84663   0.00000  Uiso   1.00
H684   H     0.12692   0.14657   0.80609   0.00000  Uiso   1.00
O685   O     0.68573   0.29071   0.83334   0.00000  Uiso   1.00
O686   O     0.81427   0.20928   0.83333   0.00000  Uiso   1.00
O687   O     0.81427   0.29071   0.83333   0.00000  Uiso   1.00
O688   O     0.68573   0.20928   0.83334   0.00000  Uiso   1.00
C689   C     0.66520   0.24991   0.83669   0.00000  Uiso   1.00
C690   C     0.83480   0.24991   0.82998   0.00000  Uiso   1.00
O691   O     0.75000   0.29071   0.76280   0.00000  Uiso   1.00
O692   O     0.75000   0.20929   0.90387   0.00000  Uiso   1.00
O693   O     0.75000   0.29071   0.90387   0.00000  Uiso   1.00
O694   O     0.75000   0.20929   0.76280   0.00000  Uiso   1.00
C695   C     0.76429   0.05340   0.87495   0.00000  Uiso   1.00
C696   C     0.72650   0.44590   0.79651   0.00000  Uiso   1.00
C697   C     0.73572   0.05339   0.79173   0.00000  Uiso   1.00
C698   C     0.77350   0.44590   0.87016   0.00000  Uiso   1.00
C699   C     0.74986   0.25000   0.74025   0.00000  Uiso   1.00
C700   C     0.75015   0.25000   0.92642   0.00000  Uiso   1.00
Cu701  Cu    0.75000   0.29821   0.83333   0.00000  Uiso   1.00
Cu702  Cu    0.75000   0.20178   0.83333   0.00000  Uiso   1.00
N703   N     0.75000   0.12934   0.83333   0.00000  Uiso   1.00
N704   N     0.75000   0.37065   0.83333   0.00000  Uiso   1.00
C705   C     0.75001   0.02687   0.83334   0.00000  Uiso   1.00
C706   C     0.75001   0.47246   0.83334   0.00000  Uiso   1.00
C707   C     0.74995   0.25000   0.68851   0.00000  Uiso   1.00
C708   C     0.75005   0.25000   0.97815   0.00000  Uiso   1.00
C709   C     0.54791   0.29186   0.85026   0.00000  Uiso   1.00
C710   C     0.95279   0.20873   0.83917   0.00000  Uiso   1.00
C711   C     0.95210   0.29187   0.81644   0.00000  Uiso   1.00
C712   C     0.54721   0.20873   0.82751   0.00000  Uiso   1.00
H713   H     0.53051   0.32386   0.85991   0.00000  Uiso   1.00
H714   H     0.96999   0.17651   0.85089   0.00000  Uiso   1.00
H715   H     0.96951   0.32386   0.80679   0.00000  Uiso   1.00
H716   H     0.53001   0.17651   0.81579   0.00000  Uiso   1.00
C717   C     0.59388   0.29201   0.85324   0.00000  Uiso   1.00
C718   C     0.90750   0.20639   0.83142   0.00000  Uiso   1.00
C719   C     0.90613   0.29202   0.81345   0.00000  Uiso   1.00
C720   C     0.59250   0.20639   0.83526   0.00000  Uiso   1.00
C721   C     0.61696   0.24949   0.84187   0.00000  Uiso   1.00
C722   C     0.88304   0.24950   0.82482   0.00000  Uiso   1.00
C723   C     0.52430   0.25091   0.83549   0.00000  Uiso   1.00
C724   C     0.97571   0.25092   0.83120   0.00000  Uiso   1.00
C725   C     0.76582   0.10375   0.87423   0.00000  Uiso   1.00
C726   C     0.72736   0.39564   0.79636   0.00000  Uiso   1.00
C727   C     0.73417   0.10374   0.79244   0.00000  Uiso   1.00
C728   C     0.77264   0.39564   0.87031   0.00000  Uiso   1.00
H729   H     0.77504   0.03568   0.90875   0.00000  Uiso   1.00
H730   H     0.70669   0.46325   0.76751   0.00000  Uiso   1.00
H731   H     0.72496   0.03566   0.75793   0.00000  Uiso   1.00
H732   H     0.79331   0.46325   0.89916   0.00000  Uiso   1.00
N733   N     0.78420   0.12675   0.91778   0.00000  Uiso   1.00
O734   O     0.77382   0.11158   0.96053   0.00000  Uiso   1.00
O735   O     0.81814   0.15438   0.91590   0.00000  Uiso   1.00
N736   N     0.70516   0.37153   0.75576   0.00000  Uiso   1.00
O737   O     0.71808   0.37853   0.71183   0.00000  Uiso   1.00
O738   O     0.66643   0.35365   0.76033   0.00000  Uiso   1.00
N739   N     0.71571   0.12673   0.74891   0.00000  Uiso   1.00
O740   O     0.72583   0.11140   0.70614   0.00000  Uiso   1.00
O741   O     0.68187   0.15448   0.75090   0.00000  Uiso   1.00
N742   N     0.79484   0.37153   0.91091   0.00000  Uiso   1.00
O743   O     0.78192   0.37854   0.95484   0.00000  Uiso   1.00
O744   O     0.83356   0.35365   0.90635   0.00000  Uiso   1.00
C745   C     0.61671   0.33681   0.87244   0.00000  Uiso   1.00
H746   H     0.64183   0.32767   0.90227   0.00000  Uiso   1.00
H747   H     0.63205   0.35582   0.84241   0.00000  Uiso   1.00
H748   H     0.59349   0.36219   0.88821   0.00000  Uiso   1.00
C749   C     0.88792   0.15690   0.82656   0.00000  Uiso   1.00
H750   H     0.86387   0.15491   0.79427   0.00000  Uiso   1.00
H751   H     0.91326   0.12952   0.82016   0.00000  Uiso   1.00
H752   H     0.87300   0.14663   0.86057   0.00000  Uiso   1.00
C753   C     0.88330   0.33682   0.79426   0.00000  Uiso   1.00
H754   H     0.85821   0.32769   0.76440   0.00000  Uiso   1.00
H755   H     0.86795   0.35581   0.82427   0.00000  Uiso   1.00
H756   H     0.90653   0.36222   0.77853   0.00000  Uiso   1.00
C757   C     0.61207   0.15689   0.84013   0.00000  Uiso   1.00
H758   H     0.63618   0.15491   0.87238   0.00000  Uiso   1.00
H759   H     0.58674   0.12953   0.84663   0.00000  Uiso   1.00
H760   H     0.62692   0.14657   0.80609   0.00000  Uiso   1.00
O761   O     0.18573   0.79071   0.83334   0.00000  Uiso   1.00
O762   O     0.31427   0.70928   0.83333   0.00000  Uiso   1.00
O763   O     0.31427   0.79071   0.83333   0.00000  Uiso   1.00
O764   O     0.18573   0.70928   0.83334   0.00000  Uiso   1.00
C765   C     0.16520   0.74991   0.83669   0.00000  Uiso   1.00
C766   C     0.33480   0.74991   0.82998   0.00000  Uiso   1.00
O767   O     0.25000   0.79071   0.76280   0.00000  Uiso   1.00
O768   O     0.25000   0.70929   0.90387   0.00000  Uiso   1.00
O769   O     0.25000   0.79071   0.90387   0.00000  Uiso   1.00
O770   O     0.25000   0.70929   0.76280   0.00000  Uiso   1.00
C771   C     0.26429   0.55340   0.87495   0.00000  Uiso   1.00
C772   C     0.22650   0.94590   0.79651   0.00000  Uiso   1.00
C773   C     0.23572   0.55339   0.79173   0.00000  Uiso   1.00
C774   C     0.27350   0.94590   0.87016   0.00000  Uiso   1.00
C775   C     0.24986   0.75000   0.74025   0.00000  Uiso   1.00
C776   C     0.25015   0.75000   0.92642   0.00000  Uiso   1.00
Cu777  Cu    0.25000   0.79821   0.83333   0.00000  Uiso   1.00
Cu778  Cu    0.25000   0.70178   0.83333   0.00000  Uiso   1.00
N779   N     0.25000   0.62934   0.83333   0.00000  Uiso   1.00
N780   N     0.25000   0.87065   0.83333   0.00000  Uiso   1.00
C781   C     0.25001   0.52687   0.83334   0.00000  Uiso   1.00
C782   C     0.25001   0.97246   0.83334   0.00000  Uiso   1.00
C783   C     0.24995   0.75000   0.68851   0.00000  Uiso   1.00
C784   C     0.25005   0.75000   0.97815   0.00000  Uiso   1.00
C785   C     0.04791   0.79186   0.85026   0.00000  Uiso   1.00
C786   C     0.45279   0.70873   0.83917   0.00000  Uiso   1.00
C787   C     0.45210   0.79187   0.81644   0.00000  Uiso   1.00
C788   C     0.04721   0.70873   0.82751   0.00000  Uiso   1.00
H789   H     0.03051   0.82386   0.85991   0.00000  Uiso   1.00
H790   H     0.46999   0.67651   0.85089   0.00000  Uiso   1.00
H791   H     0.46951   0.82386   0.80679   0.00000  Uiso   1.00
H792   H     0.03001   0.67651   0.81579   0.00000  Uiso   1.00
C793   C     0.09388   0.79201   0.85324   0.00000  Uiso   1.00
C794   C     0.40750   0.70639   0.83142   0.00000  Uiso   1.00
C795   C     0.40613   0.79202   0.81345   0.00000  Uiso   1.00
C796   C     0.09250   0.70639   0.83526   0.00000  Uiso   1.00
C797   C     0.11696   0.74949   0.84187   0.00000  Uiso   1.00
C798   C     0.38304   0.74950   0.82482   0.00000  Uiso   1.00
C799   C     0.02430   0.75091   0.83549   0.00000  Uiso   1.00
C800   C     0.47571   0.75092   0.83120   0.00000  Uiso   1.00
C801   C     0.26582   0.60375   0.87423   0.00000  Uiso   1.00
C802   C     0.22736   0.89564   0.79636   0.00000  Uiso   1.00
C803   C     0.23417   0.60374   0.79244   0.00000  Uiso   1.00
C804   C     0.27264   0.89564   0.87031   0.00000  Uiso   1.00
H805   H     0.27504   0.53568   0.90875   0.00000  Uiso   1.00
H806   H     0.20669   0.96325   0.76751   0.00000  Uiso   1.00
H807   H     0.22496   0.53566   0.75793   0.00000  Uiso   1.00
H808   H     0.29331   0.96325   0.89916   0.00000  Uiso   1.00
N809   N     0.28420   0.62675   0.91778   0.00000  Uiso   1.00
O810   O     0.27382   0.61158   0.96053   0.00000  Uiso   1.00
O811   O     0.31814   0.65438   0.91590   0.00000  Uiso   1.00
N812   N     0.20516   0.87153   0.75576   0.00000  Uiso   1.00
O813   O     0.21808   0.87853   0.71183   0.00000  Uiso   1.00
O814   O     0.16643   0.85365   0.76033   0.00000  Uiso   1.00
N815   N     0.21571   0.62673   0.74891   0.00000  Uiso   1.00
O816   O     0.22583   0.61140   0.70614   0.00000  Uiso   1.00
O817   O     0.18187   0.65448   0.75090   0.00000  Uiso   1.00
N818   N     0.29484   0.87153   0.91091   0.00000  Uiso   1.00
O819   O     0.28192   0.87854   0.95484   0.00000  Uiso   1.00
O820   O     0.33356   0.85365   0.90635   0.00000  Uiso   1.00
C821   C     0.11671   0.83681   0.87244   0.00000  Uiso   1.00
H822   H     0.14183   0.82767   0.90227   0.00000  Uiso   1.00
H823   H     0.13205   0.85582   0.84241   0.00000  Uiso   1.00
H824   H     0.09349   0.86219   0.88821   0.00000  Uiso   1.00
C825   C     0.38792   0.65690   0.82656   0.00000  Uiso   1.00
H826   H     0.36387   0.65491   0.79427   0.00000  Uiso   1.00
H827   H     0.41326   0.62952   0.82016   0.00000  Uiso   1.00
H828   H     0.37300   0.64663   0.86057   0.00000  Uiso   1.00
C829   C     0.38330   0.83682   0.79426   0.00000  Uiso   1.00
H830   H     0.35821   0.82769   0.76440   0.00000  Uiso   1.00
H831   H     0.36795   0.85581   0.82427   0.00000  Uiso   1.00
H832   H     0.40653   0.86222   0.77853   0.00000  Uiso   1.00
C833   C     0.11207   0.65689   0.84013   0.00000  Uiso   1.00
H834   H     0.13618   0.65491   0.87238   0.00000  Uiso   1.00
H835   H     0.08674   0.62953   0.84663   0.00000  Uiso   1.00
H836   H     0.12692   0.64657   0.80609   0.00000  Uiso   1.00
O837   O     0.68573   0.79071   0.83334   0.00000  Uiso   1.00
O838   O     0.81427   0.70928   0.83333   0.00000  Uiso   1.00
O839   O     0.81427   0.79071   0.83333   0.00000  Uiso   1.00
O840   O     0.68573   0.70928   0.83334   0.00000  Uiso   1.00
C841   C     0.66520   0.74991   0.83669   0.00000  Uiso   1.00
C842   C     0.83480   0.74991   0.82998   0.00000  Uiso   1.00
O843   O     0.75000   0.79071   0.76280   0.00000  Uiso   1.00
O844   O     0.75000   0.70929   0.90387   0.00000  Uiso   1.00
O845   O     0.75000   0.79071   0.90387   0.00000  Uiso   1.00
O846   O     0.75000   0.70929   0.76280   0.00000  Uiso   1.00
C847   C     0.76429   0.55340   0.87495   0.00000  Uiso   1.00
C848   C     0.72650   0.94590   0.79651   0.00000  Uiso   1.00
C849   C     0.73572   0.55339   0.79173   0.00000  Uiso   1.00
C850   C     0.77350   0.94590   0.87016   0.00000  Uiso   1.00
C851   C     0.74986   0.75000   0.74025   0.00000  Uiso   1.00
C852   C     0.75015   0.75000   0.92642   0.00000  Uiso   1.00
Cu853  Cu    0.75000   0.79821   0.83333   0.00000  Uiso   1.00
Cu854  Cu    0.75000   0.70178   0.83333   0.00000  Uiso   1.00
N855   N     0.75000   0.62934   0.83333   0.00000  Uiso   1.00
N856   N     0.75000   0.87065   0.83333   0.00000  Uiso   1.00
C857   C     0.75001   0.52687   0.83334   0.00000  Uiso   1.00
C858   C     0.75001   0.97246   0.83334   0.00000  Uiso   1.00
C859   C     0.74995   0.75000   0.68851   0.00000  Uiso   1.00
C860   C     0.75005   0.75000   0.97815   0.00000  Uiso   1.00
C861   C     0.54791   0.79186   0.85026   0.00000  Uiso   1.00
C862   C     0.95279   0.70873   0.83917   0.00000  Uiso   1.00
C863   C     0.95210   0.79187   0.81644   0.00000  Uiso   1.00
C864   C     0.54721   0.70873   0.82751   0.00000  Uiso   1.00
H865   H     0.53051   0.82386   0.85991   0.00000  Uiso   1.00
H866   H     0.96999   0.67651   0.85089   0.00000  Uiso   1.00
H867   H     0.96951   0.82386   0.80679   0.00000  Uiso   1.00
H868   H     0.53001   0.67651   0.81579   0.00000  Uiso   1.00
C869   C     0.59388   0.79201   0.85324   0.00000  Uiso   1.00
C870   C     0.90750   0.70639   0.83142   0.00000  Uiso   1.00
C871   C     0.90613   0.79202   0.81345   0.00000  Uiso   1.00
C872   C     0.59250   0.70639   0.83526   0.00000  Uiso   1.00
C873   C     0.61696   0.74949   0.84187   0.00000  Uiso   1.00
C874   C     0.88304   0.74950   0.82482   0.00000  Uiso   1.00
C875   C     0.52430   0.75091   0.83549   0.00000  Uiso   1.00
C876   C     0.97571   0.75092   0.83120   0.00000  Uiso   1.00
C877   C     0.76582   0.60375   0.87423   0.00000  Uiso   1.00
C878   C     0.72736   0.89564   0.79636   0.00000  Uiso   1.00
C879   C     0.73417   0.60374   0.79244   0.00000  Uiso   1.00
C880   C     0.77264   0.89564   0.87031   0.00000  Uiso   1.00
H881   H     0.77504   0.53568   0.90875   0.00000  Uiso   1.00
H882   H     0.70669   0.96325   0.76751   0.00000  Uiso   1.00
H883   H     0.72496   0.53566   0.75793   0.00000  Uiso   1.00
H884   H     0.79331   0.96325   0.89916   0.00000  Uiso   1.00
N885   N     0.78420   0.62675   0.91778   0.00000  Uiso   1.00
O886   O     0.77382   0.61158   0.96053   0.00000  Uiso   1.00
O887   O     0.81814   0.65438   0.91590   0.00000  Uiso   1.00
N888   N     0.70516   0.87153   0.75576   0.00000  Uiso   1.00
O889   O     0.71808   0.87853   0.71183   0.00000  Uiso   1.00
O890   O     0.66643   0.85365   0.76033   0.00000  Uiso   1.00
N891   N     0.71571   0.62673   0.74891   0.00000  Uiso   1.00
O892   O     0.72583   0.61140   0.70614   0.00000  Uiso   1.00
O893   O     0.68187   0.65448   0.75090   0.00000  Uiso   1.00
N894   N     0.79484   0.87153   0.91091   0.00000  Uiso   1.00
O895   O     0.78192   0.87854   0.95484   0.00000  Uiso   1.00
O896   O     0.83356   0.85365   0.90635   0.00000  Uiso   1.00
C897   C     0.61671   0.83681   0.87244   0.00000  Uiso   1.00
H898   H     0.64183   0.82767   0.90227   0.00000  Uiso   1.00
H899   H     0.63205   0.85582   0.84241   0.00000  Uiso   1.00
H900   H     0.59349   0.86219   0.88821   0.00000  Uiso   1.00
C901   C     0.88792   0.65690   0.82656   0.00000  Uiso   1.00
H902   H     0.86387   0.65491   0.79427   0.00000  Uiso   1.00
H903   H     0.91326   0.62952   0.82016   0.00000  Uiso   1.00
H904   H     0.87300   0.64663   0.86057   0.00000  Uiso   1.00
C905   C     0.88330   0.83682   0.79426   0.00000  Uiso   1.00
H906   H     0.85821   0.82769   0.76440   0.00000  Uiso   1.00
H907   H     0.86795   0.85581   0.82427   0.00000  Uiso   1.00
H908   H     0.90653   0.86222   0.77853   0.00000  Uiso   1.00
C909   C     0.61207   0.65689   0.84013   0.00000  Uiso   1.00
H910   H     0.63618   0.65491   0.87238   0.00000  Uiso   1.00
H911   H     0.58674   0.62953   0.84663   0.00000  Uiso   1.00
H912   H     0.62692   0.64657   0.80609   0.00000  Uiso   1.00
loop_
_geom_bond_atom_site_label_1
_geom_bond_atom_site_label_2
_geom_bond_distance
_geom_bond_site_symmetry_2
_ccdc_geom_bond_type
O1     C5      1.309   .     A
O1     Cu17    1.976   .     S
O2     Cu18    1.976   .     S
O2     C6      1.305   .     A
O3     C6      1.309   .     A
O3     Cu17    1.976   .     S
O4     Cu18    1.976   .     S
O4     C5      1.305   .     A
C5     C37     1.491   .     S
C6     C38     1.491   .     S
O7     Cu17    1.935   .     S
O7     C15     1.294   .     A
O8     Cu18    1.935   .     S
O8     C16     1.294   .     A
O9     C16     1.294   .     A
O9     Cu17    1.935   .     S
O10    C15     1.294   .     A
O10    Cu18    1.935   .     S
C11    C41     1.410   .     A
C11    C21     1.401   .     A
C11    H45     1.078   .     S
C12    C22     1.407   .     A
C12    C42     1.407   .     A
C12    H46     1.079   .     S
C13    H47     1.078   .     S
C13    C21     1.401   .     A
C13    C43     1.410   .     A
C14    H48     1.079   .     S
C14    C44     1.407   .     A
C14    C22     1.407   .     A
C15    C23     1.411   .     S
C16    C24     1.411   .     S
Cu17   N20     2.027   .     S
Cu17   Cu18    2.698   .     S
Cu18   N19     2.027   .     S
N19    C43     1.385   .     A
N19    C41     1.385   .     A
N20    C44     1.375   .     A
N20    C42     1.375   .     A
C21    C174    1.522   1_545 S
C22    C173    1.522   .     S
C23    C632    1.192   1_554 S
C24    C327    1.192   .     S
C25    H29     1.083   .     S
C25    C39     1.399   .     A
C25    C33     1.403   .     A
C26    C34     1.388   .     A
C26    H30     1.081   .     S
C26    C40     1.397   .     A
C27    H31     1.083   .     S
C27    C35     1.403   .     A
C27    C40     1.399   .     A
C28    H32     1.081   .     S
C28    C39     1.397   .     A
C28    C36     1.388   .     A
C33    C61     1.511   .     S
C33    C37     1.428   .     A
C34    C65     1.511   .     S
C34    C38     1.424   .     A
C35    C38     1.428   .     A
C35    C69     1.511   .     S
C36    C37     1.424   .     A
C36    C73     1.511   .     S
C39    C116    1.483   1_455 S
C40    C115    1.483   .     S
C41    N49     1.432   .     S
C42    N52     1.429   .     S
C43    N55     1.432   .     S
C44    N58     1.429   .     S
N49    O51     1.298   .     A
N49    O50     1.299   .     A
N52    O54     1.299   .     A
N52    O53     1.301   .     A
N55    O56     1.299   .     A
N55    O57     1.298   .     A
N58    O60     1.299   .     A
N58    O59     1.301   .     A
C61    H63     1.106   .     S
C61    H62     1.111   .     S
C61    H64     1.111   .     S
C65    H67     1.112   .     S
C65    H68     1.099   .     S
C65    H66     1.110   .     S
C69    H71     1.106   .     S
C69    H72     1.111   .     S
C69    H70     1.111   .     S
C73    H74     1.110   .     S
C73    H75     1.112   .     S
C73    H76     1.099   .     S
O77    C81     1.309   .     A
O77    Cu93    1.976   .     S
O78    Cu94    1.976   .     S
O78    C82     1.305   .     A
O79    C82     1.309   .     A
O79    Cu93    1.976   .     S
O80    Cu94    1.976   .     S
O80    C81     1.305   .     A
C81    C113    1.491   .     S
C82    C114    1.491   .     S
O83    Cu93    1.935   .     S
O83    C91     1.294   .     A
O84    Cu94    1.935   .     S
O84    C92     1.294   .     A
O85    C92     1.294   .     A
O85    Cu93    1.935   .     S
O86    C91     1.294   .     A
O86    Cu94    1.935   .     S
C87    C117    1.410   .     A
C87    C97     1.401   .     A
C87    H121    1.078   .     S
C88    C98     1.407   .     A
C88    C118    1.407   .     A
C88    H122    1.079   .     S
C89    H123    1.078   .     S
C89    C97     1.401   .     A
C89    C119    1.410   .     A
C90    H124    1.079   .     S
C90    C120    1.407   .     A
C90    C98     1.407   .     A
C91    C99     1.411   .     S
C92    C100    1.411   .     S
Cu93   N96     2.027   .     S
Cu93   Cu94    2.698   .     S
Cu94   N95     2.027   .     S
N95    C119    1.385   .     A
N95    C117    1.385   .     A
N96    C120    1.375   .     A
N96    C118    1.375   .     A
C97    C250    1.522   1_545 S
C98    C249    1.522   .     S
C99    C708    1.192   1_554 S
C100   C403    1.192   .     S
C101   H105    1.083   .     S
C101   C115    1.399   .     A
C101   C109    1.403   .     A
C102   C110    1.388   .     A
C102   H106    1.081   .     S
C102   C116    1.397   .     A
C103   H107    1.083   .     S
C103   C111    1.403   .     A
C103   C116    1.399   .     A
C104   H108    1.081   .     S
C104   C115    1.397   .     A
C104   C112    1.388   .     A
C109   C137    1.511   .     S
C109   C113    1.428   .     A
C110   C141    1.511   .     S
C110   C114    1.424   .     A
C111   C114    1.428   .     A
C111   C145    1.511   .     S
C112   C113    1.424   .     A
C112   C149    1.511   .     S
C116   C39     1.483   1_655 S
C117   N125    1.432   .     S
C118   N128    1.429   .     S
C119   N131    1.432   .     S
C120   N134    1.429   .     S
N125   O127    1.298   .     A
N125   O126    1.299   .     A
N128   O130    1.299   .     A
N128   O129    1.301   .     A
N131   O132    1.299   .     A
N131   O133    1.298   .     A
N134   O136    1.299   .     A
N134   O135    1.301   .     A
C137   H139    1.106   .     S
C137   H138    1.111   .     S
C137   H140    1.111   .     S
C141   H143    1.112   .     S
C141   H144    1.099   .     S
C141   H142    1.110   .     S
C145   H147    1.106   .     S
C145   H148    1.111   .     S
C145   H146    1.111   .     S
C149   H150    1.110   .     S
C149   H151    1.112   .     S
C149   H152    1.099   .     S
O153   C157    1.309   .     A
O153   Cu169   1.976   .     S
O154   Cu170   1.976   .     S
O154   C158    1.305   .     A
O155   C158    1.309   .     A
O155   Cu169   1.976   .     S
O156   Cu170   1.976   .     S
O156   C157    1.305   .     A
C157   C189    1.491   .     S
C158   C190    1.491   .     S
O159   Cu169   1.935   .     S
O159   C167    1.294   .     A
O160   Cu170   1.935   .     S
O160   C168    1.294   .     A
O161   C168    1.294   .     A
O161   Cu169   1.935   .     S
O162   C167    1.294   .     A
O162   Cu170   1.935   .     S
C163   C193    1.410   .     A
C163   C173    1.401   .     A
C163   H197    1.078   .     S
C164   C174    1.407   .     A
C164   C194    1.407   .     A
C164   H198    1.079   .     S
C165   H199    1.078   .     S
C165   C173    1.401   .     A
C165   C195    1.410   .     A
C166   H200    1.079   .     S
C166   C196    1.407   .     A
C166   C174    1.407   .     A
C167   C175    1.411   .     S
C168   C176    1.411   .     S
Cu169  N172    2.027   .     S
Cu169  Cu170   2.698   .     S
Cu170  N171    2.027   .     S
N171   C195    1.385   .     A
N171   C193    1.385   .     A
N172   C196    1.375   .     A
N172   C194    1.375   .     A
C174   C21     1.522   1_565 S
C175   C784    1.192   1_554 S
C176   C479    1.192   .     S
C177   H181    1.083   .     S
C177   C191    1.399   .     A
C177   C185    1.403   .     A
C178   C186    1.388   .     A
C178   H182    1.081   .     S
C178   C192    1.397   .     A
C179   H183    1.083   .     S
C179   C187    1.403   .     A
C179   C192    1.399   .     A
C180   H184    1.081   .     S
C180   C191    1.397   .     A
C180   C188    1.388   .     A
C185   C213    1.511   .     S
C185   C189    1.428   .     A
C186   C217    1.511   .     S
C186   C190    1.424   .     A
C187   C190    1.428   .     A
C187   C221    1.511   .     S
C188   C189    1.424   .     A
C188   C225    1.511   .     S
C191   C268    1.483   1_455 S
C192   C267    1.483   .     S
C193   N201    1.432   .     S
C194   N204    1.429   .     S
C195   N207    1.432   .     S
C196   N210    1.429   .     S
N201   O203    1.298   .     A
N201   O202    1.299   .     A
N204   O206    1.299   .     A
N204   O205    1.301   .     A
N207   O208    1.299   .     A
N207   O209    1.298   .     A
N210   O212    1.299   .     A
N210   O211    1.301   .     A
C213   H215    1.106   .     S
C213   H214    1.111   .     S
C213   H216    1.111   .     S
C217   H219    1.112   .     S
C217   H220    1.099   .     S
C217   H218    1.110   .     S
C221   H223    1.106   .     S
C221   H224    1.111   .     S
C221   H222    1.111   .     S
C225   H226    1.110   .     S
C225   H227    1.112   .     S
C225   H228    1.099   .     S
O229   C233    1.309   .     A
O229   Cu245   1.976   .     S
O230   Cu246   1.976   .     S
O230   C234    1.305   .     A
O231   C234    1.309   .     A
O231   Cu245   1.976   .     S
O232   Cu246   1.976   .     S
O232   C233    1.305   .     A
C233   C265    1.491   .     S
C234   C266    1.491   .     S
O235   Cu245   1.935   .     S
O235   C243    1.294   .     A
O236   Cu246   1.935   .     S
O236   C244    1.294   .     A
O237   C244    1.294   .     A
O237   Cu245   1.935   .     S
O238   C243    1.294   .     A
O238   Cu246   1.935   .     S
C239   C269    1.410   .     A
C239   C249    1.401   .     A
C239   H273    1.078   .     S
C240   C250    1.407   .     A
C240   C270    1.407   .     A
C240   H274    1.079   .     S
C241   H275    1.078   .     S
C241   C249    1.401   .     A
C241   C271    1.410   .     A
C242   H276    1.079   .     S
C242   C272    1.407   .     A
C242   C250    1.407   .     A
C243   C251    1.411   .     S
C244   C252    1.411   .     S
Cu245  N248    2.027   .     S
Cu245  Cu246   2.698   .     S
Cu246  N247    2.027   .     S
N247   C271    1.385   .     A
N247   C269    1.385   .     A
N248   C272    1.375   .     A
N248   C270    1.375   .     A
C250   C97     1.522   1_565 S
C251   C860    1.192   1_554 S
C252   C555    1.192   .     S
C253   H257    1.083   .     S
C253   C267    1.399   .     A
C253   C261    1.403   .     A
C254   C262    1.388   .     A
C254   H258    1.081   .     S
C254   C268    1.397   .     A
C255   H259    1.083   .     S
C255   C263    1.403   .     A
C255   C268    1.399   .     A
C256   H260    1.081   .     S
C256   C267    1.397   .     A
C256   C264    1.388   .     A
C261   C289    1.511   .     S
C261   C265    1.428   .     A
C262   C293    1.511   .     S
C262   C266    1.424   .     A
C263   C266    1.428   .     A
C263   C297    1.511   .     S
C264   C265    1.424   .     A
C264   C301    1.511   .     S
C268   C191    1.483   1_655 S
C269   N277    1.432   .     S
C270   N280    1.429   .     S
C271   N283    1.432   .     S
C272   N286    1.429   .     S
N277   O279    1.298   .     A
N277   O278    1.299   .     A
N280   O282    1.299   .     A
N280   O281    1.301   .     A
N283   O284    1.299   .     A
N283   O285    1.298   .     A
N286   O288    1.299   .     A
N286   O287    1.301   .     A
C289   H291    1.106   .     S
C289   H290    1.111   .     S
C289   H292    1.111   .     S
C293   H295    1.112   .     S
C293   H296    1.099   .     S
C293   H294    1.110   .     S
C297   H299    1.106   .     S
C297   H300    1.111   .     S
C297   H298    1.111   .     S
C301   H302    1.110   .     S
C301   H303    1.112   .     S
C301   H304    1.099   .     S
O305   C309    1.309   .     A
O305   Cu321   1.976   .     S
O306   Cu322   1.976   .     S
O306   C310    1.305   .     A
O307   C310    1.309   .     A
O307   Cu321   1.976   .     S
O308   Cu322   1.976   .     S
O308   C309    1.305   .     A
C309   C341    1.491   .     S
C310   C342    1.491   .     S
O311   Cu321   1.935   .     S
O311   C319    1.294   .     A
O312   Cu322   1.935   .     S
O312   C320    1.294   .     A
O313   C320    1.294   .     A
O313   Cu321   1.935   .     S
O314   C319    1.294   .     A
O314   Cu322   1.935   .     S
C315   C345    1.410   .     A
C315   C325    1.401   .     A
C315   H349    1.078   .     S
C316   C326    1.407   .     A
C316   C346    1.407   .     A
C316   H350    1.079   .     S
C317   H351    1.078   .     S
C317   C325    1.401   .     A
C317   C347    1.410   .     A
C318   H352    1.079   .     S
C318   C348    1.407   .     A
C318   C326    1.407   .     A
C319   C327    1.411   .     S
C320   C328    1.411   .     S
Cu321  N324    2.027   .     S
Cu321  Cu322   2.698   .     S
Cu322  N323    2.027   .     S
N323   C347    1.385   .     A
N323   C345    1.385   .     A
N324   C348    1.375   .     A
N324   C346    1.375   .     A
C325   C478    1.522   1_545 S
C326   C477    1.522   .     S
C328   C631    1.192   .     S
C329   H333    1.083   .     S
C329   C343    1.399   .     A
C329   C337    1.403   .     A
C330   C338    1.388   .     A
C330   H334    1.081   .     S
C330   C344    1.397   .     A
C331   H335    1.083   .     S
C331   C339    1.403   .     A
C331   C344    1.399   .     A
C332   H336    1.081   .     S
C332   C343    1.397   .     A
C332   C340    1.388   .     A
C337   C365    1.511   .     S
C337   C341    1.428   .     A
C338   C369    1.511   .     S
C338   C342    1.424   .     A
C339   C342    1.428   .     A
C339   C373    1.511   .     S
C340   C341    1.424   .     A
C340   C377    1.511   .     S
C343   C420    1.483   1_455 S
C344   C419    1.483   .     S
C345   N353    1.432   .     S
C346   N356    1.429   .     S
C347   N359    1.432   .     S
C348   N362    1.429   .     S
N353   O355    1.298   .     A
N353   O354    1.299   .     A
N356   O358    1.299   .     A
N356   O357    1.301   .     A
N359   O360    1.299   .     A
N359   O361    1.298   .     A
N362   O364    1.299   .     A
N362   O363    1.301   .     A
C365   H367    1.106   .     S
C365   H366    1.111   .     S
C365   H368    1.111   .     S
C369   H371    1.112   .     S
C369   H372    1.099   .     S
C369   H370    1.110   .     S
C373   H375    1.106   .     S
C373   H376    1.111   .     S
C373   H374    1.111   .     S
C377   H378    1.110   .     S
C377   H379    1.112   .     S
C377   H380    1.099   .     S
O381   C385    1.309   .     A
O381   Cu397   1.976   .     S
O382   Cu398   1.976   .     S
O382   C386    1.305   .     A
O383   C386    1.309   .     A
O383   Cu397   1.976   .     S
O384   Cu398   1.976   .     S
O384   C385    1.305   .     A
C385   C417    1.491   .     S
C386   C418    1.491   .     S
O387   Cu397   1.935   .     S
O387   C395    1.294   .     A
O388   Cu398   1.935   .     S
O388   C396    1.294   .     A
O389   C396    1.294   .     A
O389   Cu397   1.935   .     S
O390   C395    1.294   .     A
O390   Cu398   1.935   .     S
C391   C421    1.410   .     A
C391   C401    1.401   .     A
C391   H425    1.078   .     S
C392   C402    1.407   .     A
C392   C422    1.407   .     A
C392   H426    1.079   .     S
C393   H427    1.078   .     S
C393   C401    1.401   .     A
C393   C423    1.410   .     A
C394   H428    1.079   .     S
C394   C424    1.407   .     A
C394   C402    1.407   .     A
C395   C403    1.411   .     S
C396   C404    1.411   .     S
Cu397  N400    2.027   .     S
Cu397  Cu398   2.698   .     S
Cu398  N399    2.027   .     S
N399   C423    1.385   .     A
N399   C421    1.385   .     A
N400   C424    1.375   .     A
N400   C422    1.375   .     A
C401   C554    1.522   1_545 S
C402   C553    1.522   .     S
C404   C707    1.192   .     S
C405   H409    1.083   .     S
C405   C419    1.399   .     A
C405   C413    1.403   .     A
C406   C414    1.388   .     A
C406   H410    1.081   .     S
C406   C420    1.397   .     A
C407   H411    1.083   .     S
C407   C415    1.403   .     A
C407   C420    1.399   .     A
C408   H412    1.081   .     S
C408   C419    1.397   .     A
C408   C416    1.388   .     A
C413   C441    1.511   .     S
C413   C417    1.428   .     A
C414   C445    1.511   .     S
C414   C418    1.424   .     A
C415   C418    1.428   .     A
C415   C449    1.511   .     S
C416   C417    1.424   .     A
C416   C453    1.511   .     S
C420   C343    1.483   1_655 S
C421   N429    1.432   .     S
C422   N432    1.429   .     S
C423   N435    1.432   .     S
C424   N438    1.429   .     S
N429   O431    1.298   .     A
N429   O430    1.299   .     A
N432   O434    1.299   .     A
N432   O433    1.301   .     A
N435   O436    1.299   .     A
N435   O437    1.298   .     A
N438   O440    1.299   .     A
N438   O439    1.301   .     A
C441   H443    1.106   .     S
C441   H442    1.111   .     S
C441   H444    1.111   .     S
C445   H447    1.112   .     S
C445   H448    1.099   .     S
C445   H446    1.110   .     S
C449   H451    1.106   .     S
C449   H452    1.111   .     S
C449   H450    1.111   .     S
C453   H454    1.110   .     S
C453   H455    1.112   .     S
C453   H456    1.099   .     S
O457   C461    1.309   .     A
O457   Cu473   1.976   .     S
O458   Cu474   1.976   .     S
O458   C462    1.305   .     A
O459   C462    1.309   .     A
O459   Cu473   1.976   .     S
O460   Cu474   1.976   .     S
O460   C461    1.305   .     A
C461   C493    1.491   .     S
C462   C494    1.491   .     S
O463   Cu473   1.935   .     S
O463   C471    1.294   .     A
O464   Cu474   1.935   .     S
O464   C472    1.294   .     A
O465   C472    1.294   .     A
O465   Cu473   1.935   .     S
O466   C471    1.294   .     A
O466   Cu474   1.935   .     S
C467   C497    1.410   .     A
C467   C477    1.401   .     A
C467   H501    1.078   .     S
C468   C478    1.407   .     A
C468   C498    1.407   .     A
C468   H502    1.079   .     S
C469   H503    1.078   .     S
C469   C477    1.401   .     A
C469   C499    1.410   .     A
C470   H504    1.079   .     S
C470   C500    1.407   .     A
C470   C478    1.407   .     A
C471   C479    1.411   .     S
C472   C480    1.411   .     S
Cu473  N476    2.027   .     S
Cu473  Cu474   2.698   .     S
Cu474  N475    2.027   .     S
N475   C499    1.385   .     A
N475   C497    1.385   .     A
N476   C500    1.375   .     A
N476   C498    1.375   .     A
C478   C325    1.522   1_565 S
C480   C783    1.192   .     S
C481   H485    1.083   .     S
C481   C495    1.399   .     A
C481   C489    1.403   .     A
C482   C490    1.388   .     A
C482   H486    1.081   .     S
C482   C496    1.397   .     A
C483   H487    1.083   .     S
C483   C491    1.403   .     A
C483   C496    1.399   .     A
C484   H488    1.081   .     S
C484   C495    1.397   .     A
C484   C492    1.388   .     A
C489   C517    1.511   .     S
C489   C493    1.428   .     A
C490   C521    1.511   .     S
C490   C494    1.424   .     A
C491   C494    1.428   .     A
C491   C525    1.511   .     S
C492   C493    1.424   .     A
C492   C529    1.511   .     S
C495   C572    1.483   1_455 S
C496   C571    1.483   .     S
C497   N505    1.432   .     S
C498   N508    1.429   .     S
C499   N511    1.432   .     S
C500   N514    1.429   .     S
N505   O507    1.298   .     A
N505   O506    1.299   .     A
N508   O510    1.299   .     A
N508   O509    1.301   .     A
N511   O512    1.299   .     A
N511   O513    1.298   .     A
N514   O516    1.299   .     A
N514   O515    1.301   .     A
C517   H519    1.106   .     S
C517   H518    1.111   .     S
C517   H520    1.111   .     S
C521   H523    1.112   .     S
C521   H524    1.099   .     S
C521   H522    1.110   .     S
C525   H527    1.106   .     S
C525   H528    1.111   .     S
C525   H526    1.111   .     S
C529   H530    1.110   .     S
C529   H531    1.112   .     S
C529   H532    1.099   .     S
O533   C537    1.309   .     A
O533   Cu549   1.976   .     S
O534   Cu550   1.976   .     S
O534   C538    1.305   .     A
O535   C538    1.309   .     A
O535   Cu549   1.976   .     S
O536   Cu550   1.976   .     S
O536   C537    1.305   .     A
C537   C569    1.491   .     S
C538   C570    1.491   .     S
O539   Cu549   1.935   .     S
O539   C547    1.294   .     A
O540   Cu550   1.935   .     S
O540   C548    1.294   .     A
O541   C548    1.294   .     A
O541   Cu549   1.935   .     S
O542   C547    1.294   .     A
O542   Cu550   1.935   .     S
C543   C573    1.410   .     A
C543   C553    1.401   .     A
C543   H577    1.078   .     S
C544   C554    1.407   .     A
C544   C574    1.407   .     A
C544   H578    1.079   .     S
C545   H579    1.078   .     S
C545   C553    1.401   .     A
C545   C575    1.410   .     A
C546   H580    1.079   .     S
C546   C576    1.407   .     A
C546   C554    1.407   .     A
C547   C555    1.411   .     S
C548   C556    1.411   .     S
Cu549  N552    2.027   .     S
Cu549  Cu550   2.698   .     S
Cu550  N551    2.027   .     S
N551   C575    1.385   .     A
N551   C573    1.385   .     A
N552   C576    1.375   .     A
N552   C574    1.375   .     A
C554   C401    1.522   1_565 S
C556   C859    1.192   .     S
C557   H561    1.083   .     S
C557   C571    1.399   .     A
C557   C565    1.403   .     A
C558   C566    1.388   .     A
C558   H562    1.081   .     S
C558   C572    1.397   .     A
C559   H563    1.083   .     S
C559   C567    1.403   .     A
C559   C572    1.399   .     A
C560   H564    1.081   .     S
C560   C571    1.397   .     A
C560   C568    1.388   .     A
C565   C593    1.511   .     S
C565   C569    1.428   .     A
C566   C597    1.511   .     S
C566   C570    1.424   .     A
C567   C570    1.428   .     A
C567   C601    1.511   .     S
C568   C569    1.424   .     A
C568   C605    1.511   .     S
C572   C495    1.483   1_655 S
C573   N581    1.432   .     S
C574   N584    1.429   .     S
C575   N587    1.432   .     S
C576   N590    1.429   .     S
N581   O583    1.298   .     A
N581   O582    1.299   .     A
N584   O586    1.299   .     A
N584   O585    1.301   .     A
N587   O588    1.299   .     A
N587   O589    1.298   .     A
N590   O592    1.299   .     A
N590   O591    1.301   .     A
C593   H595    1.106   .     S
C593   H594    1.111   .     S
C593   H596    1.111   .     S
C597   H599    1.112   .     S
C597   H600    1.099   .     S
C597   H598    1.110   .     S
C601   H603    1.106   .     S
C601   H604    1.111   .     S
C601   H602    1.111   .     S
C605   H606    1.110   .     S
C605   H607    1.112   .     S
C605   H608    1.099   .     S
O609   C613    1.309   .     A
O609   Cu625   1.976   .     S
O610   Cu626   1.976   .     S
O610   C614    1.305   .     A
O611   C614    1.309   .     A
O611   Cu625   1.976   .     S
O612   Cu626   1.976   .     S
O612   C613    1.305   .     A
C613   C645    1.491   .     S
C614   C646    1.491   .     S
O615   Cu625   1.935   .     S
O615   C623    1.294   .     A
O616   Cu626   1.935   .     S
O616   C624    1.294   .     A
O617   C624    1.294   .     A
O617   Cu625   1.935   .     S
O618   C623    1.294   .     A
O618   Cu626   1.935   .     S
C619   C649    1.410   .     A
C619   C629    1.401   .     A
C619   H653    1.078   .     S
C620   C630    1.407   .     A
C620   C650    1.407   .     A
C620   H654    1.079   .     S
C621   H655    1.078   .     S
C621   C629    1.401   .     A
C621   C651    1.410   .     A
C622   H656    1.079   .     S
C622   C652    1.407   .     A
C622   C630    1.407   .     A
C623   C631    1.411   .     S
C624   C632    1.411   .     S
Cu625  N628    2.027   .     S
Cu625  Cu626   2.698   .     S
Cu626  N627    2.027   .     S
N627   C651    1.385   .     A
N627   C649    1.385   .     A
N628   C652    1.375   .     A
N628   C650    1.375   .     A
C629   C782    1.522   1_545 S
C630   C781    1.522   .     S
C632   C23     1.192   1_556 S
C633   H637    1.083   .     S
C633   C647    1.399   .     A
C633   C641    1.403   .     A
C634   C642    1.388   .     A
C634   H638    1.081   .     S
C634   C648    1.397   .     A
C635   H639    1.083   .     S
C635   C643    1.403   .     A
C635   C648    1.399   .     A
C636   H640    1.081   .     S
C636   C647    1.397   .     A
C636   C644    1.388   .     A
C641   C669    1.511   .     S
C641   C645    1.428   .     A
C642   C673    1.511   .     S
C642   C646    1.424   .     A
C643   C646    1.428   .     A
C643   C677    1.511   .     S
C644   C645    1.424   .     A
C644   C681    1.511   .     S
C647   C724    1.483   1_455 S
C648   C723    1.483   .     S
C649   N657    1.432   .     S
C650   N660    1.429   .     S
C651   N663    1.432   .     S
C652   N666    1.429   .     S
N657   O659    1.298   .     A
N657   O658    1.299   .     A
N660   O662    1.299   .     A
N660   O661    1.301   .     A
N663   O664    1.299   .     A
N663   O665    1.298   .     A
N666   O668    1.299   .     A
N666   O667    1.301   .     A
C669   H671    1.106   .     S
C669   H670    1.111   .     S
C669   H672    1.111   .     S
C673   H675    1.112   .     S
C673   H676    1.099   .     S
C673   H674    1.110   .     S
C677   H679    1.106   .     S
C677   H680    1.111   .     S
C677   H678    1.111   .     S
C681   H682    1.110   .     S
C681   H683    1.112   .     S
C681   H684    1.099   .     S
O685   C689    1.309   .     A
O685   Cu701   1.976   .     S
O686   Cu702   1.976   .     S
O686   C690    1.305   .     A
O687   C690    1.309   .     A
O687   Cu701   1.976   .     S
O688   Cu702   1.976   .     S
O688   C689    1.305   .     A
C689   C721    1.491   .     S
C690   C722    1.491   .     S
O691   Cu701   1.935   .     S
O691   C699    1.294   .     A
O692   Cu702   1.935   .     S
O692   C700    1.294   .     A
O693   C700    1.294   .     A
O693   Cu701   1.935   .     S
O694   C699    1.294   .     A
O694   Cu702   1.935   .     S
C695   C725    1.410   .     A
C695   C705    1.401   .     A
C695   H729    1.078   .     S
C696   C706    1.407   .     A
C696   C726    1.407   .     A
C696   H730    1.079   .     S
C697   H731    1.078   .     S
C697   C705    1.401   .     A
C697   C727    1.410   .     A
C698   H732    1.079   .     S
C698   C728    1.407   .     A
C698   C706    1.407   .     A
C699   C707    1.411   .     S
C700   C708    1.411   .     S
Cu701  N704    2.027   .     S
Cu701  Cu702   2.698   .     S
Cu702  N703    2.027   .     S
N703   C727    1.385   .     A
N703   C725    1.385   .     A
N704   C728    1.375   .     A
N704   C726    1.375   .     A
C705   C858    1.522   1_545 S
C706   C857    1.522   .     S
C708   C99     1.192   1_556 S
C709   H713    1.083   .     S
C709   C723    1.399   .     A
C709   C717    1.403   .     A
C710   C718    1.388   .     A
C710   H714    1.081   .     S
C710   C724    1.397   .     A
C711   H715    1.083   .     S
C711   C719    1.403   .     A
C711   C724    1.399   .     A
C712   H716    1.081   .     S
C712   C723    1.397   .     A
C712   C720    1.388   .     A
C717   C745    1.511   .     S
C717   C721    1.428   .     A
C718   C749    1.511   .     S
C718   C722    1.424   .     A
C719   C722    1.428   .     A
C719   C753    1.511   .     S
C720   C721    1.424   .     A
C720   C757    1.511   .     S
C724   C647    1.483   1_655 S
C725   N733    1.432   .     S
C726   N736    1.429   .     S
C727   N739    1.432   .     S
C728   N742    1.429   .     S
N733   O735    1.298   .     A
N733   O734    1.299   .     A
N736   O738    1.299   .     A
N736   O737    1.301   .     A
N739   O740    1.299   .     A
N739   O741    1.298   .     A
N742   O744    1.299   .     A
N742   O743    1.301   .     A
C745   H747    1.106   .     S
C745   H746    1.111   .     S
C745   H748    1.111   .     S
C749   H751    1.112   .     S
C749   H752    1.099   .     S
C749   H750    1.110   .     S
C753   H755    1.106   .     S
C753   H756    1.111   .     S
C753   H754    1.111   .     S
C757   H758    1.110   .     S
C757   H759    1.112   .     S
C757   H760    1.099   .     S
O761   C765    1.309   .     A
O761   Cu777   1.976   .     S
O762   Cu778   1.976   .     S
O762   C766    1.305   .     A
O763   C766    1.309   .     A
O763   Cu777   1.976   .     S
O764   Cu778   1.976   .     S
O764   C765    1.305   .     A
C765   C797    1.491   .     S
C766   C798    1.491   .     S
O767   Cu777   1.935   .     S
O767   C775    1.294   .     A
O768   Cu778   1.935   .     S
O768   C776    1.294   .     A
O769   C776    1.294   .     A
O769   Cu777   1.935   .     S
O770   C775    1.294   .     A
O770   Cu778   1.935   .     S
C771   C801    1.410   .     A
C771   C781    1.401   .     A
C771   H805    1.078   .     S
C772   C782    1.407   .     A
C772   C802    1.407   .     A
C772   H806    1.079   .     S
C773   H807    1.078   .     S
C773   C781    1.401   .     A
C773   C803    1.410   .     A
C774   H808    1.079   .     S
C774   C804    1.407   .     A
C774   C782    1.407   .     A
C775   C783    1.411   .     S
C776   C784    1.411   .     S
Cu777  N780    2.027   .     S
Cu777  Cu778   2.698   .     S
Cu778  N779    2.027   .     S
N779   C803    1.385   .     A
N779   C801    1.385   .     A
N780   C804    1.375   .     A
N780   C802    1.375   .     A
C782   C629    1.522   1_565 S
C784   C175    1.192   1_556 S
C785   H789    1.083   .     S
C785   C799    1.399   .     A
C785   C793    1.403   .     A
C786   C794    1.388   .     A
C786   H790    1.081   .     S
C786   C800    1.397   .     A
C787   H791    1.083   .     S
C787   C795    1.403   .     A
C787   C800    1.399   .     A
C788   H792    1.081   .     S
C788   C799    1.397   .     A
C788   C796    1.388   .     A
C793   C821    1.511   .     S
C793   C797    1.428   .     A
C794   C825    1.511   .     S
C794   C798    1.424   .     A
C795   C798    1.428   .     A
C795   C829    1.511   .     S
C796   C797    1.424   .     A
C796   C833    1.511   .     S
C799   C876    1.483   1_455 S
C800   C875    1.483   .     S
C801   N809    1.432   .     S
C802   N812    1.429   .     S
C803   N815    1.432   .     S
C804   N818    1.429   .     S
N809   O811    1.298   .     A
N809   O810    1.299   .     A
N812   O814    1.299   .     A
N812   O813    1.301   .     A
N815   O816    1.299   .     A
N815   O817    1.298   .     A
N818   O820    1.299   .     A
N818   O819    1.301   .     A
C821   H823    1.106   .     S
C821   H822    1.111   .     S
C821   H824    1.111   .     S
C825   H827    1.112   .     S
C825   H828    1.099   .     S
C825   H826    1.110   .     S
C829   H831    1.106   .     S
C829   H832    1.111   .     S
C829   H830    1.111   .     S
C833   H834    1.110   .     S
C833   H835    1.112   .     S
C833   H836    1.099   .     S
O837   C841    1.309   .     A
O837   Cu853   1.976   .     S
O838   Cu854   1.976   .     S
O838   C842    1.305   .     A
O839   C842    1.309   .     A
O839   Cu853   1.976   .     S
O840   Cu854   1.976   .     S
O840   C841    1.305   .     A
C841   C873    1.491   .     S
C842   C874    1.491   .     S
O843   Cu853   1.935   .     S
O843   C851    1.294   .     A
O844   Cu854   1.935   .     S
O844   C852    1.294   .     A
O845   C852    1.294   .     A
O845   Cu853   1.935   .     S
O846   C851    1.294   .     A
O846   Cu854   1.935   .     S
C847   C877    1.410   .     A
C847   C857    1.401   .     A
C847   H881    1.078   .     S
C848   C858    1.407   .     A
C848   C878    1.407   .     A
C848   H882    1.079   .     S
C849   H883    1.078   .     S
C849   C857    1.401   .     A
C849   C879    1.410   .     A
C850   H884    1.079   .     S
C850   C880    1.407   .     A
C850   C858    1.407   .     A
C851   C859    1.411   .     S
C852   C860    1.411   .     S
Cu853  N856    2.027   .     S
Cu853  Cu854   2.698   .     S
Cu854  N855    2.027   .     S
N855   C879    1.385   .     A
N855   C877    1.385   .     A
N856   C880    1.375   .     A
N856   C878    1.375   .     A
C858   C705    1.522   1_565 S
C860   C251    1.192   1_556 S
C861   H865    1.083   .     S
C861   C875    1.399   .     A
C861   C869    1.403   .     A
C862   C870    1.388   .     A
C862   H866    1.081   .     S
C862   C876    1.397   .     A
C863   H867    1.083   .     S
C863   C871    1.403   .     A
C863   C876    1.399   .     A
C864   H868    1.081   .     S
C864   C875    1.397   .     A
C864   C872    1.388   .     A
C869   C897    1.511   .     S
C869   C873    1.428   .     A
C870   C901    1.511   .     S
C870   C874    1.424   .     A
C871   C874    1.428   .     A
C871   C905    1.511   .     S
C872   C873    1.424   .     A
C872   C909    1.511   .     S
C876   C799    1.483   1_655 S
C877   N885    1.432   .     S
C878   N888    1.429   .     S
C879   N891    1.432   .     S
C880   N894    1.429   .     S
N885   O887    1.298   .     A
N885   O886    1.299   .     A
N888   O890    1.299   .     A
N888   O889    1.301   .     A
N891   O892    1.299   .     A
N891   O893    1.298   .     A
N894   O896    1.299   .     A
N894   O895    1.301   .     A
C897   H899    1.106   .     S
C897   H898    1.111   .     S
C897   H900    1.111   .     S
C901   H903    1.112   .     S
C901   H904    1.099   .     S
C901   H902    1.110   .     S
C905   H907    1.106   .     S
C905   H908    1.111   .     S
C905   H906    1.111   .     S
C909   H910    1.110   .     S
C909   H911    1.112   .     S
C909   H912    1.099   .     S
