data_str_m2_o1_o5_pcu_sym.17
_audit_creation_date              2020-01-03
_audit_creation_method            'Materials Studio'
_symmetry_space_group_name_H-M    'P1'
_symmetry_Int_Tables_number       1
_symmetry_cell_setting            triclinic
loop_
_symmetry_equiv_pos_as_xyz
  x,y,z
_cell_length_a                    32.4916
_cell_length_b                    28.8139
_cell_length_c                    27.1661
_cell_angle_alpha                 89.8857
_cell_angle_beta                  91.9958
_cell_angle_gamma                 90.1033
loop_
_atom_site_label
_atom_site_type_symbol
_atom_site_fract_x
_atom_site_fract_y
_atom_site_fract_z
_atom_site_U_iso_or_equiv
_atom_site_adp_type
_atom_site_occupancy
C1     C     0.08744   0.16664   0.16577   0.00000  Uiso   1.00
C2     C     0.02137   0.20883   0.16304   0.00000  Uiso   1.00
C3     C     0.29050   0.16674   0.16272   0.00000  Uiso   1.00
C4     C     0.04277   0.16666   0.16371   0.00000  Uiso   1.00
C5     C     0.14032   0.02497   0.13539   0.00000  Uiso   1.00
C6     C     0.18931   0.30850   0.20166   0.00000  Uiso   1.00
C7     C     0.18984   0.02490   0.20116   0.00000  Uiso   1.00
C8     C     0.14155   0.30845   0.13402   0.00000  Uiso   1.00
C9     C     0.10864   0.05764   0.06572   0.00000  Uiso   1.00
C10    C     0.24650   0.27760   0.24250   0.00000  Uiso   1.00
C11    C     0.24874   0.05383   0.24004   0.00000  Uiso   1.00
C12    C     0.24587   0.16670   0.16526   0.00000  Uiso   1.00
C13    C     0.12207   0.28149   0.05678   0.00000  Uiso   1.00
C14    C     0.16691   0.16669   0.07364   0.00000  Uiso   1.00
C15    C     0.16687   0.16664   0.25971   0.00000  Uiso   1.00
C16    C     0.16705   0.16666   0.02189   0.00000  Uiso   1.00
C17    C     0.16701   0.16660   0.31146   0.00000  Uiso   1.00
C18    C     0.02118   0.12457   0.16167   0.00000  Uiso   1.00
C19    C     0.31211   0.20882   0.16221   0.00000  Uiso   1.00
C20    C     0.31191   0.12467   0.16076   0.00000  Uiso   1.00
Cu21   Cu    0.16667   0.21355   0.16667   0.00000  Uiso   1.00
Cu22   Cu    0.16667   0.11978   0.16667   0.00000  Uiso   1.00
H23    H     0.03706   0.09158   0.16095   0.00000  Uiso   1.00
H24    H     0.26162   0.29283   0.27588   0.00000  Uiso   1.00
H25    H     0.25630   0.09124   0.24297   0.00000  Uiso   1.00
H26    H     0.26263   0.03957   0.20636   0.00000  Uiso   1.00
H27    H     0.26369   0.03750   0.27295   0.00000  Uiso   1.00
H28    H     0.11497   0.24598   0.04342   0.00000  Uiso   1.00
H29    H     0.15500   0.28922   0.04959   0.00000  Uiso   1.00
H30    H     0.10178   0.30380   0.03365   0.00000  Uiso   1.00
H31    H     0.29628   0.24172   0.16118   0.00000  Uiso   1.00
H32    H     0.29591   0.09183   0.15854   0.00000  Uiso   1.00
H33    H     0.03742   0.24182   0.16340   0.00000  Uiso   1.00
H34    H     0.13840   0.04761   0.04943   0.00000  Uiso   1.00
H35    H     0.10356   0.09529   0.06001   0.00000  Uiso   1.00
H36    H     0.08253   0.04114   0.04515   0.00000  Uiso   1.00
H37    H     0.26161   0.29148   0.20939   0.00000  Uiso   1.00
H38    H     0.25229   0.23980   0.24533   0.00000  Uiso   1.00
N39    N     0.16667   0.28402   0.16667   0.00000  Uiso   1.00
N40    N     0.16667   0.04931   0.16667   0.00000  Uiso   1.00
O41    O     0.10655   0.20625   0.16666   0.00000  Uiso   1.00
O42    O     0.20372   0.28565   0.24366   0.00000  Uiso   1.00
O43    O     0.20567   0.04819   0.24212   0.00000  Uiso   1.00
O44    O     0.11159   0.28449   0.10682   0.00000  Uiso   1.00
O45    O     0.22679   0.12709   0.16667   0.00000  Uiso   1.00
O46    O     0.22679   0.20625   0.16667   0.00000  Uiso   1.00
O47    O     0.10655   0.12709   0.16666   0.00000  Uiso   1.00
O48    O     0.16667   0.20625   0.09613   0.00000  Uiso   1.00
O49    O     0.16667   0.12708   0.23720   0.00000  Uiso   1.00
O50    O     0.16667   0.20625   0.23720   0.00000  Uiso   1.00
O51    O     0.16667   0.12708   0.09613   0.00000  Uiso   1.00
O52    O     0.10561   0.04743   0.11628   0.00000  Uiso   1.00
C53    C     0.42077   0.16664   0.16577   0.00000  Uiso   1.00
C54    C     0.35470   0.20883   0.16304   0.00000  Uiso   1.00
C55    C     0.62384   0.16674   0.16272   0.00000  Uiso   1.00
C56    C     0.37611   0.16666   0.16371   0.00000  Uiso   1.00
C57    C     0.47366   0.02497   0.13539   0.00000  Uiso   1.00
C58    C     0.52264   0.30850   0.20166   0.00000  Uiso   1.00
C59    C     0.52317   0.02490   0.20116   0.00000  Uiso   1.00
C60    C     0.47488   0.30845   0.13402   0.00000  Uiso   1.00
C61    C     0.44198   0.05764   0.06572   0.00000  Uiso   1.00
C62    C     0.57984   0.27760   0.24250   0.00000  Uiso   1.00
C63    C     0.58207   0.05383   0.24004   0.00000  Uiso   1.00
C64    C     0.57920   0.16670   0.16526   0.00000  Uiso   1.00
C65    C     0.45540   0.28149   0.05678   0.00000  Uiso   1.00
C66    C     0.50024   0.16669   0.07364   0.00000  Uiso   1.00
C67    C     0.50020   0.16664   0.25971   0.00000  Uiso   1.00
C68    C     0.50038   0.16666   0.02189   0.00000  Uiso   1.00
C69    C     0.50034   0.16660   0.31146   0.00000  Uiso   1.00
C70    C     0.35451   0.12457   0.16167   0.00000  Uiso   1.00
C71    C     0.64544   0.20882   0.16221   0.00000  Uiso   1.00
C72    C     0.64525   0.12467   0.16076   0.00000  Uiso   1.00
Cu73   Cu    0.50000   0.21355   0.16667   0.00000  Uiso   1.00
Cu74   Cu    0.50000   0.11978   0.16667   0.00000  Uiso   1.00
H75    H     0.37039   0.09158   0.16095   0.00000  Uiso   1.00
H76    H     0.59495   0.29283   0.27588   0.00000  Uiso   1.00
H77    H     0.58963   0.09124   0.24297   0.00000  Uiso   1.00
H78    H     0.59596   0.03957   0.20636   0.00000  Uiso   1.00
H79    H     0.59702   0.03750   0.27295   0.00000  Uiso   1.00
H80    H     0.44830   0.24598   0.04342   0.00000  Uiso   1.00
H81    H     0.48834   0.28922   0.04959   0.00000  Uiso   1.00
H82    H     0.43512   0.30380   0.03365   0.00000  Uiso   1.00
H83    H     0.62961   0.24172   0.16118   0.00000  Uiso   1.00
H84    H     0.62924   0.09183   0.15854   0.00000  Uiso   1.00
H85    H     0.37075   0.24182   0.16340   0.00000  Uiso   1.00
H86    H     0.47173   0.04761   0.04943   0.00000  Uiso   1.00
H87    H     0.43689   0.09529   0.06001   0.00000  Uiso   1.00
H88    H     0.41586   0.04114   0.04515   0.00000  Uiso   1.00
H89    H     0.59494   0.29148   0.20939   0.00000  Uiso   1.00
H90    H     0.58562   0.23980   0.24533   0.00000  Uiso   1.00
N91    N     0.50000   0.28402   0.16667   0.00000  Uiso   1.00
N92    N     0.50000   0.04931   0.16667   0.00000  Uiso   1.00
O93    O     0.43988   0.20625   0.16666   0.00000  Uiso   1.00
O94    O     0.53705   0.28565   0.24366   0.00000  Uiso   1.00
O95    O     0.53900   0.04819   0.24212   0.00000  Uiso   1.00
O96    O     0.44493   0.28449   0.10682   0.00000  Uiso   1.00
O97    O     0.56012   0.12709   0.16667   0.00000  Uiso   1.00
O98    O     0.56012   0.20625   0.16667   0.00000  Uiso   1.00
O99    O     0.43988   0.12709   0.16666   0.00000  Uiso   1.00
O100   O     0.50000   0.20625   0.09613   0.00000  Uiso   1.00
O101   O     0.50000   0.12708   0.23720   0.00000  Uiso   1.00
O102   O     0.50000   0.20625   0.23720   0.00000  Uiso   1.00
O103   O     0.50000   0.12708   0.09613   0.00000  Uiso   1.00
O104   O     0.43894   0.04743   0.11628   0.00000  Uiso   1.00
C105   C     0.75410   0.16664   0.16577   0.00000  Uiso   1.00
C106   C     0.68804   0.20883   0.16304   0.00000  Uiso   1.00
C107   C     0.95717   0.16674   0.16272   0.00000  Uiso   1.00
C108   C     0.70944   0.16666   0.16371   0.00000  Uiso   1.00
C109   C     0.80699   0.02497   0.13539   0.00000  Uiso   1.00
C110   C     0.85598   0.30850   0.20166   0.00000  Uiso   1.00
C111   C     0.85651   0.02490   0.20116   0.00000  Uiso   1.00
C112   C     0.80822   0.30845   0.13402   0.00000  Uiso   1.00
C113   C     0.77531   0.05764   0.06572   0.00000  Uiso   1.00
C114   C     0.91317   0.27760   0.24250   0.00000  Uiso   1.00
C115   C     0.91541   0.05383   0.24004   0.00000  Uiso   1.00
C116   C     0.91254   0.16670   0.16526   0.00000  Uiso   1.00
C117   C     0.78873   0.28149   0.05678   0.00000  Uiso   1.00
C118   C     0.83357   0.16669   0.07364   0.00000  Uiso   1.00
C119   C     0.83354   0.16664   0.25971   0.00000  Uiso   1.00
C120   C     0.83371   0.16666   0.02189   0.00000  Uiso   1.00
C121   C     0.83368   0.16660   0.31146   0.00000  Uiso   1.00
C122   C     0.68784   0.12457   0.16167   0.00000  Uiso   1.00
C123   C     0.97878   0.20882   0.16221   0.00000  Uiso   1.00
C124   C     0.97858   0.12467   0.16076   0.00000  Uiso   1.00
Cu125  Cu    0.83333   0.21355   0.16667   0.00000  Uiso   1.00
Cu126  Cu    0.83333   0.11978   0.16667   0.00000  Uiso   1.00
H127   H     0.70373   0.09158   0.16095   0.00000  Uiso   1.00
H128   H     0.92829   0.29283   0.27588   0.00000  Uiso   1.00
H129   H     0.92296   0.09124   0.24297   0.00000  Uiso   1.00
H130   H     0.92930   0.03957   0.20636   0.00000  Uiso   1.00
H131   H     0.93035   0.03750   0.27295   0.00000  Uiso   1.00
H132   H     0.78164   0.24598   0.04342   0.00000  Uiso   1.00
H133   H     0.82167   0.28922   0.04959   0.00000  Uiso   1.00
H134   H     0.76845   0.30380   0.03365   0.00000  Uiso   1.00
H135   H     0.96294   0.24172   0.16118   0.00000  Uiso   1.00
H136   H     0.96258   0.09183   0.15854   0.00000  Uiso   1.00
H137   H     0.70408   0.24182   0.16340   0.00000  Uiso   1.00
H138   H     0.80506   0.04761   0.04943   0.00000  Uiso   1.00
H139   H     0.77023   0.09529   0.06001   0.00000  Uiso   1.00
H140   H     0.74919   0.04114   0.04515   0.00000  Uiso   1.00
H141   H     0.92827   0.29148   0.20939   0.00000  Uiso   1.00
H142   H     0.91896   0.23980   0.24533   0.00000  Uiso   1.00
N143   N     0.83333   0.28402   0.16667   0.00000  Uiso   1.00
N144   N     0.83333   0.04931   0.16667   0.00000  Uiso   1.00
O145   O     0.77321   0.20625   0.16666   0.00000  Uiso   1.00
O146   O     0.87038   0.28565   0.24366   0.00000  Uiso   1.00
O147   O     0.87234   0.04819   0.24212   0.00000  Uiso   1.00
O148   O     0.77826   0.28449   0.10682   0.00000  Uiso   1.00
O149   O     0.89345   0.12709   0.16667   0.00000  Uiso   1.00
O150   O     0.89345   0.20625   0.16667   0.00000  Uiso   1.00
O151   O     0.77321   0.12709   0.16666   0.00000  Uiso   1.00
O152   O     0.83333   0.20625   0.09613   0.00000  Uiso   1.00
O153   O     0.83333   0.12708   0.23720   0.00000  Uiso   1.00
O154   O     0.83333   0.20625   0.23720   0.00000  Uiso   1.00
O155   O     0.83333   0.12708   0.09613   0.00000  Uiso   1.00
O156   O     0.77228   0.04743   0.11628   0.00000  Uiso   1.00
C157   C     0.08744   0.49998   0.16577   0.00000  Uiso   1.00
C158   C     0.02137   0.54216   0.16304   0.00000  Uiso   1.00
C159   C     0.29050   0.50007   0.16272   0.00000  Uiso   1.00
C160   C     0.04277   0.49999   0.16371   0.00000  Uiso   1.00
C161   C     0.14032   0.35830   0.13539   0.00000  Uiso   1.00
C162   C     0.18931   0.64183   0.20166   0.00000  Uiso   1.00
C163   C     0.18984   0.35823   0.20116   0.00000  Uiso   1.00
C164   C     0.14155   0.64178   0.13402   0.00000  Uiso   1.00
C165   C     0.10864   0.39098   0.06572   0.00000  Uiso   1.00
C166   C     0.24650   0.61093   0.24250   0.00000  Uiso   1.00
C167   C     0.24874   0.38716   0.24004   0.00000  Uiso   1.00
C168   C     0.24587   0.50003   0.16526   0.00000  Uiso   1.00
C169   C     0.12207   0.61482   0.05678   0.00000  Uiso   1.00
C170   C     0.16691   0.50002   0.07364   0.00000  Uiso   1.00
C171   C     0.16687   0.49997   0.25971   0.00000  Uiso   1.00
C172   C     0.16705   0.49999   0.02189   0.00000  Uiso   1.00
C173   C     0.16701   0.49994   0.31146   0.00000  Uiso   1.00
C174   C     0.02118   0.45790   0.16167   0.00000  Uiso   1.00
C175   C     0.31211   0.54215   0.16221   0.00000  Uiso   1.00
C176   C     0.31191   0.45800   0.16076   0.00000  Uiso   1.00
Cu177  Cu    0.16667   0.54689   0.16667   0.00000  Uiso   1.00
Cu178  Cu    0.16667   0.45311   0.16667   0.00000  Uiso   1.00
H179   H     0.03706   0.42491   0.16095   0.00000  Uiso   1.00
H180   H     0.26162   0.62616   0.27588   0.00000  Uiso   1.00
H181   H     0.25630   0.42458   0.24297   0.00000  Uiso   1.00
H182   H     0.26263   0.37291   0.20636   0.00000  Uiso   1.00
H183   H     0.26369   0.37084   0.27295   0.00000  Uiso   1.00
H184   H     0.11497   0.57931   0.04342   0.00000  Uiso   1.00
H185   H     0.15500   0.62255   0.04959   0.00000  Uiso   1.00
H186   H     0.10178   0.63714   0.03365   0.00000  Uiso   1.00
H187   H     0.29628   0.57506   0.16118   0.00000  Uiso   1.00
H188   H     0.29591   0.42517   0.15854   0.00000  Uiso   1.00
H189   H     0.03742   0.57515   0.16340   0.00000  Uiso   1.00
H190   H     0.13840   0.38094   0.04943   0.00000  Uiso   1.00
H191   H     0.10356   0.42862   0.06001   0.00000  Uiso   1.00
H192   H     0.08253   0.37447   0.04515   0.00000  Uiso   1.00
H193   H     0.26161   0.62482   0.20939   0.00000  Uiso   1.00
H194   H     0.25229   0.57313   0.24533   0.00000  Uiso   1.00
N195   N     0.16667   0.61736   0.16667   0.00000  Uiso   1.00
N196   N     0.16667   0.38264   0.16667   0.00000  Uiso   1.00
O197   O     0.10655   0.53958   0.16666   0.00000  Uiso   1.00
O198   O     0.20372   0.61898   0.24366   0.00000  Uiso   1.00
O199   O     0.20567   0.38152   0.24212   0.00000  Uiso   1.00
O200   O     0.11159   0.61783   0.10682   0.00000  Uiso   1.00
O201   O     0.22679   0.46042   0.16667   0.00000  Uiso   1.00
O202   O     0.22679   0.53958   0.16667   0.00000  Uiso   1.00
O203   O     0.10655   0.46042   0.16666   0.00000  Uiso   1.00
O204   O     0.16667   0.53959   0.09613   0.00000  Uiso   1.00
O205   O     0.16667   0.46041   0.23720   0.00000  Uiso   1.00
O206   O     0.16667   0.53959   0.23720   0.00000  Uiso   1.00
O207   O     0.16667   0.46041   0.09613   0.00000  Uiso   1.00
O208   O     0.10561   0.38076   0.11628   0.00000  Uiso   1.00
C209   C     0.42077   0.49998   0.16577   0.00000  Uiso   1.00
C210   C     0.35470   0.54216   0.16304   0.00000  Uiso   1.00
C211   C     0.62384   0.50007   0.16272   0.00000  Uiso   1.00
C212   C     0.37611   0.49999   0.16371   0.00000  Uiso   1.00
C213   C     0.47366   0.35830   0.13539   0.00000  Uiso   1.00
C214   C     0.52264   0.64183   0.20166   0.00000  Uiso   1.00
C215   C     0.52317   0.35823   0.20116   0.00000  Uiso   1.00
C216   C     0.47488   0.64178   0.13402   0.00000  Uiso   1.00
C217   C     0.44198   0.39098   0.06572   0.00000  Uiso   1.00
C218   C     0.57984   0.61093   0.24250   0.00000  Uiso   1.00
C219   C     0.58207   0.38716   0.24004   0.00000  Uiso   1.00
C220   C     0.57920   0.50003   0.16526   0.00000  Uiso   1.00
C221   C     0.45540   0.61482   0.05678   0.00000  Uiso   1.00
C222   C     0.50024   0.50002   0.07364   0.00000  Uiso   1.00
C223   C     0.50020   0.49997   0.25971   0.00000  Uiso   1.00
C224   C     0.50038   0.49999   0.02189   0.00000  Uiso   1.00
C225   C     0.50034   0.49994   0.31146   0.00000  Uiso   1.00
C226   C     0.35451   0.45790   0.16167   0.00000  Uiso   1.00
C227   C     0.64544   0.54215   0.16221   0.00000  Uiso   1.00
C228   C     0.64525   0.45800   0.16076   0.00000  Uiso   1.00
Cu229  Cu    0.50000   0.54689   0.16667   0.00000  Uiso   1.00
Cu230  Cu    0.50000   0.45311   0.16667   0.00000  Uiso   1.00
H231   H     0.37039   0.42491   0.16095   0.00000  Uiso   1.00
H232   H     0.59495   0.62616   0.27588   0.00000  Uiso   1.00
H233   H     0.58963   0.42458   0.24297   0.00000  Uiso   1.00
H234   H     0.59596   0.37291   0.20636   0.00000  Uiso   1.00
H235   H     0.59702   0.37084   0.27295   0.00000  Uiso   1.00
H236   H     0.44830   0.57931   0.04342   0.00000  Uiso   1.00
H237   H     0.48834   0.62255   0.04959   0.00000  Uiso   1.00
H238   H     0.43512   0.63714   0.03365   0.00000  Uiso   1.00
H239   H     0.62961   0.57506   0.16118   0.00000  Uiso   1.00
H240   H     0.62924   0.42517   0.15854   0.00000  Uiso   1.00
H241   H     0.37075   0.57515   0.16340   0.00000  Uiso   1.00
H242   H     0.47173   0.38094   0.04943   0.00000  Uiso   1.00
H243   H     0.43689   0.42862   0.06001   0.00000  Uiso   1.00
H244   H     0.41586   0.37447   0.04515   0.00000  Uiso   1.00
H245   H     0.59494   0.62482   0.20939   0.00000  Uiso   1.00
H246   H     0.58562   0.57313   0.24533   0.00000  Uiso   1.00
N247   N     0.50000   0.61736   0.16667   0.00000  Uiso   1.00
N248   N     0.50000   0.38264   0.16667   0.00000  Uiso   1.00
O249   O     0.43988   0.53958   0.16666   0.00000  Uiso   1.00
O250   O     0.53705   0.61898   0.24366   0.00000  Uiso   1.00
O251   O     0.53900   0.38152   0.24212   0.00000  Uiso   1.00
O252   O     0.44493   0.61783   0.10682   0.00000  Uiso   1.00
O253   O     0.56012   0.46042   0.16667   0.00000  Uiso   1.00
O254   O     0.56012   0.53958   0.16667   0.00000  Uiso   1.00
O255   O     0.43988   0.46042   0.16666   0.00000  Uiso   1.00
O256   O     0.50000   0.53959   0.09613   0.00000  Uiso   1.00
O257   O     0.50000   0.46041   0.23720   0.00000  Uiso   1.00
O258   O     0.50000   0.53959   0.23720   0.00000  Uiso   1.00
O259   O     0.50000   0.46041   0.09613   0.00000  Uiso   1.00
O260   O     0.43894   0.38076   0.11628   0.00000  Uiso   1.00
C261   C     0.75410   0.49998   0.16577   0.00000  Uiso   1.00
C262   C     0.68804   0.54216   0.16304   0.00000  Uiso   1.00
C263   C     0.95717   0.50007   0.16272   0.00000  Uiso   1.00
C264   C     0.70944   0.49999   0.16371   0.00000  Uiso   1.00
C265   C     0.80699   0.35830   0.13539   0.00000  Uiso   1.00
C266   C     0.85598   0.64183   0.20166   0.00000  Uiso   1.00
C267   C     0.85651   0.35823   0.20116   0.00000  Uiso   1.00
C268   C     0.80822   0.64178   0.13402   0.00000  Uiso   1.00
C269   C     0.77531   0.39098   0.06572   0.00000  Uiso   1.00
C270   C     0.91317   0.61093   0.24250   0.00000  Uiso   1.00
C271   C     0.91541   0.38716   0.24004   0.00000  Uiso   1.00
C272   C     0.91254   0.50003   0.16526   0.00000  Uiso   1.00
C273   C     0.78873   0.61482   0.05678   0.00000  Uiso   1.00
C274   C     0.83357   0.50002   0.07364   0.00000  Uiso   1.00
C275   C     0.83354   0.49997   0.25971   0.00000  Uiso   1.00
C276   C     0.83371   0.49999   0.02189   0.00000  Uiso   1.00
C277   C     0.83368   0.49994   0.31146   0.00000  Uiso   1.00
C278   C     0.68784   0.45790   0.16167   0.00000  Uiso   1.00
C279   C     0.97878   0.54215   0.16221   0.00000  Uiso   1.00
C280   C     0.97858   0.45800   0.16076   0.00000  Uiso   1.00
Cu281  Cu    0.83333   0.54689   0.16667   0.00000  Uiso   1.00
Cu282  Cu    0.83333   0.45311   0.16667   0.00000  Uiso   1.00
H283   H     0.70373   0.42491   0.16095   0.00000  Uiso   1.00
H284   H     0.92829   0.62616   0.27588   0.00000  Uiso   1.00
H285   H     0.92296   0.42458   0.24297   0.00000  Uiso   1.00
H286   H     0.92930   0.37291   0.20636   0.00000  Uiso   1.00
H287   H     0.93035   0.37084   0.27295   0.00000  Uiso   1.00
H288   H     0.78164   0.57931   0.04342   0.00000  Uiso   1.00
H289   H     0.82167   0.62255   0.04959   0.00000  Uiso   1.00
H290   H     0.76845   0.63714   0.03365   0.00000  Uiso   1.00
H291   H     0.96294   0.57506   0.16118   0.00000  Uiso   1.00
H292   H     0.96258   0.42517   0.15854   0.00000  Uiso   1.00
H293   H     0.70408   0.57515   0.16340   0.00000  Uiso   1.00
H294   H     0.80506   0.38094   0.04943   0.00000  Uiso   1.00
H295   H     0.77023   0.42862   0.06001   0.00000  Uiso   1.00
H296   H     0.74919   0.37447   0.04515   0.00000  Uiso   1.00
H297   H     0.92827   0.62482   0.20939   0.00000  Uiso   1.00
H298   H     0.91896   0.57313   0.24533   0.00000  Uiso   1.00
N299   N     0.83333   0.61736   0.16667   0.00000  Uiso   1.00
N300   N     0.83333   0.38264   0.16667   0.00000  Uiso   1.00
O301   O     0.77321   0.53958   0.16666   0.00000  Uiso   1.00
O302   O     0.87038   0.61898   0.24366   0.00000  Uiso   1.00
O303   O     0.87234   0.38152   0.24212   0.00000  Uiso   1.00
O304   O     0.77826   0.61783   0.10682   0.00000  Uiso   1.00
O305   O     0.89345   0.46042   0.16667   0.00000  Uiso   1.00
O306   O     0.89345   0.53958   0.16667   0.00000  Uiso   1.00
O307   O     0.77321   0.46042   0.16666   0.00000  Uiso   1.00
O308   O     0.83333   0.53959   0.09613   0.00000  Uiso   1.00
O309   O     0.83333   0.46041   0.23720   0.00000  Uiso   1.00
O310   O     0.83333   0.53959   0.23720   0.00000  Uiso   1.00
O311   O     0.83333   0.46041   0.09613   0.00000  Uiso   1.00
O312   O     0.77228   0.38076   0.11628   0.00000  Uiso   1.00
C313   C     0.08744   0.83331   0.16577   0.00000  Uiso   1.00
C314   C     0.02137   0.87549   0.16304   0.00000  Uiso   1.00
C315   C     0.29050   0.83340   0.16272   0.00000  Uiso   1.00
C316   C     0.04277   0.83333   0.16371   0.00000  Uiso   1.00
C317   C     0.14032   0.69164   0.13539   0.00000  Uiso   1.00
C318   C     0.18931   0.97516   0.20166   0.00000  Uiso   1.00
C319   C     0.18984   0.69157   0.20116   0.00000  Uiso   1.00
C320   C     0.14155   0.97512   0.13402   0.00000  Uiso   1.00
C321   C     0.10864   0.72431   0.06572   0.00000  Uiso   1.00
C322   C     0.24650   0.94426   0.24250   0.00000  Uiso   1.00
C323   C     0.24874   0.72049   0.24004   0.00000  Uiso   1.00
C324   C     0.24587   0.83337   0.16526   0.00000  Uiso   1.00
C325   C     0.12207   0.94815   0.05678   0.00000  Uiso   1.00
C326   C     0.16691   0.83335   0.07364   0.00000  Uiso   1.00
C327   C     0.16687   0.83330   0.25971   0.00000  Uiso   1.00
C328   C     0.16705   0.83333   0.02189   0.00000  Uiso   1.00
C329   C     0.16701   0.83327   0.31146   0.00000  Uiso   1.00
C330   C     0.02118   0.79124   0.16167   0.00000  Uiso   1.00
C331   C     0.31211   0.87548   0.16221   0.00000  Uiso   1.00
C332   C     0.31191   0.79133   0.16076   0.00000  Uiso   1.00
Cu333  Cu    0.16667   0.88022   0.16667   0.00000  Uiso   1.00
Cu334  Cu    0.16667   0.78645   0.16667   0.00000  Uiso   1.00
H335   H     0.03706   0.75825   0.16095   0.00000  Uiso   1.00
H336   H     0.26162   0.95950   0.27588   0.00000  Uiso   1.00
H337   H     0.25630   0.75791   0.24297   0.00000  Uiso   1.00
H338   H     0.26263   0.70624   0.20636   0.00000  Uiso   1.00
H339   H     0.26369   0.70417   0.27295   0.00000  Uiso   1.00
H340   H     0.11497   0.91264   0.04342   0.00000  Uiso   1.00
H341   H     0.15500   0.95589   0.04959   0.00000  Uiso   1.00
H342   H     0.10178   0.97047   0.03365   0.00000  Uiso   1.00
H343   H     0.29628   0.90839   0.16118   0.00000  Uiso   1.00
H344   H     0.29591   0.75850   0.15854   0.00000  Uiso   1.00
H345   H     0.03742   0.90849   0.16340   0.00000  Uiso   1.00
H346   H     0.13840   0.71428   0.04943   0.00000  Uiso   1.00
H347   H     0.10356   0.76196   0.06001   0.00000  Uiso   1.00
H348   H     0.08253   0.70781   0.04515   0.00000  Uiso   1.00
H349   H     0.26161   0.95815   0.20939   0.00000  Uiso   1.00
H350   H     0.25229   0.90646   0.24533   0.00000  Uiso   1.00
N351   N     0.16667   0.95069   0.16667   0.00000  Uiso   1.00
N352   N     0.16667   0.71598   0.16667   0.00000  Uiso   1.00
O353   O     0.10655   0.87291   0.16666   0.00000  Uiso   1.00
O354   O     0.20372   0.95231   0.24366   0.00000  Uiso   1.00
O355   O     0.20567   0.71486   0.24212   0.00000  Uiso   1.00
O356   O     0.11159   0.95116   0.10682   0.00000  Uiso   1.00
O357   O     0.22679   0.79375   0.16667   0.00000  Uiso   1.00
O358   O     0.22679   0.87291   0.16667   0.00000  Uiso   1.00
O359   O     0.10655   0.79375   0.16666   0.00000  Uiso   1.00
O360   O     0.16667   0.87292   0.09613   0.00000  Uiso   1.00
O361   O     0.16667   0.79375   0.23720   0.00000  Uiso   1.00
O362   O     0.16667   0.87292   0.23720   0.00000  Uiso   1.00
O363   O     0.16667   0.79375   0.09613   0.00000  Uiso   1.00
O364   O     0.10561   0.71410   0.11628   0.00000  Uiso   1.00
C365   C     0.42077   0.83331   0.16577   0.00000  Uiso   1.00
C366   C     0.35470   0.87549   0.16304   0.00000  Uiso   1.00
C367   C     0.62384   0.83340   0.16272   0.00000  Uiso   1.00
C368   C     0.37611   0.83333   0.16371   0.00000  Uiso   1.00
C369   C     0.47366   0.69164   0.13539   0.00000  Uiso   1.00
C370   C     0.52264   0.97516   0.20166   0.00000  Uiso   1.00
C371   C     0.52317   0.69157   0.20116   0.00000  Uiso   1.00
C372   C     0.47488   0.97512   0.13402   0.00000  Uiso   1.00
C373   C     0.44198   0.72431   0.06572   0.00000  Uiso   1.00
C374   C     0.57984   0.94426   0.24250   0.00000  Uiso   1.00
C375   C     0.58207   0.72049   0.24004   0.00000  Uiso   1.00
C376   C     0.57920   0.83337   0.16526   0.00000  Uiso   1.00
C377   C     0.45540   0.94815   0.05678   0.00000  Uiso   1.00
C378   C     0.50024   0.83335   0.07364   0.00000  Uiso   1.00
C379   C     0.50020   0.83330   0.25971   0.00000  Uiso   1.00
C380   C     0.50038   0.83333   0.02189   0.00000  Uiso   1.00
C381   C     0.50034   0.83327   0.31146   0.00000  Uiso   1.00
C382   C     0.35451   0.79124   0.16167   0.00000  Uiso   1.00
C383   C     0.64544   0.87548   0.16221   0.00000  Uiso   1.00
C384   C     0.64525   0.79133   0.16076   0.00000  Uiso   1.00
Cu385  Cu    0.50000   0.88022   0.16667   0.00000  Uiso   1.00
Cu386  Cu    0.50000   0.78645   0.16667   0.00000  Uiso   1.00
H387   H     0.37039   0.75825   0.16095   0.00000  Uiso   1.00
H388   H     0.59495   0.95950   0.27588   0.00000  Uiso   1.00
H389   H     0.58963   0.75791   0.24297   0.00000  Uiso   1.00
H390   H     0.59596   0.70624   0.20636   0.00000  Uiso   1.00
H391   H     0.59702   0.70417   0.27295   0.00000  Uiso   1.00
H392   H     0.44830   0.91264   0.04342   0.00000  Uiso   1.00
H393   H     0.48834   0.95589   0.04959   0.00000  Uiso   1.00
H394   H     0.43512   0.97047   0.03365   0.00000  Uiso   1.00
H395   H     0.62961   0.90839   0.16118   0.00000  Uiso   1.00
H396   H     0.62924   0.75850   0.15854   0.00000  Uiso   1.00
H397   H     0.37075   0.90849   0.16340   0.00000  Uiso   1.00
H398   H     0.47173   0.71428   0.04943   0.00000  Uiso   1.00
H399   H     0.43689   0.76196   0.06001   0.00000  Uiso   1.00
H400   H     0.41586   0.70781   0.04515   0.00000  Uiso   1.00
H401   H     0.59494   0.95815   0.20939   0.00000  Uiso   1.00
H402   H     0.58562   0.90646   0.24533   0.00000  Uiso   1.00
N403   N     0.50000   0.95069   0.16667   0.00000  Uiso   1.00
N404   N     0.50000   0.71598   0.16667   0.00000  Uiso   1.00
O405   O     0.43988   0.87291   0.16666   0.00000  Uiso   1.00
O406   O     0.53705   0.95231   0.24366   0.00000  Uiso   1.00
O407   O     0.53900   0.71486   0.24212   0.00000  Uiso   1.00
O408   O     0.44493   0.95116   0.10682   0.00000  Uiso   1.00
O409   O     0.56012   0.79375   0.16667   0.00000  Uiso   1.00
O410   O     0.56012   0.87291   0.16667   0.00000  Uiso   1.00
O411   O     0.43988   0.79375   0.16666   0.00000  Uiso   1.00
O412   O     0.50000   0.87292   0.09613   0.00000  Uiso   1.00
O413   O     0.50000   0.79375   0.23720   0.00000  Uiso   1.00
O414   O     0.50000   0.87292   0.23720   0.00000  Uiso   1.00
O415   O     0.50000   0.79375   0.09613   0.00000  Uiso   1.00
O416   O     0.43894   0.71410   0.11628   0.00000  Uiso   1.00
C417   C     0.75410   0.83331   0.16577   0.00000  Uiso   1.00
C418   C     0.68804   0.87549   0.16304   0.00000  Uiso   1.00
C419   C     0.95717   0.83340   0.16272   0.00000  Uiso   1.00
C420   C     0.70944   0.83333   0.16371   0.00000  Uiso   1.00
C421   C     0.80699   0.69164   0.13539   0.00000  Uiso   1.00
C422   C     0.85598   0.97516   0.20166   0.00000  Uiso   1.00
C423   C     0.85651   0.69157   0.20116   0.00000  Uiso   1.00
C424   C     0.80822   0.97512   0.13402   0.00000  Uiso   1.00
C425   C     0.77531   0.72431   0.06572   0.00000  Uiso   1.00
C426   C     0.91317   0.94426   0.24250   0.00000  Uiso   1.00
C427   C     0.91541   0.72049   0.24004   0.00000  Uiso   1.00
C428   C     0.91254   0.83337   0.16526   0.00000  Uiso   1.00
C429   C     0.78873   0.94815   0.05678   0.00000  Uiso   1.00
C430   C     0.83357   0.83335   0.07364   0.00000  Uiso   1.00
C431   C     0.83354   0.83330   0.25971   0.00000  Uiso   1.00
C432   C     0.83371   0.83333   0.02189   0.00000  Uiso   1.00
C433   C     0.83368   0.83327   0.31146   0.00000  Uiso   1.00
C434   C     0.68784   0.79124   0.16167   0.00000  Uiso   1.00
C435   C     0.97878   0.87548   0.16221   0.00000  Uiso   1.00
C436   C     0.97858   0.79133   0.16076   0.00000  Uiso   1.00
Cu437  Cu    0.83333   0.88022   0.16667   0.00000  Uiso   1.00
Cu438  Cu    0.83333   0.78645   0.16667   0.00000  Uiso   1.00
H439   H     0.70373   0.75825   0.16095   0.00000  Uiso   1.00
H440   H     0.92829   0.95950   0.27588   0.00000  Uiso   1.00
H441   H     0.92296   0.75791   0.24297   0.00000  Uiso   1.00
H442   H     0.92930   0.70624   0.20636   0.00000  Uiso   1.00
H443   H     0.93035   0.70417   0.27295   0.00000  Uiso   1.00
H444   H     0.78164   0.91264   0.04342   0.00000  Uiso   1.00
H445   H     0.82167   0.95589   0.04959   0.00000  Uiso   1.00
H446   H     0.76845   0.97047   0.03365   0.00000  Uiso   1.00
H447   H     0.96294   0.90839   0.16118   0.00000  Uiso   1.00
H448   H     0.96258   0.75850   0.15854   0.00000  Uiso   1.00
H449   H     0.70408   0.90849   0.16340   0.00000  Uiso   1.00
H450   H     0.80506   0.71428   0.04943   0.00000  Uiso   1.00
H451   H     0.77023   0.76196   0.06001   0.00000  Uiso   1.00
H452   H     0.74919   0.70781   0.04515   0.00000  Uiso   1.00
H453   H     0.92827   0.95815   0.20939   0.00000  Uiso   1.00
H454   H     0.91896   0.90646   0.24533   0.00000  Uiso   1.00
N455   N     0.83333   0.95069   0.16667   0.00000  Uiso   1.00
N456   N     0.83333   0.71598   0.16667   0.00000  Uiso   1.00
O457   O     0.77321   0.87291   0.16666   0.00000  Uiso   1.00
O458   O     0.87038   0.95231   0.24366   0.00000  Uiso   1.00
O459   O     0.87234   0.71486   0.24212   0.00000  Uiso   1.00
O460   O     0.77826   0.95116   0.10682   0.00000  Uiso   1.00
O461   O     0.89345   0.79375   0.16667   0.00000  Uiso   1.00
O462   O     0.89345   0.87291   0.16667   0.00000  Uiso   1.00
O463   O     0.77321   0.79375   0.16666   0.00000  Uiso   1.00
O464   O     0.83333   0.87292   0.09613   0.00000  Uiso   1.00
O465   O     0.83333   0.79375   0.23720   0.00000  Uiso   1.00
O466   O     0.83333   0.87292   0.23720   0.00000  Uiso   1.00
O467   O     0.83333   0.79375   0.09613   0.00000  Uiso   1.00
O468   O     0.77228   0.71410   0.11628   0.00000  Uiso   1.00
C469   C     0.08744   0.16664   0.49910   0.00000  Uiso   1.00
C470   C     0.02137   0.20883   0.49637   0.00000  Uiso   1.00
C471   C     0.29050   0.16674   0.49605   0.00000  Uiso   1.00
C472   C     0.04277   0.16666   0.49704   0.00000  Uiso   1.00
C473   C     0.14032   0.02497   0.46872   0.00000  Uiso   1.00
C474   C     0.18931   0.30850   0.53500   0.00000  Uiso   1.00
C475   C     0.18984   0.02490   0.53449   0.00000  Uiso   1.00
C476   C     0.14155   0.30845   0.46735   0.00000  Uiso   1.00
C477   C     0.10864   0.05764   0.39905   0.00000  Uiso   1.00
C478   C     0.24650   0.27760   0.57584   0.00000  Uiso   1.00
C479   C     0.24874   0.05383   0.57337   0.00000  Uiso   1.00
C480   C     0.24587   0.16670   0.49859   0.00000  Uiso   1.00
C481   C     0.12207   0.28149   0.39011   0.00000  Uiso   1.00
C482   C     0.16691   0.16669   0.40698   0.00000  Uiso   1.00
C483   C     0.16687   0.16664   0.59304   0.00000  Uiso   1.00
C484   C     0.16705   0.16666   0.35522   0.00000  Uiso   1.00
C485   C     0.16701   0.16660   0.64480   0.00000  Uiso   1.00
C486   C     0.02118   0.12457   0.49500   0.00000  Uiso   1.00
C487   C     0.31211   0.20882   0.49554   0.00000  Uiso   1.00
C488   C     0.31191   0.12467   0.49409   0.00000  Uiso   1.00
Cu489  Cu    0.16667   0.21355   0.50000   0.00000  Uiso   1.00
Cu490  Cu    0.16667   0.11978   0.50000   0.00000  Uiso   1.00
H491   H     0.03706   0.09158   0.49429   0.00000  Uiso   1.00
H492   H     0.26162   0.29283   0.60922   0.00000  Uiso   1.00
H493   H     0.25630   0.09124   0.57630   0.00000  Uiso   1.00
H494   H     0.26263   0.03957   0.53970   0.00000  Uiso   1.00
H495   H     0.26369   0.03750   0.60628   0.00000  Uiso   1.00
H496   H     0.11497   0.24598   0.37675   0.00000  Uiso   1.00
H497   H     0.15500   0.28922   0.38292   0.00000  Uiso   1.00
H498   H     0.10178   0.30380   0.36698   0.00000  Uiso   1.00
H499   H     0.29628   0.24172   0.49451   0.00000  Uiso   1.00
H500   H     0.29591   0.09183   0.49187   0.00000  Uiso   1.00
H501   H     0.03742   0.24182   0.49673   0.00000  Uiso   1.00
H502   H     0.13840   0.04761   0.38276   0.00000  Uiso   1.00
H503   H     0.10356   0.09529   0.39334   0.00000  Uiso   1.00
H504   H     0.08253   0.04114   0.37848   0.00000  Uiso   1.00
H505   H     0.26161   0.29148   0.54272   0.00000  Uiso   1.00
H506   H     0.25229   0.23980   0.57866   0.00000  Uiso   1.00
N507   N     0.16667   0.28402   0.50000   0.00000  Uiso   1.00
N508   N     0.16667   0.04931   0.50000   0.00000  Uiso   1.00
O509   O     0.10655   0.20625   0.50000   0.00000  Uiso   1.00
O510   O     0.20372   0.28565   0.57700   0.00000  Uiso   1.00
O511   O     0.20567   0.04819   0.57546   0.00000  Uiso   1.00
O512   O     0.11159   0.28449   0.44015   0.00000  Uiso   1.00
O513   O     0.22679   0.12709   0.50000   0.00000  Uiso   1.00
O514   O     0.22679   0.20625   0.50000   0.00000  Uiso   1.00
O515   O     0.10655   0.12709   0.50000   0.00000  Uiso   1.00
O516   O     0.16667   0.20625   0.42946   0.00000  Uiso   1.00
O517   O     0.16667   0.12708   0.57054   0.00000  Uiso   1.00
O518   O     0.16667   0.20625   0.57054   0.00000  Uiso   1.00
O519   O     0.16667   0.12708   0.42946   0.00000  Uiso   1.00
O520   O     0.10561   0.04743   0.44961   0.00000  Uiso   1.00
C521   C     0.42077   0.16664   0.49910   0.00000  Uiso   1.00
C522   C     0.35470   0.20883   0.49637   0.00000  Uiso   1.00
C523   C     0.62384   0.16674   0.49605   0.00000  Uiso   1.00
C524   C     0.37611   0.16666   0.49704   0.00000  Uiso   1.00
C525   C     0.47366   0.02497   0.46872   0.00000  Uiso   1.00
C526   C     0.52264   0.30850   0.53500   0.00000  Uiso   1.00
C527   C     0.52317   0.02490   0.53449   0.00000  Uiso   1.00
C528   C     0.47488   0.30845   0.46735   0.00000  Uiso   1.00
C529   C     0.44198   0.05764   0.39905   0.00000  Uiso   1.00
C530   C     0.57984   0.27760   0.57584   0.00000  Uiso   1.00
C531   C     0.58207   0.05383   0.57337   0.00000  Uiso   1.00
C532   C     0.57920   0.16670   0.49859   0.00000  Uiso   1.00
C533   C     0.45540   0.28149   0.39011   0.00000  Uiso   1.00
C534   C     0.50024   0.16669   0.40698   0.00000  Uiso   1.00
C535   C     0.50020   0.16664   0.59304   0.00000  Uiso   1.00
C536   C     0.50038   0.16666   0.35522   0.00000  Uiso   1.00
C537   C     0.50034   0.16660   0.64480   0.00000  Uiso   1.00
C538   C     0.35451   0.12457   0.49500   0.00000  Uiso   1.00
C539   C     0.64544   0.20882   0.49554   0.00000  Uiso   1.00
C540   C     0.64525   0.12467   0.49409   0.00000  Uiso   1.00
Cu541  Cu    0.50000   0.21355   0.50000   0.00000  Uiso   1.00
Cu542  Cu    0.50000   0.11978   0.50000   0.00000  Uiso   1.00
H543   H     0.37039   0.09158   0.49429   0.00000  Uiso   1.00
H544   H     0.59495   0.29283   0.60922   0.00000  Uiso   1.00
H545   H     0.58963   0.09124   0.57630   0.00000  Uiso   1.00
H546   H     0.59596   0.03957   0.53970   0.00000  Uiso   1.00
H547   H     0.59702   0.03750   0.60628   0.00000  Uiso   1.00
H548   H     0.44830   0.24598   0.37675   0.00000  Uiso   1.00
H549   H     0.48834   0.28922   0.38292   0.00000  Uiso   1.00
H550   H     0.43512   0.30380   0.36698   0.00000  Uiso   1.00
H551   H     0.62961   0.24172   0.49451   0.00000  Uiso   1.00
H552   H     0.62924   0.09183   0.49187   0.00000  Uiso   1.00
H553   H     0.37075   0.24182   0.49673   0.00000  Uiso   1.00
H554   H     0.47173   0.04761   0.38276   0.00000  Uiso   1.00
H555   H     0.43689   0.09529   0.39334   0.00000  Uiso   1.00
H556   H     0.41586   0.04114   0.37848   0.00000  Uiso   1.00
H557   H     0.59494   0.29148   0.54272   0.00000  Uiso   1.00
H558   H     0.58562   0.23980   0.57866   0.00000  Uiso   1.00
N559   N     0.50000   0.28402   0.50000   0.00000  Uiso   1.00
N560   N     0.50000   0.04931   0.50000   0.00000  Uiso   1.00
O561   O     0.43988   0.20625   0.50000   0.00000  Uiso   1.00
O562   O     0.53705   0.28565   0.57700   0.00000  Uiso   1.00
O563   O     0.53900   0.04819   0.57546   0.00000  Uiso   1.00
O564   O     0.44493   0.28449   0.44015   0.00000  Uiso   1.00
O565   O     0.56012   0.12709   0.50000   0.00000  Uiso   1.00
O566   O     0.56012   0.20625   0.50000   0.00000  Uiso   1.00
O567   O     0.43988   0.12709   0.50000   0.00000  Uiso   1.00
O568   O     0.50000   0.20625   0.42946   0.00000  Uiso   1.00
O569   O     0.50000   0.12708   0.57054   0.00000  Uiso   1.00
O570   O     0.50000   0.20625   0.57054   0.00000  Uiso   1.00
O571   O     0.50000   0.12708   0.42946   0.00000  Uiso   1.00
O572   O     0.43894   0.04743   0.44961   0.00000  Uiso   1.00
C573   C     0.75410   0.16664   0.49910   0.00000  Uiso   1.00
C574   C     0.68804   0.20883   0.49637   0.00000  Uiso   1.00
C575   C     0.95717   0.16674   0.49605   0.00000  Uiso   1.00
C576   C     0.70944   0.16666   0.49704   0.00000  Uiso   1.00
C577   C     0.80699   0.02497   0.46872   0.00000  Uiso   1.00
C578   C     0.85598   0.30850   0.53500   0.00000  Uiso   1.00
C579   C     0.85651   0.02490   0.53449   0.00000  Uiso   1.00
C580   C     0.80822   0.30845   0.46735   0.00000  Uiso   1.00
C581   C     0.77531   0.05764   0.39905   0.00000  Uiso   1.00
C582   C     0.91317   0.27760   0.57584   0.00000  Uiso   1.00
C583   C     0.91541   0.05383   0.57337   0.00000  Uiso   1.00
C584   C     0.91254   0.16670   0.49859   0.00000  Uiso   1.00
C585   C     0.78873   0.28149   0.39011   0.00000  Uiso   1.00
C586   C     0.83357   0.16669   0.40698   0.00000  Uiso   1.00
C587   C     0.83354   0.16664   0.59304   0.00000  Uiso   1.00
C588   C     0.83371   0.16666   0.35522   0.00000  Uiso   1.00
C589   C     0.83368   0.16660   0.64480   0.00000  Uiso   1.00
C590   C     0.68784   0.12457   0.49500   0.00000  Uiso   1.00
C591   C     0.97878   0.20882   0.49554   0.00000  Uiso   1.00
C592   C     0.97858   0.12467   0.49409   0.00000  Uiso   1.00
Cu593  Cu    0.83333   0.21355   0.50000   0.00000  Uiso   1.00
Cu594  Cu    0.83333   0.11978   0.50000   0.00000  Uiso   1.00
H595   H     0.70373   0.09158   0.49429   0.00000  Uiso   1.00
H596   H     0.92829   0.29283   0.60922   0.00000  Uiso   1.00
H597   H     0.92296   0.09124   0.57630   0.00000  Uiso   1.00
H598   H     0.92930   0.03957   0.53970   0.00000  Uiso   1.00
H599   H     0.93035   0.03750   0.60628   0.00000  Uiso   1.00
H600   H     0.78164   0.24598   0.37675   0.00000  Uiso   1.00
H601   H     0.82167   0.28922   0.38292   0.00000  Uiso   1.00
H602   H     0.76845   0.30380   0.36698   0.00000  Uiso   1.00
H603   H     0.96294   0.24172   0.49451   0.00000  Uiso   1.00
H604   H     0.96258   0.09183   0.49187   0.00000  Uiso   1.00
H605   H     0.70408   0.24182   0.49673   0.00000  Uiso   1.00
H606   H     0.80506   0.04761   0.38276   0.00000  Uiso   1.00
H607   H     0.77023   0.09529   0.39334   0.00000  Uiso   1.00
H608   H     0.74919   0.04114   0.37848   0.00000  Uiso   1.00
H609   H     0.92827   0.29148   0.54272   0.00000  Uiso   1.00
H610   H     0.91896   0.23980   0.57866   0.00000  Uiso   1.00
N611   N     0.83333   0.28402   0.50000   0.00000  Uiso   1.00
N612   N     0.83333   0.04931   0.50000   0.00000  Uiso   1.00
O613   O     0.77321   0.20625   0.50000   0.00000  Uiso   1.00
O614   O     0.87038   0.28565   0.57700   0.00000  Uiso   1.00
O615   O     0.87234   0.04819   0.57546   0.00000  Uiso   1.00
O616   O     0.77826   0.28449   0.44015   0.00000  Uiso   1.00
O617   O     0.89345   0.12709   0.50000   0.00000  Uiso   1.00
O618   O     0.89345   0.20625   0.50000   0.00000  Uiso   1.00
O619   O     0.77321   0.12709   0.50000   0.00000  Uiso   1.00
O620   O     0.83333   0.20625   0.42946   0.00000  Uiso   1.00
O621   O     0.83333   0.12708   0.57054   0.00000  Uiso   1.00
O622   O     0.83333   0.20625   0.57054   0.00000  Uiso   1.00
O623   O     0.83333   0.12708   0.42946   0.00000  Uiso   1.00
O624   O     0.77228   0.04743   0.44961   0.00000  Uiso   1.00
C625   C     0.08744   0.49998   0.49910   0.00000  Uiso   1.00
C626   C     0.02137   0.54216   0.49637   0.00000  Uiso   1.00
C627   C     0.29050   0.50007   0.49605   0.00000  Uiso   1.00
C628   C     0.04277   0.49999   0.49704   0.00000  Uiso   1.00
C629   C     0.14032   0.35830   0.46872   0.00000  Uiso   1.00
C630   C     0.18931   0.64183   0.53500   0.00000  Uiso   1.00
C631   C     0.18984   0.35823   0.53449   0.00000  Uiso   1.00
C632   C     0.14155   0.64178   0.46735   0.00000  Uiso   1.00
C633   C     0.10864   0.39098   0.39905   0.00000  Uiso   1.00
C634   C     0.24650   0.61093   0.57584   0.00000  Uiso   1.00
C635   C     0.24874   0.38716   0.57337   0.00000  Uiso   1.00
C636   C     0.24587   0.50003   0.49859   0.00000  Uiso   1.00
C637   C     0.12207   0.61482   0.39011   0.00000  Uiso   1.00
C638   C     0.16691   0.50002   0.40698   0.00000  Uiso   1.00
C639   C     0.16687   0.49997   0.59304   0.00000  Uiso   1.00
C640   C     0.16705   0.49999   0.35522   0.00000  Uiso   1.00
C641   C     0.16701   0.49994   0.64480   0.00000  Uiso   1.00
C642   C     0.02118   0.45790   0.49500   0.00000  Uiso   1.00
C643   C     0.31211   0.54215   0.49554   0.00000  Uiso   1.00
C644   C     0.31191   0.45800   0.49409   0.00000  Uiso   1.00
Cu645  Cu    0.16667   0.54689   0.50000   0.00000  Uiso   1.00
Cu646  Cu    0.16667   0.45311   0.50000   0.00000  Uiso   1.00
H647   H     0.03706   0.42491   0.49429   0.00000  Uiso   1.00
H648   H     0.26162   0.62616   0.60922   0.00000  Uiso   1.00
H649   H     0.25630   0.42458   0.57630   0.00000  Uiso   1.00
H650   H     0.26263   0.37291   0.53970   0.00000  Uiso   1.00
H651   H     0.26369   0.37084   0.60628   0.00000  Uiso   1.00
H652   H     0.11497   0.57931   0.37675   0.00000  Uiso   1.00
H653   H     0.15500   0.62255   0.38292   0.00000  Uiso   1.00
H654   H     0.10178   0.63714   0.36698   0.00000  Uiso   1.00
H655   H     0.29628   0.57506   0.49451   0.00000  Uiso   1.00
H656   H     0.29591   0.42517   0.49187   0.00000  Uiso   1.00
H657   H     0.03742   0.57515   0.49673   0.00000  Uiso   1.00
H658   H     0.13840   0.38094   0.38276   0.00000  Uiso   1.00
H659   H     0.10356   0.42862   0.39334   0.00000  Uiso   1.00
H660   H     0.08253   0.37447   0.37848   0.00000  Uiso   1.00
H661   H     0.26161   0.62482   0.54272   0.00000  Uiso   1.00
H662   H     0.25229   0.57313   0.57866   0.00000  Uiso   1.00
N663   N     0.16667   0.61736   0.50000   0.00000  Uiso   1.00
N664   N     0.16667   0.38264   0.50000   0.00000  Uiso   1.00
O665   O     0.10655   0.53958   0.50000   0.00000  Uiso   1.00
O666   O     0.20372   0.61898   0.57700   0.00000  Uiso   1.00
O667   O     0.20567   0.38152   0.57546   0.00000  Uiso   1.00
O668   O     0.11159   0.61783   0.44015   0.00000  Uiso   1.00
O669   O     0.22679   0.46042   0.50000   0.00000  Uiso   1.00
O670   O     0.22679   0.53958   0.50000   0.00000  Uiso   1.00
O671   O     0.10655   0.46042   0.50000   0.00000  Uiso   1.00
O672   O     0.16667   0.53959   0.42946   0.00000  Uiso   1.00
O673   O     0.16667   0.46041   0.57054   0.00000  Uiso   1.00
O674   O     0.16667   0.53959   0.57054   0.00000  Uiso   1.00
O675   O     0.16667   0.46041   0.42946   0.00000  Uiso   1.00
O676   O     0.10561   0.38076   0.44961   0.00000  Uiso   1.00
C677   C     0.42077   0.49998   0.49910   0.00000  Uiso   1.00
C678   C     0.35470   0.54216   0.49637   0.00000  Uiso   1.00
C679   C     0.62384   0.50007   0.49605   0.00000  Uiso   1.00
C680   C     0.37611   0.49999   0.49704   0.00000  Uiso   1.00
C681   C     0.47366   0.35830   0.46872   0.00000  Uiso   1.00
C682   C     0.52264   0.64183   0.53500   0.00000  Uiso   1.00
C683   C     0.52317   0.35823   0.53449   0.00000  Uiso   1.00
C684   C     0.47488   0.64178   0.46735   0.00000  Uiso   1.00
C685   C     0.44198   0.39098   0.39905   0.00000  Uiso   1.00
C686   C     0.57984   0.61093   0.57584   0.00000  Uiso   1.00
C687   C     0.58207   0.38716   0.57337   0.00000  Uiso   1.00
C688   C     0.57920   0.50003   0.49859   0.00000  Uiso   1.00
C689   C     0.45540   0.61482   0.39011   0.00000  Uiso   1.00
C690   C     0.50024   0.50002   0.40698   0.00000  Uiso   1.00
C691   C     0.50020   0.49997   0.59304   0.00000  Uiso   1.00
C692   C     0.50038   0.49999   0.35522   0.00000  Uiso   1.00
C693   C     0.50034   0.49994   0.64480   0.00000  Uiso   1.00
C694   C     0.35451   0.45790   0.49500   0.00000  Uiso   1.00
C695   C     0.64544   0.54215   0.49554   0.00000  Uiso   1.00
C696   C     0.64525   0.45800   0.49409   0.00000  Uiso   1.00
Cu697  Cu    0.50000   0.54689   0.50000   0.00000  Uiso   1.00
Cu698  Cu    0.50000   0.45311   0.50000   0.00000  Uiso   1.00
H699   H     0.37039   0.42491   0.49429   0.00000  Uiso   1.00
H700   H     0.59495   0.62616   0.60922   0.00000  Uiso   1.00
H701   H     0.58963   0.42458   0.57630   0.00000  Uiso   1.00
H702   H     0.59596   0.37291   0.53970   0.00000  Uiso   1.00
H703   H     0.59702   0.37084   0.60628   0.00000  Uiso   1.00
H704   H     0.44830   0.57931   0.37675   0.00000  Uiso   1.00
H705   H     0.48834   0.62255   0.38292   0.00000  Uiso   1.00
H706   H     0.43512   0.63714   0.36698   0.00000  Uiso   1.00
H707   H     0.62961   0.57506   0.49451   0.00000  Uiso   1.00
H708   H     0.62924   0.42517   0.49187   0.00000  Uiso   1.00
H709   H     0.37075   0.57515   0.49673   0.00000  Uiso   1.00
H710   H     0.47173   0.38094   0.38276   0.00000  Uiso   1.00
H711   H     0.43689   0.42862   0.39334   0.00000  Uiso   1.00
H712   H     0.41586   0.37447   0.37848   0.00000  Uiso   1.00
H713   H     0.59494   0.62482   0.54272   0.00000  Uiso   1.00
H714   H     0.58562   0.57313   0.57866   0.00000  Uiso   1.00
N715   N     0.50000   0.61736   0.50000   0.00000  Uiso   1.00
N716   N     0.50000   0.38264   0.50000   0.00000  Uiso   1.00
O717   O     0.43988   0.53958   0.50000   0.00000  Uiso   1.00
O718   O     0.53705   0.61898   0.57700   0.00000  Uiso   1.00
O719   O     0.53900   0.38152   0.57546   0.00000  Uiso   1.00
O720   O     0.44493   0.61783   0.44015   0.00000  Uiso   1.00
O721   O     0.56012   0.46042   0.50000   0.00000  Uiso   1.00
O722   O     0.56012   0.53958   0.50000   0.00000  Uiso   1.00
O723   O     0.43988   0.46042   0.50000   0.00000  Uiso   1.00
O724   O     0.50000   0.53959   0.42946   0.00000  Uiso   1.00
O725   O     0.50000   0.46041   0.57054   0.00000  Uiso   1.00
O726   O     0.50000   0.53959   0.57054   0.00000  Uiso   1.00
O727   O     0.50000   0.46041   0.42946   0.00000  Uiso   1.00
O728   O     0.43894   0.38076   0.44961   0.00000  Uiso   1.00
C729   C     0.75410   0.49998   0.49910   0.00000  Uiso   1.00
C730   C     0.68804   0.54216   0.49637   0.00000  Uiso   1.00
C731   C     0.95717   0.50007   0.49605   0.00000  Uiso   1.00
C732   C     0.70944   0.49999   0.49704   0.00000  Uiso   1.00
C733   C     0.80699   0.35830   0.46872   0.00000  Uiso   1.00
C734   C     0.85598   0.64183   0.53500   0.00000  Uiso   1.00
C735   C     0.85651   0.35823   0.53449   0.00000  Uiso   1.00
C736   C     0.80822   0.64178   0.46735   0.00000  Uiso   1.00
C737   C     0.77531   0.39098   0.39905   0.00000  Uiso   1.00
C738   C     0.91317   0.61093   0.57584   0.00000  Uiso   1.00
C739   C     0.91541   0.38716   0.57337   0.00000  Uiso   1.00
C740   C     0.91254   0.50003   0.49859   0.00000  Uiso   1.00
C741   C     0.78873   0.61482   0.39011   0.00000  Uiso   1.00
C742   C     0.83357   0.50002   0.40698   0.00000  Uiso   1.00
C743   C     0.83354   0.49997   0.59304   0.00000  Uiso   1.00
C744   C     0.83371   0.49999   0.35522   0.00000  Uiso   1.00
C745   C     0.83368   0.49994   0.64480   0.00000  Uiso   1.00
C746   C     0.68784   0.45790   0.49500   0.00000  Uiso   1.00
C747   C     0.97878   0.54215   0.49554   0.00000  Uiso   1.00
C748   C     0.97858   0.45800   0.49409   0.00000  Uiso   1.00
Cu749  Cu    0.83333   0.54689   0.50000   0.00000  Uiso   1.00
Cu750  Cu    0.83333   0.45311   0.50000   0.00000  Uiso   1.00
H751   H     0.70373   0.42491   0.49429   0.00000  Uiso   1.00
H752   H     0.92829   0.62616   0.60922   0.00000  Uiso   1.00
H753   H     0.92296   0.42458   0.57630   0.00000  Uiso   1.00
H754   H     0.92930   0.37291   0.53970   0.00000  Uiso   1.00
H755   H     0.93035   0.37084   0.60628   0.00000  Uiso   1.00
H756   H     0.78164   0.57931   0.37675   0.00000  Uiso   1.00
H757   H     0.82167   0.62255   0.38292   0.00000  Uiso   1.00
H758   H     0.76845   0.63714   0.36698   0.00000  Uiso   1.00
H759   H     0.96294   0.57506   0.49451   0.00000  Uiso   1.00
H760   H     0.96258   0.42517   0.49187   0.00000  Uiso   1.00
H761   H     0.70408   0.57515   0.49673   0.00000  Uiso   1.00
H762   H     0.80506   0.38094   0.38276   0.00000  Uiso   1.00
H763   H     0.77023   0.42862   0.39334   0.00000  Uiso   1.00
H764   H     0.74919   0.37447   0.37848   0.00000  Uiso   1.00
H765   H     0.92827   0.62482   0.54272   0.00000  Uiso   1.00
H766   H     0.91896   0.57313   0.57866   0.00000  Uiso   1.00
N767   N     0.83333   0.61736   0.50000   0.00000  Uiso   1.00
N768   N     0.83333   0.38264   0.50000   0.00000  Uiso   1.00
O769   O     0.77321   0.53958   0.50000   0.00000  Uiso   1.00
O770   O     0.87038   0.61898   0.57700   0.00000  Uiso   1.00
O771   O     0.87234   0.38152   0.57546   0.00000  Uiso   1.00
O772   O     0.77826   0.61783   0.44015   0.00000  Uiso   1.00
O773   O     0.89345   0.46042   0.50000   0.00000  Uiso   1.00
O774   O     0.89345   0.53958   0.50000   0.00000  Uiso   1.00
O775   O     0.77321   0.46042   0.50000   0.00000  Uiso   1.00
O776   O     0.83333   0.53959   0.42946   0.00000  Uiso   1.00
O777   O     0.83333   0.46041   0.57054   0.00000  Uiso   1.00
O778   O     0.83333   0.53959   0.57054   0.00000  Uiso   1.00
O779   O     0.83333   0.46041   0.42946   0.00000  Uiso   1.00
O780   O     0.77228   0.38076   0.44961   0.00000  Uiso   1.00
C781   C     0.08744   0.83331   0.49910   0.00000  Uiso   1.00
C782   C     0.02137   0.87549   0.49637   0.00000  Uiso   1.00
C783   C     0.29050   0.83340   0.49605   0.00000  Uiso   1.00
C784   C     0.04277   0.83333   0.49704   0.00000  Uiso   1.00
C785   C     0.14032   0.69164   0.46872   0.00000  Uiso   1.00
C786   C     0.18931   0.97516   0.53500   0.00000  Uiso   1.00
C787   C     0.18984   0.69157   0.53449   0.00000  Uiso   1.00
C788   C     0.14155   0.97512   0.46735   0.00000  Uiso   1.00
C789   C     0.10864   0.72431   0.39905   0.00000  Uiso   1.00
C790   C     0.24650   0.94426   0.57584   0.00000  Uiso   1.00
C791   C     0.24874   0.72049   0.57337   0.00000  Uiso   1.00
C792   C     0.24587   0.83337   0.49859   0.00000  Uiso   1.00
C793   C     0.12207   0.94815   0.39011   0.00000  Uiso   1.00
C794   C     0.16691   0.83335   0.40698   0.00000  Uiso   1.00
C795   C     0.16687   0.83330   0.59304   0.00000  Uiso   1.00
C796   C     0.16705   0.83333   0.35522   0.00000  Uiso   1.00
C797   C     0.16701   0.83327   0.64480   0.00000  Uiso   1.00
C798   C     0.02118   0.79124   0.49500   0.00000  Uiso   1.00
C799   C     0.31211   0.87548   0.49554   0.00000  Uiso   1.00
C800   C     0.31191   0.79133   0.49409   0.00000  Uiso   1.00
Cu801  Cu    0.16667   0.88022   0.50000   0.00000  Uiso   1.00
Cu802  Cu    0.16667   0.78645   0.50000   0.00000  Uiso   1.00
H803   H     0.03706   0.75825   0.49429   0.00000  Uiso   1.00
H804   H     0.26162   0.95950   0.60922   0.00000  Uiso   1.00
H805   H     0.25630   0.75791   0.57630   0.00000  Uiso   1.00
H806   H     0.26263   0.70624   0.53970   0.00000  Uiso   1.00
H807   H     0.26369   0.70417   0.60628   0.00000  Uiso   1.00
H808   H     0.11497   0.91264   0.37675   0.00000  Uiso   1.00
H809   H     0.15500   0.95589   0.38292   0.00000  Uiso   1.00
H810   H     0.10178   0.97047   0.36698   0.00000  Uiso   1.00
H811   H     0.29628   0.90839   0.49451   0.00000  Uiso   1.00
H812   H     0.29591   0.75850   0.49187   0.00000  Uiso   1.00
H813   H     0.03742   0.90849   0.49673   0.00000  Uiso   1.00
H814   H     0.13840   0.71428   0.38276   0.00000  Uiso   1.00
H815   H     0.10356   0.76196   0.39334   0.00000  Uiso   1.00
H816   H     0.08253   0.70781   0.37848   0.00000  Uiso   1.00
H817   H     0.26161   0.95815   0.54272   0.00000  Uiso   1.00
H818   H     0.25229   0.90646   0.57866   0.00000  Uiso   1.00
N819   N     0.16667   0.95069   0.50000   0.00000  Uiso   1.00
N820   N     0.16667   0.71598   0.50000   0.00000  Uiso   1.00
O821   O     0.10655   0.87291   0.50000   0.00000  Uiso   1.00
O822   O     0.20372   0.95231   0.57700   0.00000  Uiso   1.00
O823   O     0.20567   0.71486   0.57546   0.00000  Uiso   1.00
O824   O     0.11159   0.95116   0.44015   0.00000  Uiso   1.00
O825   O     0.22679   0.79375   0.50000   0.00000  Uiso   1.00
O826   O     0.22679   0.87291   0.50000   0.00000  Uiso   1.00
O827   O     0.10655   0.79375   0.50000   0.00000  Uiso   1.00
O828   O     0.16667   0.87292   0.42946   0.00000  Uiso   1.00
O829   O     0.16667   0.79375   0.57054   0.00000  Uiso   1.00
O830   O     0.16667   0.87292   0.57054   0.00000  Uiso   1.00
O831   O     0.16667   0.79375   0.42946   0.00000  Uiso   1.00
O832   O     0.10561   0.71410   0.44961   0.00000  Uiso   1.00
C833   C     0.42077   0.83331   0.49910   0.00000  Uiso   1.00
C834   C     0.35470   0.87549   0.49637   0.00000  Uiso   1.00
C835   C     0.62384   0.83340   0.49605   0.00000  Uiso   1.00
C836   C     0.37611   0.83333   0.49704   0.00000  Uiso   1.00
C837   C     0.47366   0.69164   0.46872   0.00000  Uiso   1.00
C838   C     0.52264   0.97516   0.53500   0.00000  Uiso   1.00
C839   C     0.52317   0.69157   0.53449   0.00000  Uiso   1.00
C840   C     0.47488   0.97512   0.46735   0.00000  Uiso   1.00
C841   C     0.44198   0.72431   0.39905   0.00000  Uiso   1.00
C842   C     0.57984   0.94426   0.57584   0.00000  Uiso   1.00
C843   C     0.58207   0.72049   0.57337   0.00000  Uiso   1.00
C844   C     0.57920   0.83337   0.49859   0.00000  Uiso   1.00
C845   C     0.45540   0.94815   0.39011   0.00000  Uiso   1.00
C846   C     0.50024   0.83335   0.40698   0.00000  Uiso   1.00
C847   C     0.50020   0.83330   0.59304   0.00000  Uiso   1.00
C848   C     0.50038   0.83333   0.35522   0.00000  Uiso   1.00
C849   C     0.50034   0.83327   0.64480   0.00000  Uiso   1.00
C850   C     0.35451   0.79124   0.49500   0.00000  Uiso   1.00
C851   C     0.64544   0.87548   0.49554   0.00000  Uiso   1.00
C852   C     0.64525   0.79133   0.49409   0.00000  Uiso   1.00
Cu853  Cu    0.50000   0.88022   0.50000   0.00000  Uiso   1.00
Cu854  Cu    0.50000   0.78645   0.50000   0.00000  Uiso   1.00
H855   H     0.37039   0.75825   0.49429   0.00000  Uiso   1.00
H856   H     0.59495   0.95950   0.60922   0.00000  Uiso   1.00
H857   H     0.58963   0.75791   0.57630   0.00000  Uiso   1.00
H858   H     0.59596   0.70624   0.53970   0.00000  Uiso   1.00
H859   H     0.59702   0.70417   0.60628   0.00000  Uiso   1.00
H860   H     0.44830   0.91264   0.37675   0.00000  Uiso   1.00
H861   H     0.48834   0.95589   0.38292   0.00000  Uiso   1.00
H862   H     0.43512   0.97047   0.36698   0.00000  Uiso   1.00
H863   H     0.62961   0.90839   0.49451   0.00000  Uiso   1.00
H864   H     0.62924   0.75850   0.49187   0.00000  Uiso   1.00
H865   H     0.37075   0.90849   0.49673   0.00000  Uiso   1.00
H866   H     0.47173   0.71428   0.38276   0.00000  Uiso   1.00
H867   H     0.43689   0.76196   0.39334   0.00000  Uiso   1.00
H868   H     0.41586   0.70781   0.37848   0.00000  Uiso   1.00
H869   H     0.59494   0.95815   0.54272   0.00000  Uiso   1.00
H870   H     0.58562   0.90646   0.57866   0.00000  Uiso   1.00
N871   N     0.50000   0.95069   0.50000   0.00000  Uiso   1.00
N872   N     0.50000   0.71598   0.50000   0.00000  Uiso   1.00
O873   O     0.43988   0.87291   0.50000   0.00000  Uiso   1.00
O874   O     0.53705   0.95231   0.57700   0.00000  Uiso   1.00
O875   O     0.53900   0.71486   0.57546   0.00000  Uiso   1.00
O876   O     0.44493   0.95116   0.44015   0.00000  Uiso   1.00
O877   O     0.56012   0.79375   0.50000   0.00000  Uiso   1.00
O878   O     0.56012   0.87291   0.50000   0.00000  Uiso   1.00
O879   O     0.43988   0.79375   0.50000   0.00000  Uiso   1.00
O880   O     0.50000   0.87292   0.42946   0.00000  Uiso   1.00
O881   O     0.50000   0.79375   0.57054   0.00000  Uiso   1.00
O882   O     0.50000   0.87292   0.57054   0.00000  Uiso   1.00
O883   O     0.50000   0.79375   0.42946   0.00000  Uiso   1.00
O884   O     0.43894   0.71410   0.44961   0.00000  Uiso   1.00
C885   C     0.75410   0.83331   0.49910   0.00000  Uiso   1.00
C886   C     0.68804   0.87549   0.49637   0.00000  Uiso   1.00
C887   C     0.95717   0.83340   0.49605   0.00000  Uiso   1.00
C888   C     0.70944   0.83333   0.49704   0.00000  Uiso   1.00
C889   C     0.80699   0.69164   0.46872   0.00000  Uiso   1.00
C890   C     0.85598   0.97516   0.53500   0.00000  Uiso   1.00
C891   C     0.85651   0.69157   0.53449   0.00000  Uiso   1.00
C892   C     0.80822   0.97512   0.46735   0.00000  Uiso   1.00
C893   C     0.77531   0.72431   0.39905   0.00000  Uiso   1.00
C894   C     0.91317   0.94426   0.57584   0.00000  Uiso   1.00
C895   C     0.91541   0.72049   0.57337   0.00000  Uiso   1.00
C896   C     0.91254   0.83337   0.49859   0.00000  Uiso   1.00
C897   C     0.78873   0.94815   0.39011   0.00000  Uiso   1.00
C898   C     0.83357   0.83335   0.40698   0.00000  Uiso   1.00
C899   C     0.83354   0.83330   0.59304   0.00000  Uiso   1.00
C900   C     0.83371   0.83333   0.35522   0.00000  Uiso   1.00
C901   C     0.83368   0.83327   0.64480   0.00000  Uiso   1.00
C902   C     0.68784   0.79124   0.49500   0.00000  Uiso   1.00
C903   C     0.97878   0.87548   0.49554   0.00000  Uiso   1.00
C904   C     0.97858   0.79133   0.49409   0.00000  Uiso   1.00
Cu905  Cu    0.83333   0.88022   0.50000   0.00000  Uiso   1.00
Cu906  Cu    0.83333   0.78645   0.50000   0.00000  Uiso   1.00
H907   H     0.70373   0.75825   0.49429   0.00000  Uiso   1.00
H908   H     0.92829   0.95950   0.60922   0.00000  Uiso   1.00
H909   H     0.92296   0.75791   0.57630   0.00000  Uiso   1.00
H910   H     0.92930   0.70624   0.53970   0.00000  Uiso   1.00
H911   H     0.93035   0.70417   0.60628   0.00000  Uiso   1.00
H912   H     0.78164   0.91264   0.37675   0.00000  Uiso   1.00
H913   H     0.82167   0.95589   0.38292   0.00000  Uiso   1.00
H914   H     0.76845   0.97047   0.36698   0.00000  Uiso   1.00
H915   H     0.96294   0.90839   0.49451   0.00000  Uiso   1.00
H916   H     0.96258   0.75850   0.49187   0.00000  Uiso   1.00
H917   H     0.70408   0.90849   0.49673   0.00000  Uiso   1.00
H918   H     0.80506   0.71428   0.38276   0.00000  Uiso   1.00
H919   H     0.77023   0.76196   0.39334   0.00000  Uiso   1.00
H920   H     0.74919   0.70781   0.37848   0.00000  Uiso   1.00
H921   H     0.92827   0.95815   0.54272   0.00000  Uiso   1.00
H922   H     0.91896   0.90646   0.57866   0.00000  Uiso   1.00
N923   N     0.83333   0.95069   0.50000   0.00000  Uiso   1.00
N924   N     0.83333   0.71598   0.50000   0.00000  Uiso   1.00
O925   O     0.77321   0.87291   0.50000   0.00000  Uiso   1.00
O926   O     0.87038   0.95231   0.57700   0.00000  Uiso   1.00
O927   O     0.87234   0.71486   0.57546   0.00000  Uiso   1.00
O928   O     0.77826   0.95116   0.44015   0.00000  Uiso   1.00
O929   O     0.89345   0.79375   0.50000   0.00000  Uiso   1.00
O930   O     0.89345   0.87291   0.50000   0.00000  Uiso   1.00
O931   O     0.77321   0.79375   0.50000   0.00000  Uiso   1.00
O932   O     0.83333   0.87292   0.42946   0.00000  Uiso   1.00
O933   O     0.83333   0.79375   0.57054   0.00000  Uiso   1.00
O934   O     0.83333   0.87292   0.57054   0.00000  Uiso   1.00
O935   O     0.83333   0.79375   0.42946   0.00000  Uiso   1.00
O936   O     0.77228   0.71410   0.44961   0.00000  Uiso   1.00
C937   C     0.08744   0.16664   0.83243   0.00000  Uiso   1.00
C938   C     0.02137   0.20883   0.82971   0.00000  Uiso   1.00
C939   C     0.29050   0.16674   0.82938   0.00000  Uiso   1.00
C940   C     0.04277   0.16666   0.83038   0.00000  Uiso   1.00
C941   C     0.14032   0.02497   0.80206   0.00000  Uiso   1.00
C942   C     0.18931   0.30850   0.86833   0.00000  Uiso   1.00
C943   C     0.18984   0.02490   0.86783   0.00000  Uiso   1.00
C944   C     0.14155   0.30845   0.80068   0.00000  Uiso   1.00
C945   C     0.10864   0.05764   0.73238   0.00000  Uiso   1.00
C946   C     0.24650   0.27760   0.90917   0.00000  Uiso   1.00
C947   C     0.24874   0.05383   0.90671   0.00000  Uiso   1.00
C948   C     0.24587   0.16670   0.83193   0.00000  Uiso   1.00
C949   C     0.12207   0.28149   0.72344   0.00000  Uiso   1.00
C950   C     0.16691   0.16669   0.74031   0.00000  Uiso   1.00
C951   C     0.16687   0.16664   0.92637   0.00000  Uiso   1.00
C952   C     0.16705   0.16666   0.68855   0.00000  Uiso   1.00
C953   C     0.16701   0.16660   0.97813   0.00000  Uiso   1.00
C954   C     0.02118   0.12457   0.82833   0.00000  Uiso   1.00
C955   C     0.31211   0.20882   0.82887   0.00000  Uiso   1.00
C956   C     0.31191   0.12467   0.82743   0.00000  Uiso   1.00
Cu957  Cu    0.16667   0.21355   0.83333   0.00000  Uiso   1.00
Cu958  Cu    0.16667   0.11978   0.83333   0.00000  Uiso   1.00
H959   H     0.03706   0.09158   0.82762   0.00000  Uiso   1.00
H960   H     0.26162   0.29283   0.94255   0.00000  Uiso   1.00
H961   H     0.25630   0.09124   0.90964   0.00000  Uiso   1.00
H962   H     0.26263   0.03957   0.87303   0.00000  Uiso   1.00
H963   H     0.26369   0.03750   0.93962   0.00000  Uiso   1.00
H964   H     0.11497   0.24598   0.71009   0.00000  Uiso   1.00
H965   H     0.15500   0.28922   0.71625   0.00000  Uiso   1.00
H966   H     0.10178   0.30380   0.70032   0.00000  Uiso   1.00
H967   H     0.29628   0.24172   0.82785   0.00000  Uiso   1.00
H968   H     0.29591   0.09183   0.82520   0.00000  Uiso   1.00
H969   H     0.03742   0.24182   0.83007   0.00000  Uiso   1.00
H970   H     0.13840   0.04761   0.71610   0.00000  Uiso   1.00
H971   H     0.10356   0.09529   0.72667   0.00000  Uiso   1.00
H972   H     0.08253   0.04114   0.71182   0.00000  Uiso   1.00
H973   H     0.26161   0.29148   0.87605   0.00000  Uiso   1.00
H974   H     0.25229   0.23980   0.91199   0.00000  Uiso   1.00
N975   N     0.16667   0.28402   0.83333   0.00000  Uiso   1.00
N976   N     0.16667   0.04931   0.83333   0.00000  Uiso   1.00
O977   O     0.10655   0.20625   0.83333   0.00000  Uiso   1.00
O978   O     0.20372   0.28565   0.91033   0.00000  Uiso   1.00
O979   O     0.20567   0.04819   0.90879   0.00000  Uiso   1.00
O980   O     0.11159   0.28449   0.77348   0.00000  Uiso   1.00
O981   O     0.22679   0.12709   0.83334   0.00000  Uiso   1.00
O982   O     0.22679   0.20625   0.83334   0.00000  Uiso   1.00
O983   O     0.10655   0.12709   0.83333   0.00000  Uiso   1.00
O984   O     0.16667   0.20625   0.76280   0.00000  Uiso   1.00
O985   O     0.16667   0.12708   0.90387   0.00000  Uiso   1.00
O986   O     0.16667   0.20625   0.90387   0.00000  Uiso   1.00
O987   O     0.16667   0.12708   0.76280   0.00000  Uiso   1.00
O988   O     0.10561   0.04743   0.78294   0.00000  Uiso   1.00
C989   C     0.42077   0.16664   0.83243   0.00000  Uiso   1.00
C990   C     0.35470   0.20883   0.82971   0.00000  Uiso   1.00
C991   C     0.62384   0.16674   0.82938   0.00000  Uiso   1.00
C992   C     0.37611   0.16666   0.83038   0.00000  Uiso   1.00
C993   C     0.47366   0.02497   0.80206   0.00000  Uiso   1.00
C994   C     0.52264   0.30850   0.86833   0.00000  Uiso   1.00
C995   C     0.52317   0.02490   0.86783   0.00000  Uiso   1.00
C996   C     0.47488   0.30845   0.80068   0.00000  Uiso   1.00
C997   C     0.44198   0.05764   0.73238   0.00000  Uiso   1.00
C998   C     0.57984   0.27760   0.90917   0.00000  Uiso   1.00
C999   C     0.58207   0.05383   0.90671   0.00000  Uiso   1.00
C1000  C     0.57920   0.16670   0.83193   0.00000  Uiso   1.00
C1001  C     0.45540   0.28149   0.72344   0.00000  Uiso   1.00
C1002  C     0.50024   0.16669   0.74031   0.00000  Uiso   1.00
C1003  C     0.50020   0.16664   0.92637   0.00000  Uiso   1.00
C1004  C     0.50038   0.16666   0.68855   0.00000  Uiso   1.00
C1005  C     0.50034   0.16660   0.97813   0.00000  Uiso   1.00
C1006  C     0.35451   0.12457   0.82833   0.00000  Uiso   1.00
C1007  C     0.64544   0.20882   0.82887   0.00000  Uiso   1.00
C1008  C     0.64525   0.12467   0.82743   0.00000  Uiso   1.00
Cu1009 Cu    0.50000   0.21355   0.83333   0.00000  Uiso   1.00
Cu1010 Cu    0.50000   0.11978   0.83333   0.00000  Uiso   1.00
H1011  H     0.37039   0.09158   0.82762   0.00000  Uiso   1.00
H1012  H     0.59495   0.29283   0.94255   0.00000  Uiso   1.00
H1013  H     0.58963   0.09124   0.90964   0.00000  Uiso   1.00
H1014  H     0.59596   0.03957   0.87303   0.00000  Uiso   1.00
H1015  H     0.59702   0.03750   0.93962   0.00000  Uiso   1.00
H1016  H     0.44830   0.24598   0.71009   0.00000  Uiso   1.00
H1017  H     0.48834   0.28922   0.71625   0.00000  Uiso   1.00
H1018  H     0.43512   0.30380   0.70032   0.00000  Uiso   1.00
H1019  H     0.62961   0.24172   0.82785   0.00000  Uiso   1.00
H1020  H     0.62924   0.09183   0.82520   0.00000  Uiso   1.00
H1021  H     0.37075   0.24182   0.83007   0.00000  Uiso   1.00
H1022  H     0.47173   0.04761   0.71610   0.00000  Uiso   1.00
H1023  H     0.43689   0.09529   0.72667   0.00000  Uiso   1.00
H1024  H     0.41586   0.04114   0.71182   0.00000  Uiso   1.00
H1025  H     0.59494   0.29148   0.87605   0.00000  Uiso   1.00
H1026  H     0.58562   0.23980   0.91199   0.00000  Uiso   1.00
N1027  N     0.50000   0.28402   0.83333   0.00000  Uiso   1.00
N1028  N     0.50000   0.04931   0.83333   0.00000  Uiso   1.00
O1029  O     0.43988   0.20625   0.83333   0.00000  Uiso   1.00
O1030  O     0.53705   0.28565   0.91033   0.00000  Uiso   1.00
O1031  O     0.53900   0.04819   0.90879   0.00000  Uiso   1.00
O1032  O     0.44493   0.28449   0.77348   0.00000  Uiso   1.00
O1033  O     0.56012   0.12709   0.83334   0.00000  Uiso   1.00
O1034  O     0.56012   0.20625   0.83334   0.00000  Uiso   1.00
O1035  O     0.43988   0.12709   0.83333   0.00000  Uiso   1.00
O1036  O     0.50000   0.20625   0.76280   0.00000  Uiso   1.00
O1037  O     0.50000   0.12708   0.90387   0.00000  Uiso   1.00
O1038  O     0.50000   0.20625   0.90387   0.00000  Uiso   1.00
O1039  O     0.50000   0.12708   0.76280   0.00000  Uiso   1.00
O1040  O     0.43894   0.04743   0.78294   0.00000  Uiso   1.00
C1041  C     0.75410   0.16664   0.83243   0.00000  Uiso   1.00
C1042  C     0.68804   0.20883   0.82971   0.00000  Uiso   1.00
C1043  C     0.95717   0.16674   0.82938   0.00000  Uiso   1.00
C1044  C     0.70944   0.16666   0.83038   0.00000  Uiso   1.00
C1045  C     0.80699   0.02497   0.80206   0.00000  Uiso   1.00
C1046  C     0.85598   0.30850   0.86833   0.00000  Uiso   1.00
C1047  C     0.85651   0.02490   0.86783   0.00000  Uiso   1.00
C1048  C     0.80822   0.30845   0.80068   0.00000  Uiso   1.00
C1049  C     0.77531   0.05764   0.73238   0.00000  Uiso   1.00
C1050  C     0.91317   0.27760   0.90917   0.00000  Uiso   1.00
C1051  C     0.91541   0.05383   0.90671   0.00000  Uiso   1.00
C1052  C     0.91254   0.16670   0.83193   0.00000  Uiso   1.00
C1053  C     0.78873   0.28149   0.72344   0.00000  Uiso   1.00
C1054  C     0.83357   0.16669   0.74031   0.00000  Uiso   1.00
C1055  C     0.83354   0.16664   0.92637   0.00000  Uiso   1.00
C1056  C     0.83371   0.16666   0.68855   0.00000  Uiso   1.00
C1057  C     0.83368   0.16660   0.97813   0.00000  Uiso   1.00
C1058  C     0.68784   0.12457   0.82833   0.00000  Uiso   1.00
C1059  C     0.97878   0.20882   0.82887   0.00000  Uiso   1.00
C1060  C     0.97858   0.12467   0.82743   0.00000  Uiso   1.00
Cu1061 Cu    0.83333   0.21355   0.83333   0.00000  Uiso   1.00
Cu1062 Cu    0.83333   0.11978   0.83333   0.00000  Uiso   1.00
H1063  H     0.70373   0.09158   0.82762   0.00000  Uiso   1.00
H1064  H     0.92829   0.29283   0.94255   0.00000  Uiso   1.00
H1065  H     0.92296   0.09124   0.90964   0.00000  Uiso   1.00
H1066  H     0.92930   0.03957   0.87303   0.00000  Uiso   1.00
H1067  H     0.93035   0.03750   0.93962   0.00000  Uiso   1.00
H1068  H     0.78164   0.24598   0.71009   0.00000  Uiso   1.00
H1069  H     0.82167   0.28922   0.71625   0.00000  Uiso   1.00
H1070  H     0.76845   0.30380   0.70032   0.00000  Uiso   1.00
H1071  H     0.96294   0.24172   0.82785   0.00000  Uiso   1.00
H1072  H     0.96258   0.09183   0.82520   0.00000  Uiso   1.00
H1073  H     0.70408   0.24182   0.83007   0.00000  Uiso   1.00
H1074  H     0.80506   0.04761   0.71610   0.00000  Uiso   1.00
H1075  H     0.77023   0.09529   0.72667   0.00000  Uiso   1.00
H1076  H     0.74919   0.04114   0.71182   0.00000  Uiso   1.00
H1077  H     0.92827   0.29148   0.87605   0.00000  Uiso   1.00
H1078  H     0.91896   0.23980   0.91199   0.00000  Uiso   1.00
N1079  N     0.83333   0.28402   0.83333   0.00000  Uiso   1.00
N1080  N     0.83333   0.04931   0.83333   0.00000  Uiso   1.00
O1081  O     0.77321   0.20625   0.83333   0.00000  Uiso   1.00
O1082  O     0.87038   0.28565   0.91033   0.00000  Uiso   1.00
O1083  O     0.87234   0.04819   0.90879   0.00000  Uiso   1.00
O1084  O     0.77826   0.28449   0.77348   0.00000  Uiso   1.00
O1085  O     0.89345   0.12709   0.83334   0.00000  Uiso   1.00
O1086  O     0.89345   0.20625   0.83334   0.00000  Uiso   1.00
O1087  O     0.77321   0.12709   0.83333   0.00000  Uiso   1.00
O1088  O     0.83333   0.20625   0.76280   0.00000  Uiso   1.00
O1089  O     0.83333   0.12708   0.90387   0.00000  Uiso   1.00
O1090  O     0.83333   0.20625   0.90387   0.00000  Uiso   1.00
O1091  O     0.83333   0.12708   0.76280   0.00000  Uiso   1.00
O1092  O     0.77228   0.04743   0.78294   0.00000  Uiso   1.00
C1093  C     0.08744   0.49998   0.83243   0.00000  Uiso   1.00
C1094  C     0.02137   0.54216   0.82971   0.00000  Uiso   1.00
C1095  C     0.29050   0.50007   0.82938   0.00000  Uiso   1.00
C1096  C     0.04277   0.49999   0.83038   0.00000  Uiso   1.00
C1097  C     0.14032   0.35830   0.80206   0.00000  Uiso   1.00
C1098  C     0.18931   0.64183   0.86833   0.00000  Uiso   1.00
C1099  C     0.18984   0.35823   0.86783   0.00000  Uiso   1.00
C1100  C     0.14155   0.64178   0.80068   0.00000  Uiso   1.00
C1101  C     0.10864   0.39098   0.73238   0.00000  Uiso   1.00
C1102  C     0.24650   0.61093   0.90917   0.00000  Uiso   1.00
C1103  C     0.24874   0.38716   0.90671   0.00000  Uiso   1.00
C1104  C     0.24587   0.50003   0.83193   0.00000  Uiso   1.00
C1105  C     0.12207   0.61482   0.72344   0.00000  Uiso   1.00
C1106  C     0.16691   0.50002   0.74031   0.00000  Uiso   1.00
C1107  C     0.16687   0.49997   0.92637   0.00000  Uiso   1.00
C1108  C     0.16705   0.49999   0.68855   0.00000  Uiso   1.00
C1109  C     0.16701   0.49994   0.97813   0.00000  Uiso   1.00
C1110  C     0.02118   0.45790   0.82833   0.00000  Uiso   1.00
C1111  C     0.31211   0.54215   0.82887   0.00000  Uiso   1.00
C1112  C     0.31191   0.45800   0.82743   0.00000  Uiso   1.00
Cu1113 Cu    0.16667   0.54689   0.83333   0.00000  Uiso   1.00
Cu1114 Cu    0.16667   0.45311   0.83333   0.00000  Uiso   1.00
H1115  H     0.03706   0.42491   0.82762   0.00000  Uiso   1.00
H1116  H     0.26162   0.62616   0.94255   0.00000  Uiso   1.00
H1117  H     0.25630   0.42458   0.90964   0.00000  Uiso   1.00
H1118  H     0.26263   0.37291   0.87303   0.00000  Uiso   1.00
H1119  H     0.26369   0.37084   0.93962   0.00000  Uiso   1.00
H1120  H     0.11497   0.57931   0.71009   0.00000  Uiso   1.00
H1121  H     0.15500   0.62255   0.71625   0.00000  Uiso   1.00
H1122  H     0.10178   0.63714   0.70032   0.00000  Uiso   1.00
H1123  H     0.29628   0.57506   0.82785   0.00000  Uiso   1.00
H1124  H     0.29591   0.42517   0.82520   0.00000  Uiso   1.00
H1125  H     0.03742   0.57515   0.83007   0.00000  Uiso   1.00
H1126  H     0.13840   0.38094   0.71610   0.00000  Uiso   1.00
H1127  H     0.10356   0.42862   0.72667   0.00000  Uiso   1.00
H1128  H     0.08253   0.37447   0.71182   0.00000  Uiso   1.00
H1129  H     0.26161   0.62482   0.87605   0.00000  Uiso   1.00
H1130  H     0.25229   0.57313   0.91199   0.00000  Uiso   1.00
N1131  N     0.16667   0.61736   0.83333   0.00000  Uiso   1.00
N1132  N     0.16667   0.38264   0.83333   0.00000  Uiso   1.00
O1133  O     0.10655   0.53958   0.83333   0.00000  Uiso   1.00
O1134  O     0.20372   0.61898   0.91033   0.00000  Uiso   1.00
O1135  O     0.20567   0.38152   0.90879   0.00000  Uiso   1.00
O1136  O     0.11159   0.61783   0.77348   0.00000  Uiso   1.00
O1137  O     0.22679   0.46042   0.83334   0.00000  Uiso   1.00
O1138  O     0.22679   0.53958   0.83334   0.00000  Uiso   1.00
O1139  O     0.10655   0.46042   0.83333   0.00000  Uiso   1.00
O1140  O     0.16667   0.53959   0.76280   0.00000  Uiso   1.00
O1141  O     0.16667   0.46041   0.90387   0.00000  Uiso   1.00
O1142  O     0.16667   0.53959   0.90387   0.00000  Uiso   1.00
O1143  O     0.16667   0.46041   0.76280   0.00000  Uiso   1.00
O1144  O     0.10561   0.38076   0.78294   0.00000  Uiso   1.00
C1145  C     0.42077   0.49998   0.83243   0.00000  Uiso   1.00
C1146  C     0.35470   0.54216   0.82971   0.00000  Uiso   1.00
C1147  C     0.62384   0.50007   0.82938   0.00000  Uiso   1.00
C1148  C     0.37611   0.49999   0.83038   0.00000  Uiso   1.00
C1149  C     0.47366   0.35830   0.80206   0.00000  Uiso   1.00
C1150  C     0.52264   0.64183   0.86833   0.00000  Uiso   1.00
C1151  C     0.52317   0.35823   0.86783   0.00000  Uiso   1.00
C1152  C     0.47488   0.64178   0.80068   0.00000  Uiso   1.00
C1153  C     0.44198   0.39098   0.73238   0.00000  Uiso   1.00
C1154  C     0.57984   0.61093   0.90917   0.00000  Uiso   1.00
C1155  C     0.58207   0.38716   0.90671   0.00000  Uiso   1.00
C1156  C     0.57920   0.50003   0.83193   0.00000  Uiso   1.00
C1157  C     0.45540   0.61482   0.72344   0.00000  Uiso   1.00
C1158  C     0.50024   0.50002   0.74031   0.00000  Uiso   1.00
C1159  C     0.50020   0.49997   0.92637   0.00000  Uiso   1.00
C1160  C     0.50038   0.49999   0.68855   0.00000  Uiso   1.00
C1161  C     0.50034   0.49994   0.97813   0.00000  Uiso   1.00
C1162  C     0.35451   0.45790   0.82833   0.00000  Uiso   1.00
C1163  C     0.64544   0.54215   0.82887   0.00000  Uiso   1.00
C1164  C     0.64525   0.45800   0.82743   0.00000  Uiso   1.00
Cu1165 Cu    0.50000   0.54689   0.83333   0.00000  Uiso   1.00
Cu1166 Cu    0.50000   0.45311   0.83333   0.00000  Uiso   1.00
H1167  H     0.37039   0.42491   0.82762   0.00000  Uiso   1.00
H1168  H     0.59495   0.62616   0.94255   0.00000  Uiso   1.00
H1169  H     0.58963   0.42458   0.90964   0.00000  Uiso   1.00
H1170  H     0.59596   0.37291   0.87303   0.00000  Uiso   1.00
H1171  H     0.59702   0.37084   0.93962   0.00000  Uiso   1.00
H1172  H     0.44830   0.57931   0.71009   0.00000  Uiso   1.00
H1173  H     0.48834   0.62255   0.71625   0.00000  Uiso   1.00
H1174  H     0.43512   0.63714   0.70032   0.00000  Uiso   1.00
H1175  H     0.62961   0.57506   0.82785   0.00000  Uiso   1.00
H1176  H     0.62924   0.42517   0.82520   0.00000  Uiso   1.00
H1177  H     0.37075   0.57515   0.83007   0.00000  Uiso   1.00
H1178  H     0.47173   0.38094   0.71610   0.00000  Uiso   1.00
H1179  H     0.43689   0.42862   0.72667   0.00000  Uiso   1.00
H1180  H     0.41586   0.37447   0.71182   0.00000  Uiso   1.00
H1181  H     0.59494   0.62482   0.87605   0.00000  Uiso   1.00
H1182  H     0.58562   0.57313   0.91199   0.00000  Uiso   1.00
N1183  N     0.50000   0.61736   0.83333   0.00000  Uiso   1.00
N1184  N     0.50000   0.38264   0.83333   0.00000  Uiso   1.00
O1185  O     0.43988   0.53958   0.83333   0.00000  Uiso   1.00
O1186  O     0.53705   0.61898   0.91033   0.00000  Uiso   1.00
O1187  O     0.53900   0.38152   0.90879   0.00000  Uiso   1.00
O1188  O     0.44493   0.61783   0.77348   0.00000  Uiso   1.00
O1189  O     0.56012   0.46042   0.83334   0.00000  Uiso   1.00
O1190  O     0.56012   0.53958   0.83334   0.00000  Uiso   1.00
O1191  O     0.43988   0.46042   0.83333   0.00000  Uiso   1.00
O1192  O     0.50000   0.53959   0.76280   0.00000  Uiso   1.00
O1193  O     0.50000   0.46041   0.90387   0.00000  Uiso   1.00
O1194  O     0.50000   0.53959   0.90387   0.00000  Uiso   1.00
O1195  O     0.50000   0.46041   0.76280   0.00000  Uiso   1.00
O1196  O     0.43894   0.38076   0.78294   0.00000  Uiso   1.00
C1197  C     0.75410   0.49998   0.83243   0.00000  Uiso   1.00
C1198  C     0.68804   0.54216   0.82971   0.00000  Uiso   1.00
C1199  C     0.95717   0.50007   0.82938   0.00000  Uiso   1.00
C1200  C     0.70944   0.49999   0.83038   0.00000  Uiso   1.00
C1201  C     0.80699   0.35830   0.80206   0.00000  Uiso   1.00
C1202  C     0.85598   0.64183   0.86833   0.00000  Uiso   1.00
C1203  C     0.85651   0.35823   0.86783   0.00000  Uiso   1.00
C1204  C     0.80822   0.64178   0.80068   0.00000  Uiso   1.00
C1205  C     0.77531   0.39098   0.73238   0.00000  Uiso   1.00
C1206  C     0.91317   0.61093   0.90917   0.00000  Uiso   1.00
C1207  C     0.91541   0.38716   0.90671   0.00000  Uiso   1.00
C1208  C     0.91254   0.50003   0.83193   0.00000  Uiso   1.00
C1209  C     0.78873   0.61482   0.72344   0.00000  Uiso   1.00
C1210  C     0.83357   0.50002   0.74031   0.00000  Uiso   1.00
C1211  C     0.83354   0.49997   0.92637   0.00000  Uiso   1.00
C1212  C     0.83371   0.49999   0.68855   0.00000  Uiso   1.00
C1213  C     0.83368   0.49994   0.97813   0.00000  Uiso   1.00
C1214  C     0.68784   0.45790   0.82833   0.00000  Uiso   1.00
C1215  C     0.97878   0.54215   0.82887   0.00000  Uiso   1.00
C1216  C     0.97858   0.45800   0.82743   0.00000  Uiso   1.00
Cu1217 Cu    0.83333   0.54689   0.83333   0.00000  Uiso   1.00
Cu1218 Cu    0.83333   0.45311   0.83333   0.00000  Uiso   1.00
H1219  H     0.70373   0.42491   0.82762   0.00000  Uiso   1.00
H1220  H     0.92829   0.62616   0.94255   0.00000  Uiso   1.00
H1221  H     0.92296   0.42458   0.90964   0.00000  Uiso   1.00
H1222  H     0.92930   0.37291   0.87303   0.00000  Uiso   1.00
H1223  H     0.93035   0.37084   0.93962   0.00000  Uiso   1.00
H1224  H     0.78164   0.57931   0.71009   0.00000  Uiso   1.00
H1225  H     0.82167   0.62255   0.71625   0.00000  Uiso   1.00
H1226  H     0.76845   0.63714   0.70032   0.00000  Uiso   1.00
H1227  H     0.96294   0.57506   0.82785   0.00000  Uiso   1.00
H1228  H     0.96258   0.42517   0.82520   0.00000  Uiso   1.00
H1229  H     0.70408   0.57515   0.83007   0.00000  Uiso   1.00
H1230  H     0.80506   0.38094   0.71610   0.00000  Uiso   1.00
H1231  H     0.77023   0.42862   0.72667   0.00000  Uiso   1.00
H1232  H     0.74919   0.37447   0.71182   0.00000  Uiso   1.00
H1233  H     0.92827   0.62482   0.87605   0.00000  Uiso   1.00
H1234  H     0.91896   0.57313   0.91199   0.00000  Uiso   1.00
N1235  N     0.83333   0.61736   0.83333   0.00000  Uiso   1.00
N1236  N     0.83333   0.38264   0.83333   0.00000  Uiso   1.00
O1237  O     0.77321   0.53958   0.83333   0.00000  Uiso   1.00
O1238  O     0.87038   0.61898   0.91033   0.00000  Uiso   1.00
O1239  O     0.87234   0.38152   0.90879   0.00000  Uiso   1.00
O1240  O     0.77826   0.61783   0.77348   0.00000  Uiso   1.00
O1241  O     0.89345   0.46042   0.83334   0.00000  Uiso   1.00
O1242  O     0.89345   0.53958   0.83334   0.00000  Uiso   1.00
O1243  O     0.77321   0.46042   0.83333   0.00000  Uiso   1.00
O1244  O     0.83333   0.53959   0.76280   0.00000  Uiso   1.00
O1245  O     0.83333   0.46041   0.90387   0.00000  Uiso   1.00
O1246  O     0.83333   0.53959   0.90387   0.00000  Uiso   1.00
O1247  O     0.83333   0.46041   0.76280   0.00000  Uiso   1.00
O1248  O     0.77228   0.38076   0.78294   0.00000  Uiso   1.00
C1249  C     0.08744   0.83331   0.83243   0.00000  Uiso   1.00
C1250  C     0.02137   0.87549   0.82971   0.00000  Uiso   1.00
C1251  C     0.29050   0.83340   0.82938   0.00000  Uiso   1.00
C1252  C     0.04277   0.83333   0.83038   0.00000  Uiso   1.00
C1253  C     0.14032   0.69164   0.80206   0.00000  Uiso   1.00
C1254  C     0.18931   0.97516   0.86833   0.00000  Uiso   1.00
C1255  C     0.18984   0.69157   0.86783   0.00000  Uiso   1.00
C1256  C     0.14155   0.97512   0.80068   0.00000  Uiso   1.00
C1257  C     0.10864   0.72431   0.73238   0.00000  Uiso   1.00
C1258  C     0.24650   0.94426   0.90917   0.00000  Uiso   1.00
C1259  C     0.24874   0.72049   0.90671   0.00000  Uiso   1.00
C1260  C     0.24587   0.83337   0.83193   0.00000  Uiso   1.00
C1261  C     0.12207   0.94815   0.72344   0.00000  Uiso   1.00
C1262  C     0.16691   0.83335   0.74031   0.00000  Uiso   1.00
C1263  C     0.16687   0.83330   0.92637   0.00000  Uiso   1.00
C1264  C     0.16705   0.83333   0.68855   0.00000  Uiso   1.00
C1265  C     0.16701   0.83327   0.97813   0.00000  Uiso   1.00
C1266  C     0.02118   0.79124   0.82833   0.00000  Uiso   1.00
C1267  C     0.31211   0.87548   0.82887   0.00000  Uiso   1.00
C1268  C     0.31191   0.79133   0.82743   0.00000  Uiso   1.00
Cu1269 Cu    0.16667   0.88022   0.83333   0.00000  Uiso   1.00
Cu1270 Cu    0.16667   0.78645   0.83333   0.00000  Uiso   1.00
H1271  H     0.03706   0.75825   0.82762   0.00000  Uiso   1.00
H1272  H     0.26162   0.95950   0.94255   0.00000  Uiso   1.00
H1273  H     0.25630   0.75791   0.90964   0.00000  Uiso   1.00
H1274  H     0.26263   0.70624   0.87303   0.00000  Uiso   1.00
H1275  H     0.26369   0.70417   0.93962   0.00000  Uiso   1.00
H1276  H     0.11497   0.91264   0.71009   0.00000  Uiso   1.00
H1277  H     0.15500   0.95589   0.71625   0.00000  Uiso   1.00
H1278  H     0.10178   0.97047   0.70032   0.00000  Uiso   1.00
H1279  H     0.29628   0.90839   0.82785   0.00000  Uiso   1.00
H1280  H     0.29591   0.75850   0.82520   0.00000  Uiso   1.00
H1281  H     0.03742   0.90849   0.83007   0.00000  Uiso   1.00
H1282  H     0.13840   0.71428   0.71610   0.00000  Uiso   1.00
H1283  H     0.10356   0.76196   0.72667   0.00000  Uiso   1.00
H1284  H     0.08253   0.70781   0.71182   0.00000  Uiso   1.00
H1285  H     0.26161   0.95815   0.87605   0.00000  Uiso   1.00
H1286  H     0.25229   0.90646   0.91199   0.00000  Uiso   1.00
N1287  N     0.16667   0.95069   0.83333   0.00000  Uiso   1.00
N1288  N     0.16667   0.71598   0.83333   0.00000  Uiso   1.00
O1289  O     0.10655   0.87291   0.83333   0.00000  Uiso   1.00
O1290  O     0.20372   0.95231   0.91033   0.00000  Uiso   1.00
O1291  O     0.20567   0.71486   0.90879   0.00000  Uiso   1.00
O1292  O     0.11159   0.95116   0.77348   0.00000  Uiso   1.00
O1293  O     0.22679   0.79375   0.83334   0.00000  Uiso   1.00
O1294  O     0.22679   0.87291   0.83334   0.00000  Uiso   1.00
O1295  O     0.10655   0.79375   0.83333   0.00000  Uiso   1.00
O1296  O     0.16667   0.87292   0.76280   0.00000  Uiso   1.00
O1297  O     0.16667   0.79375   0.90387   0.00000  Uiso   1.00
O1298  O     0.16667   0.87292   0.90387   0.00000  Uiso   1.00
O1299  O     0.16667   0.79375   0.76280   0.00000  Uiso   1.00
O1300  O     0.10561   0.71410   0.78294   0.00000  Uiso   1.00
C1301  C     0.42077   0.83331   0.83243   0.00000  Uiso   1.00
C1302  C     0.35470   0.87549   0.82971   0.00000  Uiso   1.00
C1303  C     0.62384   0.83340   0.82938   0.00000  Uiso   1.00
C1304  C     0.37611   0.83333   0.83038   0.00000  Uiso   1.00
C1305  C     0.47366   0.69164   0.80206   0.00000  Uiso   1.00
C1306  C     0.52264   0.97516   0.86833   0.00000  Uiso   1.00
C1307  C     0.52317   0.69157   0.86783   0.00000  Uiso   1.00
C1308  C     0.47488   0.97512   0.80068   0.00000  Uiso   1.00
C1309  C     0.44198   0.72431   0.73238   0.00000  Uiso   1.00
C1310  C     0.57984   0.94426   0.90917   0.00000  Uiso   1.00
C1311  C     0.58207   0.72049   0.90671   0.00000  Uiso   1.00
C1312  C     0.57920   0.83337   0.83193   0.00000  Uiso   1.00
C1313  C     0.45540   0.94815   0.72344   0.00000  Uiso   1.00
C1314  C     0.50024   0.83335   0.74031   0.00000  Uiso   1.00
C1315  C     0.50020   0.83330   0.92637   0.00000  Uiso   1.00
C1316  C     0.50038   0.83333   0.68855   0.00000  Uiso   1.00
C1317  C     0.50034   0.83327   0.97813   0.00000  Uiso   1.00
C1318  C     0.35451   0.79124   0.82833   0.00000  Uiso   1.00
C1319  C     0.64544   0.87548   0.82887   0.00000  Uiso   1.00
C1320  C     0.64525   0.79133   0.82743   0.00000  Uiso   1.00
Cu1321 Cu    0.50000   0.88022   0.83333   0.00000  Uiso   1.00
Cu1322 Cu    0.50000   0.78645   0.83333   0.00000  Uiso   1.00
H1323  H     0.37039   0.75825   0.82762   0.00000  Uiso   1.00
H1324  H     0.59495   0.95950   0.94255   0.00000  Uiso   1.00
H1325  H     0.58963   0.75791   0.90964   0.00000  Uiso   1.00
H1326  H     0.59596   0.70624   0.87303   0.00000  Uiso   1.00
H1327  H     0.59702   0.70417   0.93962   0.00000  Uiso   1.00
H1328  H     0.44830   0.91264   0.71009   0.00000  Uiso   1.00
H1329  H     0.48834   0.95589   0.71625   0.00000  Uiso   1.00
H1330  H     0.43512   0.97047   0.70032   0.00000  Uiso   1.00
H1331  H     0.62961   0.90839   0.82785   0.00000  Uiso   1.00
H1332  H     0.62924   0.75850   0.82520   0.00000  Uiso   1.00
H1333  H     0.37075   0.90849   0.83007   0.00000  Uiso   1.00
H1334  H     0.47173   0.71428   0.71610   0.00000  Uiso   1.00
H1335  H     0.43689   0.76196   0.72667   0.00000  Uiso   1.00
H1336  H     0.41586   0.70781   0.71182   0.00000  Uiso   1.00
H1337  H     0.59494   0.95815   0.87605   0.00000  Uiso   1.00
H1338  H     0.58562   0.90646   0.91199   0.00000  Uiso   1.00
N1339  N     0.50000   0.95069   0.83333   0.00000  Uiso   1.00
N1340  N     0.50000   0.71598   0.83333   0.00000  Uiso   1.00
O1341  O     0.43988   0.87291   0.83333   0.00000  Uiso   1.00
O1342  O     0.53705   0.95231   0.91033   0.00000  Uiso   1.00
O1343  O     0.53900   0.71486   0.90879   0.00000  Uiso   1.00
O1344  O     0.44493   0.95116   0.77348   0.00000  Uiso   1.00
O1345  O     0.56012   0.79375   0.83334   0.00000  Uiso   1.00
O1346  O     0.56012   0.87291   0.83334   0.00000  Uiso   1.00
O1347  O     0.43988   0.79375   0.83333   0.00000  Uiso   1.00
O1348  O     0.50000   0.87292   0.76280   0.00000  Uiso   1.00
O1349  O     0.50000   0.79375   0.90387   0.00000  Uiso   1.00
O1350  O     0.50000   0.87292   0.90387   0.00000  Uiso   1.00
O1351  O     0.50000   0.79375   0.76280   0.00000  Uiso   1.00
O1352  O     0.43894   0.71410   0.78294   0.00000  Uiso   1.00
C1353  C     0.75410   0.83331   0.83243   0.00000  Uiso   1.00
C1354  C     0.68804   0.87549   0.82971   0.00000  Uiso   1.00
C1355  C     0.95717   0.83340   0.82938   0.00000  Uiso   1.00
C1356  C     0.70944   0.83333   0.83038   0.00000  Uiso   1.00
C1357  C     0.80699   0.69164   0.80206   0.00000  Uiso   1.00
C1358  C     0.85598   0.97516   0.86833   0.00000  Uiso   1.00
C1359  C     0.85651   0.69157   0.86783   0.00000  Uiso   1.00
C1360  C     0.80822   0.97512   0.80068   0.00000  Uiso   1.00
C1361  C     0.77531   0.72431   0.73238   0.00000  Uiso   1.00
C1362  C     0.91317   0.94426   0.90917   0.00000  Uiso   1.00
C1363  C     0.91541   0.72049   0.90671   0.00000  Uiso   1.00
C1364  C     0.91254   0.83337   0.83193   0.00000  Uiso   1.00
C1365  C     0.78873   0.94815   0.72344   0.00000  Uiso   1.00
C1366  C     0.83357   0.83335   0.74031   0.00000  Uiso   1.00
C1367  C     0.83354   0.83330   0.92637   0.00000  Uiso   1.00
C1368  C     0.83371   0.83333   0.68855   0.00000  Uiso   1.00
C1369  C     0.83368   0.83327   0.97813   0.00000  Uiso   1.00
C1370  C     0.68784   0.79124   0.82833   0.00000  Uiso   1.00
C1371  C     0.97878   0.87548   0.82887   0.00000  Uiso   1.00
C1372  C     0.97858   0.79133   0.82743   0.00000  Uiso   1.00
Cu1373 Cu    0.83333   0.88022   0.83333   0.00000  Uiso   1.00
Cu1374 Cu    0.83333   0.78645   0.83333   0.00000  Uiso   1.00
H1375  H     0.70373   0.75825   0.82762   0.00000  Uiso   1.00
H1376  H     0.92829   0.95950   0.94255   0.00000  Uiso   1.00
H1377  H     0.92296   0.75791   0.90964   0.00000  Uiso   1.00
H1378  H     0.92930   0.70624   0.87303   0.00000  Uiso   1.00
H1379  H     0.93035   0.70417   0.93962   0.00000  Uiso   1.00
H1380  H     0.78164   0.91264   0.71009   0.00000  Uiso   1.00
H1381  H     0.82167   0.95589   0.71625   0.00000  Uiso   1.00
H1382  H     0.76845   0.97047   0.70032   0.00000  Uiso   1.00
H1383  H     0.96294   0.90839   0.82785   0.00000  Uiso   1.00
H1384  H     0.96258   0.75850   0.82520   0.00000  Uiso   1.00
H1385  H     0.70408   0.90849   0.83007   0.00000  Uiso   1.00
H1386  H     0.80506   0.71428   0.71610   0.00000  Uiso   1.00
H1387  H     0.77023   0.76196   0.72667   0.00000  Uiso   1.00
H1388  H     0.74919   0.70781   0.71182   0.00000  Uiso   1.00
H1389  H     0.92827   0.95815   0.87605   0.00000  Uiso   1.00
H1390  H     0.91896   0.90646   0.91199   0.00000  Uiso   1.00
N1391  N     0.83333   0.95069   0.83333   0.00000  Uiso   1.00
N1392  N     0.83333   0.71598   0.83333   0.00000  Uiso   1.00
O1393  O     0.77321   0.87291   0.83333   0.00000  Uiso   1.00
O1394  O     0.87038   0.95231   0.91033   0.00000  Uiso   1.00
O1395  O     0.87234   0.71486   0.90879   0.00000  Uiso   1.00
O1396  O     0.77826   0.95116   0.77348   0.00000  Uiso   1.00
O1397  O     0.89345   0.79375   0.83334   0.00000  Uiso   1.00
O1398  O     0.89345   0.87291   0.83334   0.00000  Uiso   1.00
O1399  O     0.77321   0.79375   0.83333   0.00000  Uiso   1.00
O1400  O     0.83333   0.87292   0.76280   0.00000  Uiso   1.00
O1401  O     0.83333   0.79375   0.90387   0.00000  Uiso   1.00
O1402  O     0.83333   0.87292   0.90387   0.00000  Uiso   1.00
O1403  O     0.83333   0.79375   0.76280   0.00000  Uiso   1.00
O1404  O     0.77228   0.71410   0.78294   0.00000  Uiso   1.00
loop_
_geom_bond_atom_site_label_1
_geom_bond_atom_site_label_2
_geom_bond_distance
_geom_bond_site_symmetry_2
_ccdc_geom_bond_type
C1     C4      1.450   .     S
C1     O41     1.298   .     A
C1     O47     1.299   .     A
C2     C4      1.401   .     A
C2     H33     1.083   .     S
C2     C123    1.383   1_455 S
C3     C20     1.401   .     A
C3     C19     1.400   .     A
C3     C12     1.454   .     S
C4     C18     1.400   .     A
C5     O52     1.386   .     S
C5     N40     1.377   .     A
C5     C320    1.438   1_545 S
C6     O42     1.384   .     S
C6     N39     1.376   .     A
C6     C163    1.433   .     S
C7     N40     1.375   .     A
C7     O43     1.384   .     S
C7     C318    1.433   1_545 S
C8     N39     1.377   .     A
C8     O44     1.385   .     S
C8     C161    1.438   .     S
C9     H36     1.107   .     S
C9     O52     1.411   .     S
C9     H34     1.116   .     S
C9     H35     1.107   .     S
C10    O42     1.411   .     S
C10    H38     1.108   .     S
C10    H37     1.113   .     S
C10    H24     1.107   .     S
C11    O43     1.412   .     S
C11    H27     1.107   .     S
C11    H25     1.108   .     S
C11    H26     1.114   .     S
C12    O45     1.299   .     A
C12    O46     1.300   .     A
C13    H28     1.107   .     S
C13    H30     1.102   .     S
C13    H29     1.116   .     S
C13    O44     1.416   .     S
C14    O51     1.293   .     A
C14    C16     1.406   .     S
C14    O48     1.295   .     A
C15    O49     1.294   .     A
C15    C17     1.406   .     S
C15    O50     1.294   .     A
C16    C953    1.189   1_554 S
C17    C484    1.189   .     S
C18    H23     1.083   .     S
C18    C124    1.383   1_455 S
C19    H31     1.079   .     S
C19    C54     1.383   .     S
C20    H32     1.080   .     S
C20    C70     1.383   .     S
Cu21   N39     2.031   .     S
Cu21   O48     1.928   .     S
Cu21   Cu22    2.702   .     S
Cu21   O41     1.964   .     S
Cu21   O50     1.927   .     S
Cu21   O46     1.965   .     S
Cu22   O51     1.927   .     S
Cu22   O47     1.965   .     S
Cu22   N40     2.031   .     S
Cu22   O45     1.964   .     S
Cu22   O49     1.928   .     S
C53    C56     1.450   .     S
C53    O93     1.298   .     A
C53    O99     1.299   .     A
C54    C56     1.401   .     A
C54    H85     1.083   .     S
C55    C72     1.401   .     A
C55    C71     1.400   .     A
C55    C64     1.454   .     S
C56    C70     1.400   .     A
C57    O104    1.386   .     S
C57    N92     1.377   .     A
C57    C372    1.438   1_545 S
C58    O94     1.384   .     S
C58    N91     1.376   .     A
C58    C215    1.433   .     S
C59    N92     1.375   .     A
C59    O95     1.384   .     S
C59    C370    1.433   1_545 S
C60    N91     1.377   .     A
C60    O96     1.385   .     S
C60    C213    1.438   .     S
C61    H88     1.107   .     S
C61    O104    1.411   .     S
C61    H86     1.116   .     S
C61    H87     1.107   .     S
C62    O94     1.411   .     S
C62    H90     1.108   .     S
C62    H89     1.113   .     S
C62    H76     1.107   .     S
C63    O95     1.412   .     S
C63    H79     1.107   .     S
C63    H77     1.108   .     S
C63    H78     1.114   .     S
C64    O97     1.299   .     A
C64    O98     1.300   .     A
C65    H80     1.107   .     S
C65    H82     1.102   .     S
C65    H81     1.116   .     S
C65    O96     1.416   .     S
C66    O103    1.293   .     A
C66    C68     1.406   .     S
C66    O100    1.295   .     A
C67    O101    1.294   .     A
C67    C69     1.406   .     S
C67    O102    1.294   .     A
C68    C1005   1.189   1_554 S
C69    C536    1.189   .     S
C70    H75     1.083   .     S
C71    H83     1.079   .     S
C71    C106    1.383   .     S
C72    H84     1.080   .     S
C72    C122    1.383   .     S
Cu73   N91     2.031   .     S
Cu73   O100    1.928   .     S
Cu73   Cu74    2.702   .     S
Cu73   O93     1.964   .     S
Cu73   O102    1.927   .     S
Cu73   O98     1.965   .     S
Cu74   O103    1.927   .     S
Cu74   O99     1.965   .     S
Cu74   N92     2.031   .     S
Cu74   O97     1.964   .     S
Cu74   O101    1.928   .     S
C105   C108    1.450   .     S
C105   O145    1.298   .     A
C105   O151    1.299   .     A
C106   C108    1.401   .     A
C106   H137    1.083   .     S
C107   C124    1.401   .     A
C107   C123    1.400   .     A
C107   C116    1.454   .     S
C108   C122    1.400   .     A
C109   O156    1.386   .     S
C109   N144    1.377   .     A
C109   C424    1.438   1_545 S
C110   O146    1.384   .     S
C110   N143    1.376   .     A
C110   C267    1.433   .     S
C111   N144    1.375   .     A
C111   O147    1.384   .     S
C111   C422    1.433   1_545 S
C112   N143    1.377   .     A
C112   O148    1.385   .     S
C112   C265    1.438   .     S
C113   H140    1.107   .     S
C113   O156    1.411   .     S
C113   H138    1.116   .     S
C113   H139    1.107   .     S
C114   O146    1.411   .     S
C114   H142    1.108   .     S
C114   H141    1.113   .     S
C114   H128    1.107   .     S
C115   O147    1.412   .     S
C115   H131    1.107   .     S
C115   H129    1.108   .     S
C115   H130    1.114   .     S
C116   O149    1.299   .     A
C116   O150    1.300   .     A
C117   H132    1.107   .     S
C117   H134    1.102   .     S
C117   H133    1.116   .     S
C117   O148    1.416   .     S
C118   O155    1.293   .     A
C118   C120    1.406   .     S
C118   O152    1.295   .     A
C119   O153    1.294   .     A
C119   C121    1.406   .     S
C119   O154    1.294   .     A
C120   C1057   1.189   1_554 S
C121   C588    1.189   .     S
C122   H127    1.083   .     S
C123   H135    1.079   .     S
C123   C2      1.383   1_655 S
C124   H136    1.080   .     S
C124   C18     1.383   1_655 S
Cu125  N143    2.031   .     S
Cu125  O152    1.928   .     S
Cu125  Cu126   2.702   .     S
Cu125  O145    1.964   .     S
Cu125  O154    1.927   .     S
Cu125  O150    1.965   .     S
Cu126  O155    1.927   .     S
Cu126  O151    1.965   .     S
Cu126  N144    2.031   .     S
Cu126  O149    1.964   .     S
Cu126  O153    1.928   .     S
C157   C160    1.450   .     S
C157   O197    1.298   .     A
C157   O203    1.299   .     A
C158   C160    1.401   .     A
C158   H189    1.083   .     S
C158   C279    1.383   1_455 S
C159   C176    1.401   .     A
C159   C175    1.400   .     A
C159   C168    1.454   .     S
C160   C174    1.400   .     A
C161   O208    1.386   .     S
C161   N196    1.377   .     A
C162   O198    1.384   .     S
C162   N195    1.376   .     A
C162   C319    1.433   .     S
C163   N196    1.375   .     A
C163   O199    1.384   .     S
C164   N195    1.377   .     A
C164   O200    1.385   .     S
C164   C317    1.438   .     S
C165   H192    1.107   .     S
C165   O208    1.411   .     S
C165   H190    1.116   .     S
C165   H191    1.107   .     S
C166   O198    1.411   .     S
C166   H194    1.108   .     S
C166   H193    1.113   .     S
C166   H180    1.107   .     S
C167   O199    1.412   .     S
C167   H183    1.107   .     S
C167   H181    1.108   .     S
C167   H182    1.114   .     S
C168   O201    1.299   .     A
C168   O202    1.300   .     A
C169   H184    1.107   .     S
C169   H186    1.102   .     S
C169   H185    1.116   .     S
C169   O200    1.416   .     S
C170   O207    1.293   .     A
C170   C172    1.406   .     S
C170   O204    1.295   .     A
C171   O205    1.294   .     A
C171   C173    1.406   .     S
C171   O206    1.294   .     A
C172   C1109   1.189   1_554 S
C173   C640    1.189   .     S
C174   H179    1.083   .     S
C174   C280    1.383   1_455 S
C175   H187    1.079   .     S
C175   C210    1.383   .     S
C176   H188    1.080   .     S
C176   C226    1.383   .     S
Cu177  N195    2.031   .     S
Cu177  O204    1.928   .     S
Cu177  Cu178   2.702   .     S
Cu177  O197    1.964   .     S
Cu177  O206    1.927   .     S
Cu177  O202    1.965   .     S
Cu178  O207    1.927   .     S
Cu178  O203    1.965   .     S
Cu178  N196    2.031   .     S
Cu178  O201    1.964   .     S
Cu178  O205    1.928   .     S
C209   C212    1.450   .     S
C209   O249    1.298   .     A
C209   O255    1.299   .     A
C210   C212    1.401   .     A
C210   H241    1.083   .     S
C211   C228    1.401   .     A
C211   C227    1.400   .     A
C211   C220    1.454   .     S
C212   C226    1.400   .     A
C213   O260    1.386   .     S
C213   N248    1.377   .     A
C214   O250    1.384   .     S
C214   N247    1.376   .     A
C214   C371    1.433   .     S
C215   N248    1.375   .     A
C215   O251    1.384   .     S
C216   N247    1.377   .     A
C216   O252    1.385   .     S
C216   C369    1.438   .     S
C217   H244    1.107   .     S
C217   O260    1.411   .     S
C217   H242    1.116   .     S
C217   H243    1.107   .     S
C218   O250    1.411   .     S
C218   H246    1.108   .     S
C218   H245    1.113   .     S
C218   H232    1.107   .     S
C219   O251    1.412   .     S
C219   H235    1.107   .     S
C219   H233    1.108   .     S
C219   H234    1.114   .     S
C220   O253    1.299   .     A
C220   O254    1.300   .     A
C221   H236    1.107   .     S
C221   H238    1.102   .     S
C221   H237    1.116   .     S
C221   O252    1.416   .     S
C222   O259    1.293   .     A
C222   C224    1.406   .     S
C222   O256    1.295   .     A
C223   O257    1.294   .     A
C223   C225    1.406   .     S
C223   O258    1.294   .     A
C224   C1161   1.189   1_554 S
C225   C692    1.189   .     S
C226   H231    1.083   .     S
C227   H239    1.079   .     S
C227   C262    1.383   .     S
C228   H240    1.080   .     S
C228   C278    1.383   .     S
Cu229  N247    2.031   .     S
Cu229  O256    1.928   .     S
Cu229  Cu230   2.702   .     S
Cu229  O249    1.964   .     S
Cu229  O258    1.927   .     S
Cu229  O254    1.965   .     S
Cu230  O259    1.927   .     S
Cu230  O255    1.965   .     S
Cu230  N248    2.031   .     S
Cu230  O253    1.964   .     S
Cu230  O257    1.928   .     S
C261   C264    1.450   .     S
C261   O301    1.298   .     A
C261   O307    1.299   .     A
C262   C264    1.401   .     A
C262   H293    1.083   .     S
C263   C280    1.401   .     A
C263   C279    1.400   .     A
C263   C272    1.454   .     S
C264   C278    1.400   .     A
C265   O312    1.386   .     S
C265   N300    1.377   .     A
C266   O302    1.384   .     S
C266   N299    1.376   .     A
C266   C423    1.433   .     S
C267   N300    1.375   .     A
C267   O303    1.384   .     S
C268   N299    1.377   .     A
C268   O304    1.385   .     S
C268   C421    1.438   .     S
C269   H296    1.107   .     S
C269   O312    1.411   .     S
C269   H294    1.116   .     S
C269   H295    1.107   .     S
C270   O302    1.411   .     S
C270   H298    1.108   .     S
C270   H297    1.113   .     S
C270   H284    1.107   .     S
C271   O303    1.412   .     S
C271   H287    1.107   .     S
C271   H285    1.108   .     S
C271   H286    1.114   .     S
C272   O305    1.299   .     A
C272   O306    1.300   .     A
C273   H288    1.107   .     S
C273   H290    1.102   .     S
C273   H289    1.116   .     S
C273   O304    1.416   .     S
C274   O311    1.293   .     A
C274   C276    1.406   .     S
C274   O308    1.295   .     A
C275   O309    1.294   .     A
C275   C277    1.406   .     S
C275   O310    1.294   .     A
C276   C1213   1.189   1_554 S
C277   C744    1.189   .     S
C278   H283    1.083   .     S
C279   H291    1.079   .     S
C279   C158    1.383   1_655 S
C280   H292    1.080   .     S
C280   C174    1.383   1_655 S
Cu281  N299    2.031   .     S
Cu281  O308    1.928   .     S
Cu281  Cu282   2.702   .     S
Cu281  O301    1.964   .     S
Cu281  O310    1.927   .     S
Cu281  O306    1.965   .     S
Cu282  O311    1.927   .     S
Cu282  O307    1.965   .     S
Cu282  N300    2.031   .     S
Cu282  O305    1.964   .     S
Cu282  O309    1.928   .     S
C313   C316    1.450   .     S
C313   O353    1.298   .     A
C313   O359    1.299   .     A
C314   C316    1.401   .     A
C314   H345    1.083   .     S
C314   C435    1.383   1_455 S
C315   C332    1.401   .     A
C315   C331    1.400   .     A
C315   C324    1.454   .     S
C316   C330    1.400   .     A
C317   O364    1.386   .     S
C317   N352    1.377   .     A
C318   O354    1.384   .     S
C318   N351    1.376   .     A
C318   C7      1.433   1_565 S
C319   N352    1.375   .     A
C319   O355    1.384   .     S
C320   N351    1.377   .     A
C320   O356    1.385   .     S
C320   C5      1.438   1_565 S
C321   H348    1.107   .     S
C321   O364    1.411   .     S
C321   H346    1.116   .     S
C321   H347    1.107   .     S
C322   O354    1.411   .     S
C322   H350    1.108   .     S
C322   H349    1.113   .     S
C322   H336    1.107   .     S
C323   O355    1.412   .     S
C323   H339    1.107   .     S
C323   H337    1.108   .     S
C323   H338    1.114   .     S
C324   O357    1.299   .     A
C324   O358    1.300   .     A
C325   H340    1.107   .     S
C325   H342    1.102   .     S
C325   H341    1.116   .     S
C325   O356    1.416   .     S
C326   O363    1.293   .     A
C326   C328    1.406   .     S
C326   O360    1.295   .     A
C327   O361    1.294   .     A
C327   C329    1.406   .     S
C327   O362    1.294   .     A
C328   C1265   1.189   1_554 S
C329   C796    1.189   .     S
C330   H335    1.083   .     S
C330   C436    1.383   1_455 S
C331   H343    1.079   .     S
C331   C366    1.383   .     S
C332   H344    1.080   .     S
C332   C382    1.383   .     S
Cu333  N351    2.031   .     S
Cu333  O360    1.928   .     S
Cu333  Cu334   2.702   .     S
Cu333  O353    1.964   .     S
Cu333  O362    1.927   .     S
Cu333  O358    1.965   .     S
Cu334  O363    1.927   .     S
Cu334  O359    1.965   .     S
Cu334  N352    2.031   .     S
Cu334  O357    1.964   .     S
Cu334  O361    1.928   .     S
C365   C368    1.450   .     S
C365   O405    1.298   .     A
C365   O411    1.299   .     A
C366   C368    1.401   .     A
C366   H397    1.083   .     S
C367   C384    1.401   .     A
C367   C383    1.400   .     A
C367   C376    1.454   .     S
C368   C382    1.400   .     A
C369   O416    1.386   .     S
C369   N404    1.377   .     A
C370   O406    1.384   .     S
C370   N403    1.376   .     A
C370   C59     1.433   1_565 S
C371   N404    1.375   .     A
C371   O407    1.384   .     S
C372   N403    1.377   .     A
C372   O408    1.385   .     S
C372   C57     1.438   1_565 S
C373   H400    1.107   .     S
C373   O416    1.411   .     S
C373   H398    1.116   .     S
C373   H399    1.107   .     S
C374   O406    1.411   .     S
C374   H402    1.108   .     S
C374   H401    1.113   .     S
C374   H388    1.107   .     S
C375   O407    1.412   .     S
C375   H391    1.107   .     S
C375   H389    1.108   .     S
C375   H390    1.114   .     S
C376   O409    1.299   .     A
C376   O410    1.300   .     A
C377   H392    1.107   .     S
C377   H394    1.102   .     S
C377   H393    1.116   .     S
C377   O408    1.416   .     S
C378   O415    1.293   .     A
C378   C380    1.406   .     S
C378   O412    1.295   .     A
C379   O413    1.294   .     A
C379   C381    1.406   .     S
C379   O414    1.294   .     A
C380   C1317   1.189   1_554 S
C381   C848    1.189   .     S
C382   H387    1.083   .     S
C383   H395    1.079   .     S
C383   C418    1.383   .     S
C384   H396    1.080   .     S
C384   C434    1.383   .     S
Cu385  N403    2.031   .     S
Cu385  O412    1.928   .     S
Cu385  Cu386   2.702   .     S
Cu385  O405    1.964   .     S
Cu385  O414    1.927   .     S
Cu385  O410    1.965   .     S
Cu386  O415    1.927   .     S
Cu386  O411    1.965   .     S
Cu386  N404    2.031   .     S
Cu386  O409    1.964   .     S
Cu386  O413    1.928   .     S
C417   C420    1.450   .     S
C417   O457    1.298   .     A
C417   O463    1.299   .     A
C418   C420    1.401   .     A
C418   H449    1.083   .     S
C419   C436    1.401   .     A
C419   C435    1.400   .     A
C419   C428    1.454   .     S
C420   C434    1.400   .     A
C421   O468    1.386   .     S
C421   N456    1.377   .     A
C422   O458    1.384   .     S
C422   N455    1.376   .     A
C422   C111    1.433   1_565 S
C423   N456    1.375   .     A
C423   O459    1.384   .     S
C424   N455    1.377   .     A
C424   O460    1.385   .     S
C424   C109    1.438   1_565 S
C425   H452    1.107   .     S
C425   O468    1.411   .     S
C425   H450    1.116   .     S
C425   H451    1.107   .     S
C426   O458    1.411   .     S
C426   H454    1.108   .     S
C426   H453    1.113   .     S
C426   H440    1.107   .     S
C427   O459    1.412   .     S
C427   H443    1.107   .     S
C427   H441    1.108   .     S
C427   H442    1.114   .     S
C428   O461    1.299   .     A
C428   O462    1.300   .     A
C429   H444    1.107   .     S
C429   H446    1.102   .     S
C429   H445    1.116   .     S
C429   O460    1.416   .     S
C430   O467    1.293   .     A
C430   C432    1.406   .     S
C430   O464    1.295   .     A
C431   O465    1.294   .     A
C431   C433    1.406   .     S
C431   O466    1.294   .     A
C432   C1369   1.189   1_554 S
C433   C900    1.189   .     S
C434   H439    1.083   .     S
C435   H447    1.079   .     S
C435   C314    1.383   1_655 S
C436   H448    1.080   .     S
C436   C330    1.383   1_655 S
Cu437  N455    2.031   .     S
Cu437  O464    1.928   .     S
Cu437  Cu438   2.702   .     S
Cu437  O457    1.964   .     S
Cu437  O466    1.927   .     S
Cu437  O462    1.965   .     S
Cu438  O467    1.927   .     S
Cu438  O463    1.965   .     S
Cu438  N456    2.031   .     S
Cu438  O461    1.964   .     S
Cu438  O465    1.928   .     S
C469   C472    1.450   .     S
C469   O509    1.298   .     A
C469   O515    1.299   .     A
C470   C472    1.401   .     A
C470   H501    1.083   .     S
C470   C591    1.383   1_455 S
C471   C488    1.401   .     A
C471   C487    1.400   .     A
C471   C480    1.454   .     S
C472   C486    1.400   .     A
C473   O520    1.386   .     S
C473   N508    1.377   .     A
C473   C788    1.438   1_545 S
C474   O510    1.384   .     S
C474   N507    1.376   .     A
C474   C631    1.433   .     S
C475   N508    1.375   .     A
C475   O511    1.384   .     S
C475   C786    1.433   1_545 S
C476   N507    1.377   .     A
C476   O512    1.385   .     S
C476   C629    1.438   .     S
C477   H504    1.107   .     S
C477   O520    1.411   .     S
C477   H502    1.116   .     S
C477   H503    1.107   .     S
C478   O510    1.411   .     S
C478   H506    1.108   .     S
C478   H505    1.113   .     S
C478   H492    1.107   .     S
C479   O511    1.412   .     S
C479   H495    1.107   .     S
C479   H493    1.108   .     S
C479   H494    1.114   .     S
C480   O513    1.299   .     A
C480   O514    1.300   .     A
C481   H496    1.107   .     S
C481   H498    1.102   .     S
C481   H497    1.116   .     S
C481   O512    1.416   .     S
C482   O519    1.293   .     A
C482   C484    1.406   .     S
C482   O516    1.295   .     A
C483   O517    1.294   .     A
C483   C485    1.406   .     S
C483   O518    1.294   .     A
C485   C952    1.189   .     S
C486   H491    1.083   .     S
C486   C592    1.383   1_455 S
C487   H499    1.079   .     S
C487   C522    1.383   .     S
C488   H500    1.080   .     S
C488   C538    1.383   .     S
Cu489  N507    2.031   .     S
Cu489  O516    1.928   .     S
Cu489  Cu490   2.702   .     S
Cu489  O509    1.964   .     S
Cu489  O518    1.927   .     S
Cu489  O514    1.965   .     S
Cu490  O519    1.927   .     S
Cu490  O515    1.965   .     S
Cu490  N508    2.031   .     S
Cu490  O513    1.964   .     S
Cu490  O517    1.928   .     S
C521   C524    1.450   .     S
C521   O561    1.298   .     A
C521   O567    1.299   .     A
C522   C524    1.401   .     A
C522   H553    1.083   .     S
C523   C540    1.401   .     A
C523   C539    1.400   .     A
C523   C532    1.454   .     S
C524   C538    1.400   .     A
C525   O572    1.386   .     S
C525   N560    1.377   .     A
C525   C840    1.438   1_545 S
C526   O562    1.384   .     S
C526   N559    1.376   .     A
C526   C683    1.433   .     S
C527   N560    1.375   .     A
C527   O563    1.384   .     S
C527   C838    1.433   1_545 S
C528   N559    1.377   .     A
C528   O564    1.385   .     S
C528   C681    1.438   .     S
C529   H556    1.107   .     S
C529   O572    1.411   .     S
C529   H554    1.116   .     S
C529   H555    1.107   .     S
C530   O562    1.411   .     S
C530   H558    1.108   .     S
C530   H557    1.113   .     S
C530   H544    1.107   .     S
C531   O563    1.412   .     S
C531   H547    1.107   .     S
C531   H545    1.108   .     S
C531   H546    1.114   .     S
C532   O565    1.299   .     A
C532   O566    1.300   .     A
C533   H548    1.107   .     S
C533   H550    1.102   .     S
C533   H549    1.116   .     S
C533   O564    1.416   .     S
C534   O571    1.293   .     A
C534   C536    1.406   .     S
C534   O568    1.295   .     A
C535   O569    1.294   .     A
C535   C537    1.406   .     S
C535   O570    1.294   .     A
C537   C1004   1.189   .     S
C538   H543    1.083   .     S
C539   H551    1.079   .     S
C539   C574    1.383   .     S
C540   H552    1.080   .     S
C540   C590    1.383   .     S
Cu541  N559    2.031   .     S
Cu541  O568    1.928   .     S
Cu541  Cu542   2.702   .     S
Cu541  O561    1.964   .     S
Cu541  O570    1.927   .     S
Cu541  O566    1.965   .     S
Cu542  O571    1.927   .     S
Cu542  O567    1.965   .     S
Cu542  N560    2.031   .     S
Cu542  O565    1.964   .     S
Cu542  O569    1.928   .     S
C573   C576    1.450   .     S
C573   O613    1.298   .     A
C573   O619    1.299   .     A
C574   C576    1.401   .     A
C574   H605    1.083   .     S
C575   C592    1.401   .     A
C575   C591    1.400   .     A
C575   C584    1.454   .     S
C576   C590    1.400   .     A
C577   O624    1.386   .     S
C577   N612    1.377   .     A
C577   C892    1.438   1_545 S
C578   O614    1.384   .     S
C578   N611    1.376   .     A
C578   C735    1.433   .     S
C579   N612    1.375   .     A
C579   O615    1.384   .     S
C579   C890    1.433   1_545 S
C580   N611    1.377   .     A
C580   O616    1.385   .     S
C580   C733    1.438   .     S
C581   H608    1.107   .     S
C581   O624    1.411   .     S
C581   H606    1.116   .     S
C581   H607    1.107   .     S
C582   O614    1.411   .     S
C582   H610    1.108   .     S
C582   H609    1.113   .     S
C582   H596    1.107   .     S
C583   O615    1.412   .     S
C583   H599    1.107   .     S
C583   H597    1.108   .     S
C583   H598    1.114   .     S
C584   O617    1.299   .     A
C584   O618    1.300   .     A
C585   H600    1.107   .     S
C585   H602    1.102   .     S
C585   H601    1.116   .     S
C585   O616    1.416   .     S
C586   O623    1.293   .     A
C586   C588    1.406   .     S
C586   O620    1.295   .     A
C587   O621    1.294   .     A
C587   C589    1.406   .     S
C587   O622    1.294   .     A
C589   C1056   1.189   .     S
C590   H595    1.083   .     S
C591   H603    1.079   .     S
C591   C470    1.383   1_655 S
C592   H604    1.080   .     S
C592   C486    1.383   1_655 S
Cu593  N611    2.031   .     S
Cu593  O620    1.928   .     S
Cu593  Cu594   2.702   .     S
Cu593  O613    1.964   .     S
Cu593  O622    1.927   .     S
Cu593  O618    1.965   .     S
Cu594  O623    1.927   .     S
Cu594  O619    1.965   .     S
Cu594  N612    2.031   .     S
Cu594  O617    1.964   .     S
Cu594  O621    1.928   .     S
C625   C628    1.450   .     S
C625   O665    1.298   .     A
C625   O671    1.299   .     A
C626   C628    1.401   .     A
C626   H657    1.083   .     S
C626   C747    1.383   1_455 S
C627   C644    1.401   .     A
C627   C643    1.400   .     A
C627   C636    1.454   .     S
C628   C642    1.400   .     A
C629   O676    1.386   .     S
C629   N664    1.377   .     A
C630   O666    1.384   .     S
C630   N663    1.376   .     A
C630   C787    1.433   .     S
C631   N664    1.375   .     A
C631   O667    1.384   .     S
C632   N663    1.377   .     A
C632   O668    1.385   .     S
C632   C785    1.438   .     S
C633   H660    1.107   .     S
C633   O676    1.411   .     S
C633   H658    1.116   .     S
C633   H659    1.107   .     S
C634   O666    1.411   .     S
C634   H662    1.108   .     S
C634   H661    1.113   .     S
C634   H648    1.107   .     S
C635   O667    1.412   .     S
C635   H651    1.107   .     S
C635   H649    1.108   .     S
C635   H650    1.114   .     S
C636   O669    1.299   .     A
C636   O670    1.300   .     A
C637   H652    1.107   .     S
C637   H654    1.102   .     S
C637   H653    1.116   .     S
C637   O668    1.416   .     S
C638   O675    1.293   .     A
C638   C640    1.406   .     S
C638   O672    1.295   .     A
C639   O673    1.294   .     A
C639   C641    1.406   .     S
C639   O674    1.294   .     A
C641   C1108   1.189   .     S
C642   H647    1.083   .     S
C642   C748    1.383   1_455 S
C643   H655    1.079   .     S
C643   C678    1.383   .     S
C644   H656    1.080   .     S
C644   C694    1.383   .     S
Cu645  N663    2.031   .     S
Cu645  O672    1.928   .     S
Cu645  Cu646   2.702   .     S
Cu645  O665    1.964   .     S
Cu645  O674    1.927   .     S
Cu645  O670    1.965   .     S
Cu646  O675    1.927   .     S
Cu646  O671    1.965   .     S
Cu646  N664    2.031   .     S
Cu646  O669    1.964   .     S
Cu646  O673    1.928   .     S
C677   C680    1.450   .     S
C677   O717    1.298   .     A
C677   O723    1.299   .     A
C678   C680    1.401   .     A
C678   H709    1.083   .     S
C679   C696    1.401   .     A
C679   C695    1.400   .     A
C679   C688    1.454   .     S
C680   C694    1.400   .     A
C681   O728    1.386   .     S
C681   N716    1.377   .     A
C682   O718    1.384   .     S
C682   N715    1.376   .     A
C682   C839    1.433   .     S
C683   N716    1.375   .     A
C683   O719    1.384   .     S
C684   N715    1.377   .     A
C684   O720    1.385   .     S
C684   C837    1.438   .     S
C685   H712    1.107   .     S
C685   O728    1.411   .     S
C685   H710    1.116   .     S
C685   H711    1.107   .     S
C686   O718    1.411   .     S
C686   H714    1.108   .     S
C686   H713    1.113   .     S
C686   H700    1.107   .     S
C687   O719    1.412   .     S
C687   H703    1.107   .     S
C687   H701    1.108   .     S
C687   H702    1.114   .     S
C688   O721    1.299   .     A
C688   O722    1.300   .     A
C689   H704    1.107   .     S
C689   H706    1.102   .     S
C689   H705    1.116   .     S
C689   O720    1.416   .     S
C690   O727    1.293   .     A
C690   C692    1.406   .     S
C690   O724    1.295   .     A
C691   O725    1.294   .     A
C691   C693    1.406   .     S
C691   O726    1.294   .     A
C693   C1160   1.189   .     S
C694   H699    1.083   .     S
C695   H707    1.079   .     S
C695   C730    1.383   .     S
C696   H708    1.080   .     S
C696   C746    1.383   .     S
Cu697  N715    2.031   .     S
Cu697  O724    1.928   .     S
Cu697  Cu698   2.702   .     S
Cu697  O717    1.964   .     S
Cu697  O726    1.927   .     S
Cu697  O722    1.965   .     S
Cu698  O727    1.927   .     S
Cu698  O723    1.965   .     S
Cu698  N716    2.031   .     S
Cu698  O721    1.964   .     S
Cu698  O725    1.928   .     S
C729   C732    1.450   .     S
C729   O769    1.298   .     A
C729   O775    1.299   .     A
C730   C732    1.401   .     A
C730   H761    1.083   .     S
C731   C748    1.401   .     A
C731   C747    1.400   .     A
C731   C740    1.454   .     S
C732   C746    1.400   .     A
C733   O780    1.386   .     S
C733   N768    1.377   .     A
C734   O770    1.384   .     S
C734   N767    1.376   .     A
C734   C891    1.433   .     S
C735   N768    1.375   .     A
C735   O771    1.384   .     S
C736   N767    1.377   .     A
C736   O772    1.385   .     S
C736   C889    1.438   .     S
C737   H764    1.107   .     S
C737   O780    1.411   .     S
C737   H762    1.116   .     S
C737   H763    1.107   .     S
C738   O770    1.411   .     S
C738   H766    1.108   .     S
C738   H765    1.113   .     S
C738   H752    1.107   .     S
C739   O771    1.412   .     S
C739   H755    1.107   .     S
C739   H753    1.108   .     S
C739   H754    1.114   .     S
C740   O773    1.299   .     A
C740   O774    1.300   .     A
C741   H756    1.107   .     S
C741   H758    1.102   .     S
C741   H757    1.116   .     S
C741   O772    1.416   .     S
C742   O779    1.293   .     A
C742   C744    1.406   .     S
C742   O776    1.295   .     A
C743   O777    1.294   .     A
C743   C745    1.406   .     S
C743   O778    1.294   .     A
C745   C1212   1.189   .     S
C746   H751    1.083   .     S
C747   H759    1.079   .     S
C747   C626    1.383   1_655 S
C748   H760    1.080   .     S
C748   C642    1.383   1_655 S
Cu749  N767    2.031   .     S
Cu749  O776    1.928   .     S
Cu749  Cu750   2.702   .     S
Cu749  O769    1.964   .     S
Cu749  O778    1.927   .     S
Cu749  O774    1.965   .     S
Cu750  O779    1.927   .     S
Cu750  O775    1.965   .     S
Cu750  N768    2.031   .     S
Cu750  O773    1.964   .     S
Cu750  O777    1.928   .     S
C781   C784    1.450   .     S
C781   O821    1.298   .     A
C781   O827    1.299   .     A
C782   C784    1.401   .     A
C782   H813    1.083   .     S
C782   C903    1.383   1_455 S
C783   C800    1.401   .     A
C783   C799    1.400   .     A
C783   C792    1.454   .     S
C784   C798    1.400   .     A
C785   O832    1.386   .     S
C785   N820    1.377   .     A
C786   O822    1.384   .     S
C786   N819    1.376   .     A
C786   C475    1.433   1_565 S
C787   N820    1.375   .     A
C787   O823    1.384   .     S
C788   N819    1.377   .     A
C788   O824    1.385   .     S
C788   C473    1.438   1_565 S
C789   H816    1.107   .     S
C789   O832    1.411   .     S
C789   H814    1.116   .     S
C789   H815    1.107   .     S
C790   O822    1.411   .     S
C790   H818    1.108   .     S
C790   H817    1.113   .     S
C790   H804    1.107   .     S
C791   O823    1.412   .     S
C791   H807    1.107   .     S
C791   H805    1.108   .     S
C791   H806    1.114   .     S
C792   O825    1.299   .     A
C792   O826    1.300   .     A
C793   H808    1.107   .     S
C793   H810    1.102   .     S
C793   H809    1.116   .     S
C793   O824    1.416   .     S
C794   O831    1.293   .     A
C794   C796    1.406   .     S
C794   O828    1.295   .     A
C795   O829    1.294   .     A
C795   C797    1.406   .     S
C795   O830    1.294   .     A
C797   C1264   1.189   .     S
C798   H803    1.083   .     S
C798   C904    1.383   1_455 S
C799   H811    1.079   .     S
C799   C834    1.383   .     S
C800   H812    1.080   .     S
C800   C850    1.383   .     S
Cu801  N819    2.031   .     S
Cu801  O828    1.928   .     S
Cu801  Cu802   2.702   .     S
Cu801  O821    1.964   .     S
Cu801  O830    1.927   .     S
Cu801  O826    1.965   .     S
Cu802  O831    1.927   .     S
Cu802  O827    1.965   .     S
Cu802  N820    2.031   .     S
Cu802  O825    1.964   .     S
Cu802  O829    1.928   .     S
C833   C836    1.450   .     S
C833   O873    1.298   .     A
C833   O879    1.299   .     A
C834   C836    1.401   .     A
C834   H865    1.083   .     S
C835   C852    1.401   .     A
C835   C851    1.400   .     A
C835   C844    1.454   .     S
C836   C850    1.400   .     A
C837   O884    1.386   .     S
C837   N872    1.377   .     A
C838   O874    1.384   .     S
C838   N871    1.376   .     A
C838   C527    1.433   1_565 S
C839   N872    1.375   .     A
C839   O875    1.384   .     S
C840   N871    1.377   .     A
C840   O876    1.385   .     S
C840   C525    1.438   1_565 S
C841   H868    1.107   .     S
C841   O884    1.411   .     S
C841   H866    1.116   .     S
C841   H867    1.107   .     S
C842   O874    1.411   .     S
C842   H870    1.108   .     S
C842   H869    1.113   .     S
C842   H856    1.107   .     S
C843   O875    1.412   .     S
C843   H859    1.107   .     S
C843   H857    1.108   .     S
C843   H858    1.114   .     S
C844   O877    1.299   .     A
C844   O878    1.300   .     A
C845   H860    1.107   .     S
C845   H862    1.102   .     S
C845   H861    1.116   .     S
C845   O876    1.416   .     S
C846   O883    1.293   .     A
C846   C848    1.406   .     S
C846   O880    1.295   .     A
C847   O881    1.294   .     A
C847   C849    1.406   .     S
C847   O882    1.294   .     A
C849   C1316   1.189   .     S
C850   H855    1.083   .     S
C851   H863    1.079   .     S
C851   C886    1.383   .     S
C852   H864    1.080   .     S
C852   C902    1.383   .     S
Cu853  N871    2.031   .     S
Cu853  O880    1.928   .     S
Cu853  Cu854   2.702   .     S
Cu853  O873    1.964   .     S
Cu853  O882    1.927   .     S
Cu853  O878    1.965   .     S
Cu854  O883    1.927   .     S
Cu854  O879    1.965   .     S
Cu854  N872    2.031   .     S
Cu854  O877    1.964   .     S
Cu854  O881    1.928   .     S
C885   C888    1.450   .     S
C885   O925    1.298   .     A
C885   O931    1.299   .     A
C886   C888    1.401   .     A
C886   H917    1.083   .     S
C887   C904    1.401   .     A
C887   C903    1.400   .     A
C887   C896    1.454   .     S
C888   C902    1.400   .     A
C889   O936    1.386   .     S
C889   N924    1.377   .     A
C890   O926    1.384   .     S
C890   N923    1.376   .     A
C890   C579    1.433   1_565 S
C891   N924    1.375   .     A
C891   O927    1.384   .     S
C892   N923    1.377   .     A
C892   O928    1.385   .     S
C892   C577    1.438   1_565 S
C893   H920    1.107   .     S
C893   O936    1.411   .     S
C893   H918    1.116   .     S
C893   H919    1.107   .     S
C894   O926    1.411   .     S
C894   H922    1.108   .     S
C894   H921    1.113   .     S
C894   H908    1.107   .     S
C895   O927    1.412   .     S
C895   H911    1.107   .     S
C895   H909    1.108   .     S
C895   H910    1.114   .     S
C896   O929    1.299   .     A
C896   O930    1.300   .     A
C897   H912    1.107   .     S
C897   H914    1.102   .     S
C897   H913    1.116   .     S
C897   O928    1.416   .     S
C898   O935    1.293   .     A
C898   C900    1.406   .     S
C898   O932    1.295   .     A
C899   O933    1.294   .     A
C899   C901    1.406   .     S
C899   O934    1.294   .     A
C901   C1368   1.189   .     S
C902   H907    1.083   .     S
C903   H915    1.079   .     S
C903   C782    1.383   1_655 S
C904   H916    1.080   .     S
C904   C798    1.383   1_655 S
Cu905  N923    2.031   .     S
Cu905  O932    1.928   .     S
Cu905  Cu906   2.702   .     S
Cu905  O925    1.964   .     S
Cu905  O934    1.927   .     S
Cu905  O930    1.965   .     S
Cu906  O935    1.927   .     S
Cu906  O931    1.965   .     S
Cu906  N924    2.031   .     S
Cu906  O929    1.964   .     S
Cu906  O933    1.928   .     S
C937   C940    1.450   .     S
C937   O977    1.298   .     A
C937   O983    1.299   .     A
C938   C940    1.401   .     A
C938   H969    1.083   .     S
C938   C1059   1.383   1_455 S
C939   C956    1.401   .     A
C939   C955    1.400   .     A
C939   C948    1.454   .     S
C940   C954    1.400   .     A
C941   O988    1.386   .     S
C941   N976    1.377   .     A
C941   C1256   1.438   1_545 S
C942   O978    1.384   .     S
C942   N975    1.376   .     A
C942   C1099   1.433   .     S
C943   N976    1.375   .     A
C943   O979    1.384   .     S
C943   C1254   1.433   1_545 S
C944   N975    1.377   .     A
C944   O980    1.385   .     S
C944   C1097   1.438   .     S
C945   H972    1.107   .     S
C945   O988    1.411   .     S
C945   H970    1.116   .     S
C945   H971    1.107   .     S
C946   O978    1.411   .     S
C946   H974    1.108   .     S
C946   H973    1.113   .     S
C946   H960    1.107   .     S
C947   O979    1.412   .     S
C947   H963    1.107   .     S
C947   H961    1.108   .     S
C947   H962    1.114   .     S
C948   O981    1.299   .     A
C948   O982    1.300   .     A
C949   H964    1.107   .     S
C949   H966    1.102   .     S
C949   H965    1.116   .     S
C949   O980    1.416   .     S
C950   O987    1.293   .     A
C950   C952    1.406   .     S
C950   O984    1.295   .     A
C951   O985    1.294   .     A
C951   C953    1.406   .     S
C951   O986    1.294   .     A
C953   C16     1.189   1_556 S
C954   H959    1.083   .     S
C954   C1060   1.383   1_455 S
C955   H967    1.079   .     S
C955   C990    1.383   .     S
C956   H968    1.080   .     S
C956   C1006   1.383   .     S
Cu957  N975    2.031   .     S
Cu957  O984    1.928   .     S
Cu957  Cu958   2.702   .     S
Cu957  O977    1.964   .     S
Cu957  O986    1.927   .     S
Cu957  O982    1.965   .     S
Cu958  O987    1.927   .     S
Cu958  O983    1.965   .     S
Cu958  N976    2.031   .     S
Cu958  O981    1.964   .     S
Cu958  O985    1.928   .     S
C989   C992    1.450   .     S
C989   O1029   1.298   .     A
C989   O1035   1.299   .     A
C990   C992    1.401   .     A
C990   H1021   1.083   .     S
C991   C1008   1.401   .     A
C991   C1007   1.400   .     A
C991   C1000   1.454   .     S
C992   C1006   1.400   .     A
C993   O1040   1.386   .     S
C993   N1028   1.377   .     A
C993   C1308   1.438   1_545 S
C994   O1030   1.384   .     S
C994   N1027   1.376   .     A
C994   C1151   1.433   .     S
C995   N1028   1.375   .     A
C995   O1031   1.384   .     S
C995   C1306   1.433   1_545 S
C996   N1027   1.377   .     A
C996   O1032   1.385   .     S
C996   C1149   1.438   .     S
C997   H1024   1.107   .     S
C997   O1040   1.411   .     S
C997   H1022   1.116   .     S
C997   H1023   1.107   .     S
C998   O1030   1.411   .     S
C998   H1026   1.108   .     S
C998   H1025   1.113   .     S
C998   H1012   1.107   .     S
C999   O1031   1.412   .     S
C999   H1015   1.107   .     S
C999   H1013   1.108   .     S
C999   H1014   1.114   .     S
C1000  O1033   1.299   .     A
C1000  O1034   1.300   .     A
C1001  H1016   1.107   .     S
C1001  H1018   1.102   .     S
C1001  H1017   1.116   .     S
C1001  O1032   1.416   .     S
C1002  O1039   1.293   .     A
C1002  C1004   1.406   .     S
C1002  O1036   1.295   .     A
C1003  O1037   1.294   .     A
C1003  C1005   1.406   .     S
C1003  O1038   1.294   .     A
C1005  C68     1.189   1_556 S
C1006  H1011   1.083   .     S
C1007  H1019   1.079   .     S
C1007  C1042   1.383   .     S
C1008  H1020   1.080   .     S
C1008  C1058   1.383   .     S
Cu1009 N1027   2.031   .     S
Cu1009 O1036   1.928   .     S
Cu1009 Cu1010  2.702   .     S
Cu1009 O1029   1.964   .     S
Cu1009 O1038   1.927   .     S
Cu1009 O1034   1.965   .     S
Cu1010 O1039   1.927   .     S
Cu1010 O1035   1.965   .     S
Cu1010 N1028   2.031   .     S
Cu1010 O1033   1.964   .     S
Cu1010 O1037   1.928   .     S
C1041  C1044   1.450   .     S
C1041  O1081   1.298   .     A
C1041  O1087   1.299   .     A
C1042  C1044   1.401   .     A
C1042  H1073   1.083   .     S
C1043  C1060   1.401   .     A
C1043  C1059   1.400   .     A
C1043  C1052   1.454   .     S
C1044  C1058   1.400   .     A
C1045  O1092   1.386   .     S
C1045  N1080   1.377   .     A
C1045  C1360   1.438   1_545 S
C1046  O1082   1.384   .     S
C1046  N1079   1.376   .     A
C1046  C1203   1.433   .     S
C1047  N1080   1.375   .     A
C1047  O1083   1.384   .     S
C1047  C1358   1.433   1_545 S
C1048  N1079   1.377   .     A
C1048  O1084   1.385   .     S
C1048  C1201   1.438   .     S
C1049  H1076   1.107   .     S
C1049  O1092   1.411   .     S
C1049  H1074   1.116   .     S
C1049  H1075   1.107   .     S
C1050  O1082   1.411   .     S
C1050  H1078   1.108   .     S
C1050  H1077   1.113   .     S
C1050  H1064   1.107   .     S
C1051  O1083   1.412   .     S
C1051  H1067   1.107   .     S
C1051  H1065   1.108   .     S
C1051  H1066   1.114   .     S
C1052  O1085   1.299   .     A
C1052  O1086   1.300   .     A
C1053  H1068   1.107   .     S
C1053  H1070   1.102   .     S
C1053  H1069   1.116   .     S
C1053  O1084   1.416   .     S
C1054  O1091   1.293   .     A
C1054  C1056   1.406   .     S
C1054  O1088   1.295   .     A
C1055  O1089   1.294   .     A
C1055  C1057   1.406   .     S
C1055  O1090   1.294   .     A
C1057  C120    1.189   1_556 S
C1058  H1063   1.083   .     S
C1059  H1071   1.079   .     S
C1059  C938    1.383   1_655 S
C1060  H1072   1.080   .     S
C1060  C954    1.383   1_655 S
Cu1061 N1079   2.031   .     S
Cu1061 O1088   1.928   .     S
Cu1061 Cu1062  2.702   .     S
Cu1061 O1081   1.964   .     S
Cu1061 O1090   1.927   .     S
Cu1061 O1086   1.965   .     S
Cu1062 O1091   1.927   .     S
Cu1062 O1087   1.965   .     S
Cu1062 N1080   2.031   .     S
Cu1062 O1085   1.964   .     S
Cu1062 O1089   1.928   .     S
C1093  C1096   1.450   .     S
C1093  O1133   1.298   .     A
C1093  O1139   1.299   .     A
C1094  C1096   1.401   .     A
C1094  H1125   1.083   .     S
C1094  C1215   1.383   1_455 S
C1095  C1112   1.401   .     A
C1095  C1111   1.400   .     A
C1095  C1104   1.454   .     S
C1096  C1110   1.400   .     A
C1097  O1144   1.386   .     S
C1097  N1132   1.377   .     A
C1098  O1134   1.384   .     S
C1098  N1131   1.376   .     A
C1098  C1255   1.433   .     S
C1099  N1132   1.375   .     A
C1099  O1135   1.384   .     S
C1100  N1131   1.377   .     A
C1100  O1136   1.385   .     S
C1100  C1253   1.438   .     S
C1101  H1128   1.107   .     S
C1101  O1144   1.411   .     S
C1101  H1126   1.116   .     S
C1101  H1127   1.107   .     S
C1102  O1134   1.411   .     S
C1102  H1130   1.108   .     S
C1102  H1129   1.113   .     S
C1102  H1116   1.107   .     S
C1103  O1135   1.412   .     S
C1103  H1119   1.107   .     S
C1103  H1117   1.108   .     S
C1103  H1118   1.114   .     S
C1104  O1137   1.299   .     A
C1104  O1138   1.300   .     A
C1105  H1120   1.107   .     S
C1105  H1122   1.102   .     S
C1105  H1121   1.116   .     S
C1105  O1136   1.416   .     S
C1106  O1143   1.293   .     A
C1106  C1108   1.406   .     S
C1106  O1140   1.295   .     A
C1107  O1141   1.294   .     A
C1107  C1109   1.406   .     S
C1107  O1142   1.294   .     A
C1109  C172    1.189   1_556 S
C1110  H1115   1.083   .     S
C1110  C1216   1.383   1_455 S
C1111  H1123   1.079   .     S
C1111  C1146   1.383   .     S
C1112  H1124   1.080   .     S
C1112  C1162   1.383   .     S
Cu1113 N1131   2.031   .     S
Cu1113 O1140   1.928   .     S
Cu1113 Cu1114  2.702   .     S
Cu1113 O1133   1.964   .     S
Cu1113 O1142   1.927   .     S
Cu1113 O1138   1.965   .     S
Cu1114 O1143   1.927   .     S
Cu1114 O1139   1.965   .     S
Cu1114 N1132   2.031   .     S
Cu1114 O1137   1.964   .     S
Cu1114 O1141   1.928   .     S
C1145  C1148   1.450   .     S
C1145  O1185   1.298   .     A
C1145  O1191   1.299   .     A
C1146  C1148   1.401   .     A
C1146  H1177   1.083   .     S
C1147  C1164   1.401   .     A
C1147  C1163   1.400   .     A
C1147  C1156   1.454   .     S
C1148  C1162   1.400   .     A
C1149  O1196   1.386   .     S
C1149  N1184   1.377   .     A
C1150  O1186   1.384   .     S
C1150  N1183   1.376   .     A
C1150  C1307   1.433   .     S
C1151  N1184   1.375   .     A
C1151  O1187   1.384   .     S
C1152  N1183   1.377   .     A
C1152  O1188   1.385   .     S
C1152  C1305   1.438   .     S
C1153  H1180   1.107   .     S
C1153  O1196   1.411   .     S
C1153  H1178   1.116   .     S
C1153  H1179   1.107   .     S
C1154  O1186   1.411   .     S
C1154  H1182   1.108   .     S
C1154  H1181   1.113   .     S
C1154  H1168   1.107   .     S
C1155  O1187   1.412   .     S
C1155  H1171   1.107   .     S
C1155  H1169   1.108   .     S
C1155  H1170   1.114   .     S
C1156  O1189   1.299   .     A
C1156  O1190   1.300   .     A
C1157  H1172   1.107   .     S
C1157  H1174   1.102   .     S
C1157  H1173   1.116   .     S
C1157  O1188   1.416   .     S
C1158  O1195   1.293   .     A
C1158  C1160   1.406   .     S
C1158  O1192   1.295   .     A
C1159  O1193   1.294   .     A
C1159  C1161   1.406   .     S
C1159  O1194   1.294   .     A
C1161  C224    1.189   1_556 S
C1162  H1167   1.083   .     S
C1163  H1175   1.079   .     S
C1163  C1198   1.383   .     S
C1164  H1176   1.080   .     S
C1164  C1214   1.383   .     S
Cu1165 N1183   2.031   .     S
Cu1165 O1192   1.928   .     S
Cu1165 Cu1166  2.702   .     S
Cu1165 O1185   1.964   .     S
Cu1165 O1194   1.927   .     S
Cu1165 O1190   1.965   .     S
Cu1166 O1195   1.927   .     S
Cu1166 O1191   1.965   .     S
Cu1166 N1184   2.031   .     S
Cu1166 O1189   1.964   .     S
Cu1166 O1193   1.928   .     S
C1197  C1200   1.450   .     S
C1197  O1237   1.298   .     A
C1197  O1243   1.299   .     A
C1198  C1200   1.401   .     A
C1198  H1229   1.083   .     S
C1199  C1216   1.401   .     A
C1199  C1215   1.400   .     A
C1199  C1208   1.454   .     S
C1200  C1214   1.400   .     A
C1201  O1248   1.386   .     S
C1201  N1236   1.377   .     A
C1202  O1238   1.384   .     S
C1202  N1235   1.376   .     A
C1202  C1359   1.433   .     S
C1203  N1236   1.375   .     A
C1203  O1239   1.384   .     S
C1204  N1235   1.377   .     A
C1204  O1240   1.385   .     S
C1204  C1357   1.438   .     S
C1205  H1232   1.107   .     S
C1205  O1248   1.411   .     S
C1205  H1230   1.116   .     S
C1205  H1231   1.107   .     S
C1206  O1238   1.411   .     S
C1206  H1234   1.108   .     S
C1206  H1233   1.113   .     S
C1206  H1220   1.107   .     S
C1207  O1239   1.412   .     S
C1207  H1223   1.107   .     S
C1207  H1221   1.108   .     S
C1207  H1222   1.114   .     S
C1208  O1241   1.299   .     A
C1208  O1242   1.300   .     A
C1209  H1224   1.107   .     S
C1209  H1226   1.102   .     S
C1209  H1225   1.116   .     S
C1209  O1240   1.416   .     S
C1210  O1247   1.293   .     A
C1210  C1212   1.406   .     S
C1210  O1244   1.295   .     A
C1211  O1245   1.294   .     A
C1211  C1213   1.406   .     S
C1211  O1246   1.294   .     A
C1213  C276    1.189   1_556 S
C1214  H1219   1.083   .     S
C1215  H1227   1.079   .     S
C1215  C1094   1.383   1_655 S
C1216  H1228   1.080   .     S
C1216  C1110   1.383   1_655 S
Cu1217 N1235   2.031   .     S
Cu1217 O1244   1.928   .     S
Cu1217 Cu1218  2.702   .     S
Cu1217 O1237   1.964   .     S
Cu1217 O1246   1.927   .     S
Cu1217 O1242   1.965   .     S
Cu1218 O1247   1.927   .     S
Cu1218 O1243   1.965   .     S
Cu1218 N1236   2.031   .     S
Cu1218 O1241   1.964   .     S
Cu1218 O1245   1.928   .     S
C1249  C1252   1.450   .     S
C1249  O1289   1.298   .     A
C1249  O1295   1.299   .     A
C1250  C1252   1.401   .     A
C1250  H1281   1.083   .     S
C1250  C1371   1.383   1_455 S
C1251  C1268   1.401   .     A
C1251  C1267   1.400   .     A
C1251  C1260   1.454   .     S
C1252  C1266   1.400   .     A
C1253  O1300   1.386   .     S
C1253  N1288   1.377   .     A
C1254  O1290   1.384   .     S
C1254  N1287   1.376   .     A
C1254  C943    1.433   1_565 S
C1255  N1288   1.375   .     A
C1255  O1291   1.384   .     S
C1256  N1287   1.377   .     A
C1256  O1292   1.385   .     S
C1256  C941    1.438   1_565 S
C1257  H1284   1.107   .     S
C1257  O1300   1.411   .     S
C1257  H1282   1.116   .     S
C1257  H1283   1.107   .     S
C1258  O1290   1.411   .     S
C1258  H1286   1.108   .     S
C1258  H1285   1.113   .     S
C1258  H1272   1.107   .     S
C1259  O1291   1.412   .     S
C1259  H1275   1.107   .     S
C1259  H1273   1.108   .     S
C1259  H1274   1.114   .     S
C1260  O1293   1.299   .     A
C1260  O1294   1.300   .     A
C1261  H1276   1.107   .     S
C1261  H1278   1.102   .     S
C1261  H1277   1.116   .     S
C1261  O1292   1.416   .     S
C1262  O1299   1.293   .     A
C1262  C1264   1.406   .     S
C1262  O1296   1.295   .     A
C1263  O1297   1.294   .     A
C1263  C1265   1.406   .     S
C1263  O1298   1.294   .     A
C1265  C328    1.189   1_556 S
C1266  H1271   1.083   .     S
C1266  C1372   1.383   1_455 S
C1267  H1279   1.079   .     S
C1267  C1302   1.383   .     S
C1268  H1280   1.080   .     S
C1268  C1318   1.383   .     S
Cu1269 N1287   2.031   .     S
Cu1269 O1296   1.928   .     S
Cu1269 Cu1270  2.702   .     S
Cu1269 O1289   1.964   .     S
Cu1269 O1298   1.927   .     S
Cu1269 O1294   1.965   .     S
Cu1270 O1299   1.927   .     S
Cu1270 O1295   1.965   .     S
Cu1270 N1288   2.031   .     S
Cu1270 O1293   1.964   .     S
Cu1270 O1297   1.928   .     S
C1301  C1304   1.450   .     S
C1301  O1341   1.298   .     A
C1301  O1347   1.299   .     A
C1302  C1304   1.401   .     A
C1302  H1333   1.083   .     S
C1303  C1320   1.401   .     A
C1303  C1319   1.400   .     A
C1303  C1312   1.454   .     S
C1304  C1318   1.400   .     A
C1305  O1352   1.386   .     S
C1305  N1340   1.377   .     A
C1306  O1342   1.384   .     S
C1306  N1339   1.376   .     A
C1306  C995    1.433   1_565 S
C1307  N1340   1.375   .     A
C1307  O1343   1.384   .     S
C1308  N1339   1.377   .     A
C1308  O1344   1.385   .     S
C1308  C993    1.438   1_565 S
C1309  H1336   1.107   .     S
C1309  O1352   1.411   .     S
C1309  H1334   1.116   .     S
C1309  H1335   1.107   .     S
C1310  O1342   1.411   .     S
C1310  H1338   1.108   .     S
C1310  H1337   1.113   .     S
C1310  H1324   1.107   .     S
C1311  O1343   1.412   .     S
C1311  H1327   1.107   .     S
C1311  H1325   1.108   .     S
C1311  H1326   1.114   .     S
C1312  O1345   1.299   .     A
C1312  O1346   1.300   .     A
C1313  H1328   1.107   .     S
C1313  H1330   1.102   .     S
C1313  H1329   1.116   .     S
C1313  O1344   1.416   .     S
C1314  O1351   1.293   .     A
C1314  C1316   1.406   .     S
C1314  O1348   1.295   .     A
C1315  O1349   1.294   .     A
C1315  C1317   1.406   .     S
C1315  O1350   1.294   .     A
C1317  C380    1.189   1_556 S
C1318  H1323   1.083   .     S
C1319  H1331   1.079   .     S
C1319  C1354   1.383   .     S
C1320  H1332   1.080   .     S
C1320  C1370   1.383   .     S
Cu1321 N1339   2.031   .     S
Cu1321 O1348   1.928   .     S
Cu1321 Cu1322  2.702   .     S
Cu1321 O1341   1.964   .     S
Cu1321 O1350   1.927   .     S
Cu1321 O1346   1.965   .     S
Cu1322 O1351   1.927   .     S
Cu1322 O1347   1.965   .     S
Cu1322 N1340   2.031   .     S
Cu1322 O1345   1.964   .     S
Cu1322 O1349   1.928   .     S
C1353  C1356   1.450   .     S
C1353  O1393   1.298   .     A
C1353  O1399   1.299   .     A
C1354  C1356   1.401   .     A
C1354  H1385   1.083   .     S
C1355  C1372   1.401   .     A
C1355  C1371   1.400   .     A
C1355  C1364   1.454   .     S
C1356  C1370   1.400   .     A
C1357  O1404   1.386   .     S
C1357  N1392   1.377   .     A
C1358  O1394   1.384   .     S
C1358  N1391   1.376   .     A
C1358  C1047   1.433   1_565 S
C1359  N1392   1.375   .     A
C1359  O1395   1.384   .     S
C1360  N1391   1.377   .     A
C1360  O1396   1.385   .     S
C1360  C1045   1.438   1_565 S
C1361  H1388   1.107   .     S
C1361  O1404   1.411   .     S
C1361  H1386   1.116   .     S
C1361  H1387   1.107   .     S
C1362  O1394   1.411   .     S
C1362  H1390   1.108   .     S
C1362  H1389   1.113   .     S
C1362  H1376   1.107   .     S
C1363  O1395   1.412   .     S
C1363  H1379   1.107   .     S
C1363  H1377   1.108   .     S
C1363  H1378   1.114   .     S
C1364  O1397   1.299   .     A
C1364  O1398   1.300   .     A
C1365  H1380   1.107   .     S
C1365  H1382   1.102   .     S
C1365  H1381   1.116   .     S
C1365  O1396   1.416   .     S
C1366  O1403   1.293   .     A
C1366  C1368   1.406   .     S
C1366  O1400   1.295   .     A
C1367  O1401   1.294   .     A
C1367  C1369   1.406   .     S
C1367  O1402   1.294   .     A
C1369  C432    1.189   1_556 S
C1370  H1375   1.083   .     S
C1371  H1383   1.079   .     S
C1371  C1250   1.383   1_655 S
C1372  H1384   1.080   .     S
C1372  C1266   1.383   1_655 S
Cu1373 N1391   2.031   .     S
Cu1373 O1400   1.928   .     S
Cu1373 Cu1374  2.702   .     S
Cu1373 O1393   1.964   .     S
Cu1373 O1402   1.927   .     S
Cu1373 O1398   1.965   .     S
Cu1374 O1403   1.927   .     S
Cu1374 O1399   1.965   .     S
Cu1374 N1392   2.031   .     S
Cu1374 O1397   1.964   .     S
Cu1374 O1401   1.928   .     S
