data_str_m2_o1_o17_pcu_sym.213
_audit_creation_date              2020-01-03
_audit_creation_method            'Materials Studio'
_symmetry_space_group_name_H-M    'P1'
_symmetry_Int_Tables_number       1
_symmetry_cell_setting            triclinic
loop_
_symmetry_equiv_pos_as_xyz
  x,y,z
_cell_length_a                    32.7688
_cell_length_b                    28.9458
_cell_length_c                    29.9659
_cell_angle_alpha                 89.6903
_cell_angle_beta                  93.0215
_cell_angle_gamma                 89.0128
loop_
_atom_site_label
_atom_site_type_symbol
_atom_site_fract_x
_atom_site_fract_y
_atom_site_fract_z
_atom_site_U_iso_or_equiv
_atom_site_adp_type
_atom_site_occupancy
C1     C     0.08764   0.16712   0.25346   0.00000  Uiso   1.00
C2     C     0.24569   0.16622   0.24653   0.00000  Uiso   1.00
C3     C     0.09157   0.17041   0.01645   0.00000  Uiso   1.00
C4     C     0.24177   0.16292   0.48355   0.00000  Uiso   1.00
C5     C     0.02222   0.12563   0.26145   0.00000  Uiso   1.00
C6     C     0.31111   0.20771   0.23853   0.00000  Uiso   1.00
C7     C     0.31345   0.12360   0.25031   0.00000  Uiso   1.00
C8     C     0.01988   0.20974   0.24965   0.00000  Uiso   1.00
C9     C     0.29066   0.16535   0.24285   0.00000  Uiso   1.00
C10    C     0.04267   0.16799   0.25713   0.00000  Uiso   1.00
C11    C     0.14721   0.02524   0.21580   0.00000  Uiso   1.00
C12    C     0.18612   0.30809   0.28420   0.00000  Uiso   1.00
C13    C     0.18569   0.02406   0.28448   0.00000  Uiso   1.00
C14    C     0.14764   0.30927   0.21552   0.00000  Uiso   1.00
C15    C     0.16615   0.16679   0.16469   0.00000  Uiso   1.00
C16    C     0.16718   0.16654   0.33531   0.00000  Uiso   1.00
C17    C     0.20613   0.16701   0.40880   0.00000  Uiso   1.00
C18    C     0.12721   0.16632   0.09120   0.00000  Uiso   1.00
C19    C     0.16857   0.16620   0.38357   0.00000  Uiso   1.00
C20    C     0.16476   0.16713   0.11643   0.00000  Uiso   1.00
C21    C     0.13139   0.16685   0.40392   0.00000  Uiso   1.00
C22    C     0.20195   0.16649   0.09608   0.00000  Uiso   1.00
C23    C     0.13045   0.16782   0.45013   0.00000  Uiso   1.00
C24    C     0.20288   0.16551   0.04987   0.00000  Uiso   1.00
C25    C     0.16737   0.16681   0.47652   0.00000  Uiso   1.00
C26    C     0.16597   0.16652   0.02348   0.00000  Uiso   1.00
C27    C     0.20556   0.16596   0.45606   0.00000  Uiso   1.00
C28    C     0.12777   0.16737   0.04394   0.00000  Uiso   1.00
C29    C     0.09296   0.17002   0.47020   0.00000  Uiso   1.00
C30    C     0.24038   0.16331   0.02981   0.00000  Uiso   1.00
Cu31   Cu    0.16667   0.21355   0.25000   0.00000  Uiso   1.00
Cu32   Cu    0.16667   0.11978   0.25000   0.00000  Uiso   1.00
H33    H     0.10303   0.16713   0.38344   0.00000  Uiso   1.00
H34    H     0.23031   0.16620   0.11656   0.00000  Uiso   1.00
H35    H     0.06452   0.17180   0.45000   0.00000  Uiso   1.00
H36    H     0.26881   0.16153   0.05000   0.00000  Uiso   1.00
H37    H     0.06180   0.17388   0.02999   0.00000  Uiso   1.00
H38    H     0.27153   0.15944   0.47001   0.00000  Uiso   1.00
N39    N     0.16667   0.28402   0.25000   0.00000  Uiso   1.00
N40    N     0.16667   0.04931   0.25000   0.00000  Uiso   1.00
O41    O     0.10655   0.20625   0.24999   0.00000  Uiso   1.00
O42    O     0.22679   0.12709   0.25001   0.00000  Uiso   1.00
O43    O     0.22679   0.20625   0.25001   0.00000  Uiso   1.00
O44    O     0.10655   0.12709   0.24999   0.00000  Uiso   1.00
O45    O     0.16666   0.20627   0.18513   0.00000  Uiso   1.00
O46    O     0.16668   0.12707   0.31487   0.00000  Uiso   1.00
O47    O     0.16668   0.20627   0.31487   0.00000  Uiso   1.00
O48    O     0.16666   0.12707   0.18513   0.00000  Uiso   1.00
C49    C     0.24473   0.17007   0.38478   0.00000  Uiso   1.00
H50    H     0.24753   0.15255   0.35317   0.00000  Uiso   1.00
O51    O     0.27264   0.19453   0.39838   0.00000  Uiso   1.00
C52    C     0.08861   0.16324   0.11522   0.00000  Uiso   1.00
H53    H     0.08580   0.18075   0.14683   0.00000  Uiso   1.00
O54    O     0.06070   0.13878   0.10162   0.00000  Uiso   1.00
C55    C     0.04466   0.08458   0.28116   0.00000  Uiso   1.00
H56    H     0.06250   0.08813   0.31249   0.00000  Uiso   1.00
O57    O     0.04576   0.04787   0.26140   0.00000  Uiso   1.00
C58    C     0.28867   0.24876   0.21882   0.00000  Uiso   1.00
H59    H     0.27083   0.24522   0.18750   0.00000  Uiso   1.00
O60    O     0.28757   0.28546   0.23859   0.00000  Uiso   1.00
C61    C     0.29406   0.07795   0.24252   0.00000  Uiso   1.00
H62    H     0.27370   0.07316   0.21321   0.00000  Uiso   1.00
O63    O     0.29967   0.04589   0.26887   0.00000  Uiso   1.00
C64    C     0.03925   0.25539   0.25741   0.00000  Uiso   1.00
H65    H     0.05962   0.26020   0.28672   0.00000  Uiso   1.00
O66    O     0.03363   0.28743   0.23106   0.00000  Uiso   1.00
C67    C     0.12454   0.04979   0.17865   0.00000  Uiso   1.00
O68    O     0.09083   0.06679   0.18408   0.00000  Uiso   1.00
O69    O     0.14088   0.05091   0.13649   0.00000  Uiso   1.00
H70    H     0.12186   0.06658   0.11310   0.00000  Uiso   1.00
C71    C     0.20879   0.28355   0.32136   0.00000  Uiso   1.00
O72    O     0.24249   0.26653   0.31592   0.00000  Uiso   1.00
O73    O     0.19245   0.28244   0.36351   0.00000  Uiso   1.00
H74    H     0.21147   0.26677   0.38691   0.00000  Uiso   1.00
C75    C     0.20518   0.04737   0.32357   0.00000  Uiso   1.00
O76    O     0.23721   0.06760   0.32033   0.00000  Uiso   1.00
O77    O     0.18698   0.04538   0.36469   0.00000  Uiso   1.00
H78    H     0.20322   0.06216   0.38915   0.00000  Uiso   1.00
C79    C     0.12817   0.28597   0.17642   0.00000  Uiso   1.00
O80    O     0.09615   0.26571   0.17966   0.00000  Uiso   1.00
O81    O     0.14638   0.28797   0.13530   0.00000  Uiso   1.00
H82    H     0.13015   0.27119   0.11084   0.00000  Uiso   1.00
C83    C     0.42098   0.16712   0.25346   0.00000  Uiso   1.00
C84    C     0.57902   0.16622   0.24653   0.00000  Uiso   1.00
C85    C     0.42490   0.17041   0.01645   0.00000  Uiso   1.00
C86    C     0.57510   0.16292   0.48355   0.00000  Uiso   1.00
C87    C     0.35555   0.12563   0.26145   0.00000  Uiso   1.00
C88    C     0.64444   0.20771   0.23853   0.00000  Uiso   1.00
C89    C     0.64678   0.12360   0.25031   0.00000  Uiso   1.00
C90    C     0.35321   0.20974   0.24965   0.00000  Uiso   1.00
C91    C     0.62399   0.16535   0.24285   0.00000  Uiso   1.00
C92    C     0.37600   0.16799   0.25713   0.00000  Uiso   1.00
C93    C     0.48054   0.02524   0.21580   0.00000  Uiso   1.00
C94    C     0.51946   0.30809   0.28420   0.00000  Uiso   1.00
C95    C     0.51902   0.02406   0.28448   0.00000  Uiso   1.00
C96    C     0.48098   0.30927   0.21552   0.00000  Uiso   1.00
C97    C     0.49948   0.16679   0.16469   0.00000  Uiso   1.00
C98    C     0.50052   0.16654   0.33531   0.00000  Uiso   1.00
C99    C     0.53946   0.16701   0.40880   0.00000  Uiso   1.00
C100   C     0.46054   0.16632   0.09120   0.00000  Uiso   1.00
C101   C     0.50190   0.16620   0.38357   0.00000  Uiso   1.00
C102   C     0.49810   0.16713   0.11643   0.00000  Uiso   1.00
C103   C     0.46472   0.16685   0.40392   0.00000  Uiso   1.00
C104   C     0.53528   0.16649   0.09608   0.00000  Uiso   1.00
C105   C     0.46379   0.16782   0.45013   0.00000  Uiso   1.00
C106   C     0.53622   0.16551   0.04987   0.00000  Uiso   1.00
C107   C     0.50070   0.16681   0.47652   0.00000  Uiso   1.00
C108   C     0.49931   0.16652   0.02348   0.00000  Uiso   1.00
C109   C     0.53890   0.16596   0.45606   0.00000  Uiso   1.00
C110   C     0.46111   0.16737   0.04394   0.00000  Uiso   1.00
C111   C     0.42630   0.17002   0.47020   0.00000  Uiso   1.00
C112   C     0.57371   0.16331   0.02981   0.00000  Uiso   1.00
Cu113  Cu    0.50000   0.21355   0.25000   0.00000  Uiso   1.00
Cu114  Cu    0.50000   0.11978   0.25000   0.00000  Uiso   1.00
H115   H     0.43636   0.16713   0.38344   0.00000  Uiso   1.00
H116   H     0.56364   0.16620   0.11656   0.00000  Uiso   1.00
H117   H     0.39786   0.17180   0.45000   0.00000  Uiso   1.00
H118   H     0.60215   0.16153   0.05000   0.00000  Uiso   1.00
H119   H     0.39514   0.17388   0.02999   0.00000  Uiso   1.00
H120   H     0.60487   0.15944   0.47001   0.00000  Uiso   1.00
N121   N     0.50000   0.28402   0.25000   0.00000  Uiso   1.00
N122   N     0.50000   0.04931   0.25000   0.00000  Uiso   1.00
O123   O     0.43988   0.20625   0.24999   0.00000  Uiso   1.00
O124   O     0.56012   0.12709   0.25001   0.00000  Uiso   1.00
O125   O     0.56012   0.20625   0.25001   0.00000  Uiso   1.00
O126   O     0.43988   0.12709   0.24999   0.00000  Uiso   1.00
O127   O     0.49999   0.20627   0.18513   0.00000  Uiso   1.00
O128   O     0.50001   0.12707   0.31487   0.00000  Uiso   1.00
O129   O     0.50001   0.20627   0.31487   0.00000  Uiso   1.00
O130   O     0.49999   0.12707   0.18513   0.00000  Uiso   1.00
C131   C     0.57806   0.17007   0.38478   0.00000  Uiso   1.00
H132   H     0.58086   0.15255   0.35317   0.00000  Uiso   1.00
O133   O     0.60597   0.19453   0.39838   0.00000  Uiso   1.00
C134   C     0.42194   0.16324   0.11522   0.00000  Uiso   1.00
H135   H     0.41914   0.18075   0.14683   0.00000  Uiso   1.00
O136   O     0.39404   0.13878   0.10162   0.00000  Uiso   1.00
C137   C     0.37799   0.08458   0.28116   0.00000  Uiso   1.00
H138   H     0.39583   0.08813   0.31249   0.00000  Uiso   1.00
O139   O     0.37909   0.04787   0.26140   0.00000  Uiso   1.00
C140   C     0.62200   0.24876   0.21882   0.00000  Uiso   1.00
H141   H     0.60417   0.24522   0.18750   0.00000  Uiso   1.00
O142   O     0.62090   0.28546   0.23859   0.00000  Uiso   1.00
C143   C     0.62740   0.07795   0.24252   0.00000  Uiso   1.00
H144   H     0.60703   0.07316   0.21321   0.00000  Uiso   1.00
O145   O     0.63301   0.04589   0.26887   0.00000  Uiso   1.00
C146   C     0.37259   0.25539   0.25741   0.00000  Uiso   1.00
H147   H     0.39295   0.26020   0.28672   0.00000  Uiso   1.00
O148   O     0.36696   0.28743   0.23106   0.00000  Uiso   1.00
C149   C     0.45788   0.04979   0.17865   0.00000  Uiso   1.00
O150   O     0.42417   0.06679   0.18408   0.00000  Uiso   1.00
O151   O     0.47422   0.05091   0.13649   0.00000  Uiso   1.00
H152   H     0.45519   0.06658   0.11310   0.00000  Uiso   1.00
C153   C     0.54212   0.28355   0.32136   0.00000  Uiso   1.00
O154   O     0.57582   0.26653   0.31592   0.00000  Uiso   1.00
O155   O     0.52578   0.28244   0.36351   0.00000  Uiso   1.00
H156   H     0.54481   0.26677   0.38691   0.00000  Uiso   1.00
C157   C     0.53851   0.04737   0.32357   0.00000  Uiso   1.00
O158   O     0.57054   0.06760   0.32033   0.00000  Uiso   1.00
O159   O     0.52031   0.04538   0.36469   0.00000  Uiso   1.00
H160   H     0.53655   0.06216   0.38915   0.00000  Uiso   1.00
C161   C     0.46151   0.28597   0.17642   0.00000  Uiso   1.00
O162   O     0.42949   0.26571   0.17966   0.00000  Uiso   1.00
O163   O     0.47971   0.28797   0.13530   0.00000  Uiso   1.00
H164   H     0.46348   0.27119   0.11084   0.00000  Uiso   1.00
C165   C     0.75431   0.16712   0.25346   0.00000  Uiso   1.00
C166   C     0.91235   0.16622   0.24653   0.00000  Uiso   1.00
C167   C     0.75824   0.17041   0.01645   0.00000  Uiso   1.00
C168   C     0.90843   0.16292   0.48355   0.00000  Uiso   1.00
C169   C     0.68889   0.12563   0.26145   0.00000  Uiso   1.00
C170   C     0.97777   0.20771   0.23853   0.00000  Uiso   1.00
C171   C     0.98012   0.12360   0.25031   0.00000  Uiso   1.00
C172   C     0.68654   0.20974   0.24965   0.00000  Uiso   1.00
C173   C     0.95733   0.16535   0.24285   0.00000  Uiso   1.00
C174   C     0.70933   0.16799   0.25713   0.00000  Uiso   1.00
C175   C     0.81387   0.02524   0.21580   0.00000  Uiso   1.00
C176   C     0.85279   0.30809   0.28420   0.00000  Uiso   1.00
C177   C     0.85236   0.02406   0.28448   0.00000  Uiso   1.00
C178   C     0.81431   0.30927   0.21552   0.00000  Uiso   1.00
C179   C     0.83282   0.16679   0.16469   0.00000  Uiso   1.00
C180   C     0.83385   0.16654   0.33531   0.00000  Uiso   1.00
C181   C     0.87279   0.16701   0.40880   0.00000  Uiso   1.00
C182   C     0.79387   0.16632   0.09120   0.00000  Uiso   1.00
C183   C     0.83524   0.16620   0.38357   0.00000  Uiso   1.00
C184   C     0.83143   0.16713   0.11643   0.00000  Uiso   1.00
C185   C     0.79805   0.16685   0.40392   0.00000  Uiso   1.00
C186   C     0.86862   0.16649   0.09608   0.00000  Uiso   1.00
C187   C     0.79712   0.16782   0.45013   0.00000  Uiso   1.00
C188   C     0.86955   0.16551   0.04987   0.00000  Uiso   1.00
C189   C     0.83403   0.16681   0.47652   0.00000  Uiso   1.00
C190   C     0.83264   0.16652   0.02348   0.00000  Uiso   1.00
C191   C     0.87223   0.16596   0.45606   0.00000  Uiso   1.00
C192   C     0.79444   0.16737   0.04394   0.00000  Uiso   1.00
C193   C     0.75963   0.17002   0.47020   0.00000  Uiso   1.00
C194   C     0.90704   0.16331   0.02981   0.00000  Uiso   1.00
Cu195  Cu    0.83333   0.21355   0.25000   0.00000  Uiso   1.00
Cu196  Cu    0.83333   0.11978   0.25000   0.00000  Uiso   1.00
H197   H     0.76970   0.16713   0.38344   0.00000  Uiso   1.00
H198   H     0.89697   0.16620   0.11656   0.00000  Uiso   1.00
H199   H     0.73119   0.17180   0.45000   0.00000  Uiso   1.00
H200   H     0.93548   0.16153   0.05000   0.00000  Uiso   1.00
H201   H     0.72847   0.17388   0.02999   0.00000  Uiso   1.00
H202   H     0.93820   0.15944   0.47001   0.00000  Uiso   1.00
N203   N     0.83333   0.28402   0.25000   0.00000  Uiso   1.00
N204   N     0.83333   0.04931   0.25000   0.00000  Uiso   1.00
O205   O     0.77321   0.20625   0.24999   0.00000  Uiso   1.00
O206   O     0.89345   0.12709   0.25001   0.00000  Uiso   1.00
O207   O     0.89345   0.20625   0.25001   0.00000  Uiso   1.00
O208   O     0.77321   0.12709   0.24999   0.00000  Uiso   1.00
O209   O     0.83332   0.20627   0.18513   0.00000  Uiso   1.00
O210   O     0.83334   0.12707   0.31487   0.00000  Uiso   1.00
O211   O     0.83334   0.20627   0.31487   0.00000  Uiso   1.00
O212   O     0.83332   0.12707   0.18513   0.00000  Uiso   1.00
C213   C     0.91139   0.17007   0.38478   0.00000  Uiso   1.00
H214   H     0.91419   0.15255   0.35317   0.00000  Uiso   1.00
O215   O     0.93930   0.19453   0.39838   0.00000  Uiso   1.00
C216   C     0.75527   0.16324   0.11522   0.00000  Uiso   1.00
H217   H     0.75247   0.18075   0.14683   0.00000  Uiso   1.00
O218   O     0.72737   0.13878   0.10162   0.00000  Uiso   1.00
C219   C     0.71132   0.08458   0.28116   0.00000  Uiso   1.00
H220   H     0.72916   0.08813   0.31249   0.00000  Uiso   1.00
O221   O     0.71242   0.04787   0.26140   0.00000  Uiso   1.00
C222   C     0.95533   0.24876   0.21882   0.00000  Uiso   1.00
H223   H     0.93750   0.24522   0.18750   0.00000  Uiso   1.00
O224   O     0.95423   0.28546   0.23859   0.00000  Uiso   1.00
C225   C     0.96073   0.07795   0.24252   0.00000  Uiso   1.00
H226   H     0.94037   0.07316   0.21321   0.00000  Uiso   1.00
O227   O     0.96634   0.04589   0.26887   0.00000  Uiso   1.00
C228   C     0.70592   0.25539   0.25741   0.00000  Uiso   1.00
H229   H     0.72629   0.26020   0.28672   0.00000  Uiso   1.00
O230   O     0.70030   0.28743   0.23106   0.00000  Uiso   1.00
C231   C     0.79121   0.04979   0.17865   0.00000  Uiso   1.00
O232   O     0.75750   0.06679   0.18408   0.00000  Uiso   1.00
O233   O     0.80755   0.05091   0.13649   0.00000  Uiso   1.00
H234   H     0.78852   0.06658   0.11310   0.00000  Uiso   1.00
C235   C     0.87545   0.28355   0.32136   0.00000  Uiso   1.00
O236   O     0.90916   0.26653   0.31592   0.00000  Uiso   1.00
O237   O     0.85912   0.28244   0.36351   0.00000  Uiso   1.00
H238   H     0.87814   0.26677   0.38691   0.00000  Uiso   1.00
C239   C     0.87184   0.04737   0.32357   0.00000  Uiso   1.00
O240   O     0.90387   0.06760   0.32033   0.00000  Uiso   1.00
O241   O     0.85365   0.04538   0.36469   0.00000  Uiso   1.00
H242   H     0.86988   0.06216   0.38915   0.00000  Uiso   1.00
C243   C     0.79484   0.28597   0.17642   0.00000  Uiso   1.00
O244   O     0.76282   0.26571   0.17966   0.00000  Uiso   1.00
O245   O     0.81304   0.28797   0.13530   0.00000  Uiso   1.00
H246   H     0.79681   0.27119   0.11084   0.00000  Uiso   1.00
C247   C     0.08764   0.50045   0.25346   0.00000  Uiso   1.00
C248   C     0.24569   0.49955   0.24653   0.00000  Uiso   1.00
C249   C     0.09157   0.50374   0.01645   0.00000  Uiso   1.00
C250   C     0.24177   0.49625   0.48355   0.00000  Uiso   1.00
C251   C     0.02222   0.45896   0.26145   0.00000  Uiso   1.00
C252   C     0.31111   0.54104   0.23853   0.00000  Uiso   1.00
C253   C     0.31345   0.45693   0.25031   0.00000  Uiso   1.00
C254   C     0.01988   0.54307   0.24965   0.00000  Uiso   1.00
C255   C     0.29066   0.49868   0.24285   0.00000  Uiso   1.00
C256   C     0.04267   0.50132   0.25713   0.00000  Uiso   1.00
C257   C     0.14721   0.35857   0.21580   0.00000  Uiso   1.00
C258   C     0.18612   0.64143   0.28420   0.00000  Uiso   1.00
C259   C     0.18569   0.35739   0.28448   0.00000  Uiso   1.00
C260   C     0.14764   0.64261   0.21552   0.00000  Uiso   1.00
C261   C     0.16615   0.50012   0.16469   0.00000  Uiso   1.00
C262   C     0.16718   0.49988   0.33531   0.00000  Uiso   1.00
C263   C     0.20613   0.50034   0.40880   0.00000  Uiso   1.00
C264   C     0.12721   0.49965   0.09120   0.00000  Uiso   1.00
C265   C     0.16857   0.49953   0.38357   0.00000  Uiso   1.00
C266   C     0.16476   0.50047   0.11643   0.00000  Uiso   1.00
C267   C     0.13139   0.50018   0.40392   0.00000  Uiso   1.00
C268   C     0.20195   0.49982   0.09608   0.00000  Uiso   1.00
C269   C     0.13045   0.50115   0.45013   0.00000  Uiso   1.00
C270   C     0.20288   0.49884   0.04987   0.00000  Uiso   1.00
C271   C     0.16737   0.50014   0.47652   0.00000  Uiso   1.00
C272   C     0.16597   0.49985   0.02348   0.00000  Uiso   1.00
C273   C     0.20556   0.49929   0.45606   0.00000  Uiso   1.00
C274   C     0.12777   0.50070   0.04394   0.00000  Uiso   1.00
C275   C     0.09296   0.50335   0.47020   0.00000  Uiso   1.00
C276   C     0.24038   0.49664   0.02981   0.00000  Uiso   1.00
Cu277  Cu    0.16667   0.54689   0.25000   0.00000  Uiso   1.00
Cu278  Cu    0.16667   0.45311   0.25000   0.00000  Uiso   1.00
H279   H     0.10303   0.50047   0.38344   0.00000  Uiso   1.00
H280   H     0.23031   0.49953   0.11656   0.00000  Uiso   1.00
H281   H     0.06452   0.50513   0.45000   0.00000  Uiso   1.00
H282   H     0.26881   0.49486   0.05000   0.00000  Uiso   1.00
H283   H     0.06180   0.50721   0.02999   0.00000  Uiso   1.00
H284   H     0.27153   0.49278   0.47001   0.00000  Uiso   1.00
N285   N     0.16667   0.61736   0.25000   0.00000  Uiso   1.00
N286   N     0.16667   0.38264   0.25000   0.00000  Uiso   1.00
O287   O     0.10655   0.53958   0.24999   0.00000  Uiso   1.00
O288   O     0.22679   0.46042   0.25001   0.00000  Uiso   1.00
O289   O     0.22679   0.53958   0.25001   0.00000  Uiso   1.00
O290   O     0.10655   0.46042   0.24999   0.00000  Uiso   1.00
O291   O     0.16666   0.53960   0.18513   0.00000  Uiso   1.00
O292   O     0.16668   0.46040   0.31487   0.00000  Uiso   1.00
O293   O     0.16668   0.53960   0.31487   0.00000  Uiso   1.00
O294   O     0.16666   0.46040   0.18513   0.00000  Uiso   1.00
C295   C     0.24473   0.50341   0.38478   0.00000  Uiso   1.00
H296   H     0.24753   0.48588   0.35317   0.00000  Uiso   1.00
O297   O     0.27264   0.52787   0.39838   0.00000  Uiso   1.00
C298   C     0.08861   0.49657   0.11522   0.00000  Uiso   1.00
H299   H     0.08580   0.51409   0.14683   0.00000  Uiso   1.00
O300   O     0.06070   0.47211   0.10162   0.00000  Uiso   1.00
C301   C     0.04466   0.41791   0.28116   0.00000  Uiso   1.00
H302   H     0.06250   0.42146   0.31249   0.00000  Uiso   1.00
O303   O     0.04576   0.38120   0.26140   0.00000  Uiso   1.00
C304   C     0.28867   0.58209   0.21882   0.00000  Uiso   1.00
H305   H     0.27083   0.57855   0.18750   0.00000  Uiso   1.00
O306   O     0.28757   0.61879   0.23859   0.00000  Uiso   1.00
C307   C     0.29406   0.41128   0.24252   0.00000  Uiso   1.00
H308   H     0.27370   0.40649   0.21321   0.00000  Uiso   1.00
O309   O     0.29967   0.37923   0.26887   0.00000  Uiso   1.00
C310   C     0.03925   0.58873   0.25741   0.00000  Uiso   1.00
H311   H     0.05962   0.59353   0.28672   0.00000  Uiso   1.00
O312   O     0.03363   0.62076   0.23106   0.00000  Uiso   1.00
C313   C     0.12454   0.38312   0.17865   0.00000  Uiso   1.00
O314   O     0.09083   0.40013   0.18408   0.00000  Uiso   1.00
O315   O     0.14088   0.38424   0.13649   0.00000  Uiso   1.00
H316   H     0.12186   0.39991   0.11310   0.00000  Uiso   1.00
C317   C     0.20879   0.61688   0.32136   0.00000  Uiso   1.00
O318   O     0.24249   0.59986   0.31592   0.00000  Uiso   1.00
O319   O     0.19245   0.61577   0.36351   0.00000  Uiso   1.00
H320   H     0.21147   0.60011   0.38691   0.00000  Uiso   1.00
C321   C     0.20518   0.38070   0.32357   0.00000  Uiso   1.00
O322   O     0.23721   0.40093   0.32033   0.00000  Uiso   1.00
O323   O     0.18698   0.37871   0.36469   0.00000  Uiso   1.00
H324   H     0.20322   0.39550   0.38915   0.00000  Uiso   1.00
C325   C     0.12817   0.61930   0.17642   0.00000  Uiso   1.00
O326   O     0.09615   0.59904   0.17966   0.00000  Uiso   1.00
O327   O     0.14638   0.62131   0.13530   0.00000  Uiso   1.00
H328   H     0.13015   0.60452   0.11084   0.00000  Uiso   1.00
C329   C     0.42098   0.50045   0.25346   0.00000  Uiso   1.00
C330   C     0.57902   0.49955   0.24653   0.00000  Uiso   1.00
C331   C     0.42490   0.50374   0.01645   0.00000  Uiso   1.00
C332   C     0.57510   0.49625   0.48355   0.00000  Uiso   1.00
C333   C     0.35555   0.45896   0.26145   0.00000  Uiso   1.00
C334   C     0.64444   0.54104   0.23853   0.00000  Uiso   1.00
C335   C     0.64678   0.45693   0.25031   0.00000  Uiso   1.00
C336   C     0.35321   0.54307   0.24965   0.00000  Uiso   1.00
C337   C     0.62399   0.49868   0.24285   0.00000  Uiso   1.00
C338   C     0.37600   0.50132   0.25713   0.00000  Uiso   1.00
C339   C     0.48054   0.35857   0.21580   0.00000  Uiso   1.00
C340   C     0.51946   0.64143   0.28420   0.00000  Uiso   1.00
C341   C     0.51902   0.35739   0.28448   0.00000  Uiso   1.00
C342   C     0.48098   0.64261   0.21552   0.00000  Uiso   1.00
C343   C     0.49948   0.50012   0.16469   0.00000  Uiso   1.00
C344   C     0.50052   0.49988   0.33531   0.00000  Uiso   1.00
C345   C     0.53946   0.50034   0.40880   0.00000  Uiso   1.00
C346   C     0.46054   0.49965   0.09120   0.00000  Uiso   1.00
C347   C     0.50190   0.49953   0.38357   0.00000  Uiso   1.00
C348   C     0.49810   0.50047   0.11643   0.00000  Uiso   1.00
C349   C     0.46472   0.50018   0.40392   0.00000  Uiso   1.00
C350   C     0.53528   0.49982   0.09608   0.00000  Uiso   1.00
C351   C     0.46379   0.50115   0.45013   0.00000  Uiso   1.00
C352   C     0.53622   0.49884   0.04987   0.00000  Uiso   1.00
C353   C     0.50070   0.50014   0.47652   0.00000  Uiso   1.00
C354   C     0.49931   0.49985   0.02348   0.00000  Uiso   1.00
C355   C     0.53890   0.49929   0.45606   0.00000  Uiso   1.00
C356   C     0.46111   0.50070   0.04394   0.00000  Uiso   1.00
C357   C     0.42630   0.50335   0.47020   0.00000  Uiso   1.00
C358   C     0.57371   0.49664   0.02981   0.00000  Uiso   1.00
Cu359  Cu    0.50000   0.54689   0.25000   0.00000  Uiso   1.00
Cu360  Cu    0.50000   0.45311   0.25000   0.00000  Uiso   1.00
H361   H     0.43636   0.50047   0.38344   0.00000  Uiso   1.00
H362   H     0.56364   0.49953   0.11656   0.00000  Uiso   1.00
H363   H     0.39786   0.50513   0.45000   0.00000  Uiso   1.00
H364   H     0.60215   0.49486   0.05000   0.00000  Uiso   1.00
H365   H     0.39514   0.50721   0.02999   0.00000  Uiso   1.00
H366   H     0.60487   0.49278   0.47001   0.00000  Uiso   1.00
N367   N     0.50000   0.61736   0.25000   0.00000  Uiso   1.00
N368   N     0.50000   0.38264   0.25000   0.00000  Uiso   1.00
O369   O     0.43988   0.53958   0.24999   0.00000  Uiso   1.00
O370   O     0.56012   0.46042   0.25001   0.00000  Uiso   1.00
O371   O     0.56012   0.53958   0.25001   0.00000  Uiso   1.00
O372   O     0.43988   0.46042   0.24999   0.00000  Uiso   1.00
O373   O     0.49999   0.53960   0.18513   0.00000  Uiso   1.00
O374   O     0.50001   0.46040   0.31487   0.00000  Uiso   1.00
O375   O     0.50001   0.53960   0.31487   0.00000  Uiso   1.00
O376   O     0.49999   0.46040   0.18513   0.00000  Uiso   1.00
C377   C     0.57806   0.50341   0.38478   0.00000  Uiso   1.00
H378   H     0.58086   0.48588   0.35317   0.00000  Uiso   1.00
O379   O     0.60597   0.52787   0.39838   0.00000  Uiso   1.00
C380   C     0.42194   0.49657   0.11522   0.00000  Uiso   1.00
H381   H     0.41914   0.51409   0.14683   0.00000  Uiso   1.00
O382   O     0.39404   0.47211   0.10162   0.00000  Uiso   1.00
C383   C     0.37799   0.41791   0.28116   0.00000  Uiso   1.00
H384   H     0.39583   0.42146   0.31249   0.00000  Uiso   1.00
O385   O     0.37909   0.38120   0.26140   0.00000  Uiso   1.00
C386   C     0.62200   0.58209   0.21882   0.00000  Uiso   1.00
H387   H     0.60417   0.57855   0.18750   0.00000  Uiso   1.00
O388   O     0.62090   0.61879   0.23859   0.00000  Uiso   1.00
C389   C     0.62740   0.41128   0.24252   0.00000  Uiso   1.00
H390   H     0.60703   0.40649   0.21321   0.00000  Uiso   1.00
O391   O     0.63301   0.37923   0.26887   0.00000  Uiso   1.00
C392   C     0.37259   0.58873   0.25741   0.00000  Uiso   1.00
H393   H     0.39295   0.59353   0.28672   0.00000  Uiso   1.00
O394   O     0.36696   0.62076   0.23106   0.00000  Uiso   1.00
C395   C     0.45788   0.38312   0.17865   0.00000  Uiso   1.00
O396   O     0.42417   0.40013   0.18408   0.00000  Uiso   1.00
O397   O     0.47422   0.38424   0.13649   0.00000  Uiso   1.00
H398   H     0.45519   0.39991   0.11310   0.00000  Uiso   1.00
C399   C     0.54212   0.61688   0.32136   0.00000  Uiso   1.00
O400   O     0.57582   0.59986   0.31592   0.00000  Uiso   1.00
O401   O     0.52578   0.61577   0.36351   0.00000  Uiso   1.00
H402   H     0.54481   0.60011   0.38691   0.00000  Uiso   1.00
C403   C     0.53851   0.38070   0.32357   0.00000  Uiso   1.00
O404   O     0.57054   0.40093   0.32033   0.00000  Uiso   1.00
O405   O     0.52031   0.37871   0.36469   0.00000  Uiso   1.00
H406   H     0.53655   0.39550   0.38915   0.00000  Uiso   1.00
C407   C     0.46151   0.61930   0.17642   0.00000  Uiso   1.00
O408   O     0.42949   0.59904   0.17966   0.00000  Uiso   1.00
O409   O     0.47971   0.62131   0.13530   0.00000  Uiso   1.00
H410   H     0.46348   0.60452   0.11084   0.00000  Uiso   1.00
C411   C     0.75431   0.50045   0.25346   0.00000  Uiso   1.00
C412   C     0.91235   0.49955   0.24653   0.00000  Uiso   1.00
C413   C     0.75824   0.50374   0.01645   0.00000  Uiso   1.00
C414   C     0.90843   0.49625   0.48355   0.00000  Uiso   1.00
C415   C     0.68889   0.45896   0.26145   0.00000  Uiso   1.00
C416   C     0.97777   0.54104   0.23853   0.00000  Uiso   1.00
C417   C     0.98012   0.45693   0.25031   0.00000  Uiso   1.00
C418   C     0.68654   0.54307   0.24965   0.00000  Uiso   1.00
C419   C     0.95733   0.49868   0.24285   0.00000  Uiso   1.00
C420   C     0.70933   0.50132   0.25713   0.00000  Uiso   1.00
C421   C     0.81387   0.35857   0.21580   0.00000  Uiso   1.00
C422   C     0.85279   0.64143   0.28420   0.00000  Uiso   1.00
C423   C     0.85236   0.35739   0.28448   0.00000  Uiso   1.00
C424   C     0.81431   0.64261   0.21552   0.00000  Uiso   1.00
C425   C     0.83282   0.50012   0.16469   0.00000  Uiso   1.00
C426   C     0.83385   0.49988   0.33531   0.00000  Uiso   1.00
C427   C     0.87279   0.50034   0.40880   0.00000  Uiso   1.00
C428   C     0.79387   0.49965   0.09120   0.00000  Uiso   1.00
C429   C     0.83524   0.49953   0.38357   0.00000  Uiso   1.00
C430   C     0.83143   0.50047   0.11643   0.00000  Uiso   1.00
C431   C     0.79805   0.50018   0.40392   0.00000  Uiso   1.00
C432   C     0.86862   0.49982   0.09608   0.00000  Uiso   1.00
C433   C     0.79712   0.50115   0.45013   0.00000  Uiso   1.00
C434   C     0.86955   0.49884   0.04987   0.00000  Uiso   1.00
C435   C     0.83403   0.50014   0.47652   0.00000  Uiso   1.00
C436   C     0.83264   0.49985   0.02348   0.00000  Uiso   1.00
C437   C     0.87223   0.49929   0.45606   0.00000  Uiso   1.00
C438   C     0.79444   0.50070   0.04394   0.00000  Uiso   1.00
C439   C     0.75963   0.50335   0.47020   0.00000  Uiso   1.00
C440   C     0.90704   0.49664   0.02981   0.00000  Uiso   1.00
Cu441  Cu    0.83333   0.54689   0.25000   0.00000  Uiso   1.00
Cu442  Cu    0.83333   0.45311   0.25000   0.00000  Uiso   1.00
H443   H     0.76970   0.50047   0.38344   0.00000  Uiso   1.00
H444   H     0.89697   0.49953   0.11656   0.00000  Uiso   1.00
H445   H     0.73119   0.50513   0.45000   0.00000  Uiso   1.00
H446   H     0.93548   0.49486   0.05000   0.00000  Uiso   1.00
H447   H     0.72847   0.50721   0.02999   0.00000  Uiso   1.00
H448   H     0.93820   0.49278   0.47001   0.00000  Uiso   1.00
N449   N     0.83333   0.61736   0.25000   0.00000  Uiso   1.00
N450   N     0.83333   0.38264   0.25000   0.00000  Uiso   1.00
O451   O     0.77321   0.53958   0.24999   0.00000  Uiso   1.00
O452   O     0.89345   0.46042   0.25001   0.00000  Uiso   1.00
O453   O     0.89345   0.53958   0.25001   0.00000  Uiso   1.00
O454   O     0.77321   0.46042   0.24999   0.00000  Uiso   1.00
O455   O     0.83332   0.53960   0.18513   0.00000  Uiso   1.00
O456   O     0.83334   0.46040   0.31487   0.00000  Uiso   1.00
O457   O     0.83334   0.53960   0.31487   0.00000  Uiso   1.00
O458   O     0.83332   0.46040   0.18513   0.00000  Uiso   1.00
C459   C     0.91139   0.50341   0.38478   0.00000  Uiso   1.00
H460   H     0.91419   0.48588   0.35317   0.00000  Uiso   1.00
O461   O     0.93930   0.52787   0.39838   0.00000  Uiso   1.00
C462   C     0.75527   0.49657   0.11522   0.00000  Uiso   1.00
H463   H     0.75247   0.51409   0.14683   0.00000  Uiso   1.00
O464   O     0.72737   0.47211   0.10162   0.00000  Uiso   1.00
C465   C     0.71132   0.41791   0.28116   0.00000  Uiso   1.00
H466   H     0.72916   0.42146   0.31249   0.00000  Uiso   1.00
O467   O     0.71242   0.38120   0.26140   0.00000  Uiso   1.00
C468   C     0.95533   0.58209   0.21882   0.00000  Uiso   1.00
H469   H     0.93750   0.57855   0.18750   0.00000  Uiso   1.00
O470   O     0.95423   0.61879   0.23859   0.00000  Uiso   1.00
C471   C     0.96073   0.41128   0.24252   0.00000  Uiso   1.00
H472   H     0.94037   0.40649   0.21321   0.00000  Uiso   1.00
O473   O     0.96634   0.37923   0.26887   0.00000  Uiso   1.00
C474   C     0.70592   0.58873   0.25741   0.00000  Uiso   1.00
H475   H     0.72629   0.59353   0.28672   0.00000  Uiso   1.00
O476   O     0.70030   0.62076   0.23106   0.00000  Uiso   1.00
C477   C     0.79121   0.38312   0.17865   0.00000  Uiso   1.00
O478   O     0.75750   0.40013   0.18408   0.00000  Uiso   1.00
O479   O     0.80755   0.38424   0.13649   0.00000  Uiso   1.00
H480   H     0.78852   0.39991   0.11310   0.00000  Uiso   1.00
C481   C     0.87545   0.61688   0.32136   0.00000  Uiso   1.00
O482   O     0.90916   0.59986   0.31592   0.00000  Uiso   1.00
O483   O     0.85912   0.61577   0.36351   0.00000  Uiso   1.00
H484   H     0.87814   0.60011   0.38691   0.00000  Uiso   1.00
C485   C     0.87184   0.38070   0.32357   0.00000  Uiso   1.00
O486   O     0.90387   0.40093   0.32033   0.00000  Uiso   1.00
O487   O     0.85365   0.37871   0.36469   0.00000  Uiso   1.00
H488   H     0.86988   0.39550   0.38915   0.00000  Uiso   1.00
C489   C     0.79484   0.61930   0.17642   0.00000  Uiso   1.00
O490   O     0.76282   0.59904   0.17966   0.00000  Uiso   1.00
O491   O     0.81304   0.62131   0.13530   0.00000  Uiso   1.00
H492   H     0.79681   0.60452   0.11084   0.00000  Uiso   1.00
C493   C     0.08764   0.83379   0.25346   0.00000  Uiso   1.00
C494   C     0.24569   0.83288   0.24653   0.00000  Uiso   1.00
C495   C     0.09157   0.83707   0.01645   0.00000  Uiso   1.00
C496   C     0.24177   0.82959   0.48355   0.00000  Uiso   1.00
C497   C     0.02222   0.79230   0.26145   0.00000  Uiso   1.00
C498   C     0.31111   0.87437   0.23853   0.00000  Uiso   1.00
C499   C     0.31345   0.79027   0.25031   0.00000  Uiso   1.00
C500   C     0.01988   0.87641   0.24965   0.00000  Uiso   1.00
C501   C     0.29066   0.83202   0.24285   0.00000  Uiso   1.00
C502   C     0.04267   0.83466   0.25713   0.00000  Uiso   1.00
C503   C     0.14721   0.69191   0.21580   0.00000  Uiso   1.00
C504   C     0.18612   0.97476   0.28420   0.00000  Uiso   1.00
C505   C     0.18569   0.69073   0.28448   0.00000  Uiso   1.00
C506   C     0.14764   0.97594   0.21552   0.00000  Uiso   1.00
C507   C     0.16615   0.83346   0.16469   0.00000  Uiso   1.00
C508   C     0.16718   0.83321   0.33531   0.00000  Uiso   1.00
C509   C     0.20613   0.83367   0.40880   0.00000  Uiso   1.00
C510   C     0.12721   0.83299   0.09120   0.00000  Uiso   1.00
C511   C     0.16857   0.83287   0.38357   0.00000  Uiso   1.00
C512   C     0.16476   0.83380   0.11643   0.00000  Uiso   1.00
C513   C     0.13139   0.83352   0.40392   0.00000  Uiso   1.00
C514   C     0.20195   0.83315   0.09608   0.00000  Uiso   1.00
C515   C     0.13045   0.83449   0.45013   0.00000  Uiso   1.00
C516   C     0.20288   0.83218   0.04987   0.00000  Uiso   1.00
C517   C     0.16737   0.83348   0.47652   0.00000  Uiso   1.00
C518   C     0.16597   0.83319   0.02348   0.00000  Uiso   1.00
C519   C     0.20556   0.83263   0.45606   0.00000  Uiso   1.00
C520   C     0.12777   0.83403   0.04394   0.00000  Uiso   1.00
C521   C     0.09296   0.83668   0.47020   0.00000  Uiso   1.00
C522   C     0.24038   0.82998   0.02981   0.00000  Uiso   1.00
Cu523  Cu    0.16667   0.88022   0.25000   0.00000  Uiso   1.00
Cu524  Cu    0.16667   0.78645   0.25000   0.00000  Uiso   1.00
H525   H     0.10303   0.83380   0.38344   0.00000  Uiso   1.00
H526   H     0.23031   0.83287   0.11656   0.00000  Uiso   1.00
H527   H     0.06452   0.83847   0.45000   0.00000  Uiso   1.00
H528   H     0.26881   0.82819   0.05000   0.00000  Uiso   1.00
H529   H     0.06180   0.84055   0.02999   0.00000  Uiso   1.00
H530   H     0.27153   0.82611   0.47001   0.00000  Uiso   1.00
N531   N     0.16667   0.95069   0.25000   0.00000  Uiso   1.00
N532   N     0.16667   0.71598   0.25000   0.00000  Uiso   1.00
O533   O     0.10655   0.87291   0.24999   0.00000  Uiso   1.00
O534   O     0.22679   0.79375   0.25001   0.00000  Uiso   1.00
O535   O     0.22679   0.87291   0.25001   0.00000  Uiso   1.00
O536   O     0.10655   0.79375   0.24999   0.00000  Uiso   1.00
O537   O     0.16666   0.87293   0.18513   0.00000  Uiso   1.00
O538   O     0.16668   0.79373   0.31487   0.00000  Uiso   1.00
O539   O     0.16668   0.87293   0.31487   0.00000  Uiso   1.00
O540   O     0.16666   0.79373   0.18513   0.00000  Uiso   1.00
C541   C     0.24473   0.83674   0.38478   0.00000  Uiso   1.00
H542   H     0.24753   0.81922   0.35317   0.00000  Uiso   1.00
O543   O     0.27264   0.86120   0.39838   0.00000  Uiso   1.00
C544   C     0.08861   0.82991   0.11522   0.00000  Uiso   1.00
H545   H     0.08580   0.84742   0.14683   0.00000  Uiso   1.00
O546   O     0.06070   0.80544   0.10162   0.00000  Uiso   1.00
C547   C     0.04466   0.75124   0.28116   0.00000  Uiso   1.00
H548   H     0.06250   0.75480   0.31249   0.00000  Uiso   1.00
O549   O     0.04576   0.71454   0.26140   0.00000  Uiso   1.00
C550   C     0.28867   0.91543   0.21882   0.00000  Uiso   1.00
H551   H     0.27083   0.91188   0.18750   0.00000  Uiso   1.00
O552   O     0.28757   0.95212   0.23859   0.00000  Uiso   1.00
C553   C     0.29406   0.74461   0.24252   0.00000  Uiso   1.00
H554   H     0.27370   0.73983   0.21321   0.00000  Uiso   1.00
O555   O     0.29967   0.71256   0.26887   0.00000  Uiso   1.00
C556   C     0.03925   0.92206   0.25741   0.00000  Uiso   1.00
H557   H     0.05962   0.92687   0.28672   0.00000  Uiso   1.00
O558   O     0.03363   0.95409   0.23106   0.00000  Uiso   1.00
C559   C     0.12454   0.71646   0.17865   0.00000  Uiso   1.00
O560   O     0.09083   0.73346   0.18408   0.00000  Uiso   1.00
O561   O     0.14088   0.71758   0.13649   0.00000  Uiso   1.00
H562   H     0.12186   0.73325   0.11310   0.00000  Uiso   1.00
C563   C     0.20879   0.95021   0.32136   0.00000  Uiso   1.00
O564   O     0.24249   0.93320   0.31592   0.00000  Uiso   1.00
O565   O     0.19245   0.94910   0.36351   0.00000  Uiso   1.00
H566   H     0.21147   0.93344   0.38691   0.00000  Uiso   1.00
C567   C     0.20518   0.71403   0.32357   0.00000  Uiso   1.00
O568   O     0.23721   0.73426   0.32033   0.00000  Uiso   1.00
O569   O     0.18698   0.71205   0.36469   0.00000  Uiso   1.00
H570   H     0.20322   0.72883   0.38915   0.00000  Uiso   1.00
C571   C     0.12817   0.95263   0.17642   0.00000  Uiso   1.00
O572   O     0.09615   0.93237   0.17966   0.00000  Uiso   1.00
O573   O     0.14638   0.95464   0.13530   0.00000  Uiso   1.00
H574   H     0.13015   0.93785   0.11084   0.00000  Uiso   1.00
C575   C     0.42098   0.83379   0.25346   0.00000  Uiso   1.00
C576   C     0.57902   0.83288   0.24653   0.00000  Uiso   1.00
C577   C     0.42490   0.83707   0.01645   0.00000  Uiso   1.00
C578   C     0.57510   0.82959   0.48355   0.00000  Uiso   1.00
C579   C     0.35555   0.79230   0.26145   0.00000  Uiso   1.00
C580   C     0.64444   0.87437   0.23853   0.00000  Uiso   1.00
C581   C     0.64678   0.79027   0.25031   0.00000  Uiso   1.00
C582   C     0.35321   0.87641   0.24965   0.00000  Uiso   1.00
C583   C     0.62399   0.83202   0.24285   0.00000  Uiso   1.00
C584   C     0.37600   0.83466   0.25713   0.00000  Uiso   1.00
C585   C     0.48054   0.69191   0.21580   0.00000  Uiso   1.00
C586   C     0.51946   0.97476   0.28420   0.00000  Uiso   1.00
C587   C     0.51902   0.69073   0.28448   0.00000  Uiso   1.00
C588   C     0.48098   0.97594   0.21552   0.00000  Uiso   1.00
C589   C     0.49948   0.83346   0.16469   0.00000  Uiso   1.00
C590   C     0.50052   0.83321   0.33531   0.00000  Uiso   1.00
C591   C     0.53946   0.83367   0.40880   0.00000  Uiso   1.00
C592   C     0.46054   0.83299   0.09120   0.00000  Uiso   1.00
C593   C     0.50190   0.83287   0.38357   0.00000  Uiso   1.00
C594   C     0.49810   0.83380   0.11643   0.00000  Uiso   1.00
C595   C     0.46472   0.83352   0.40392   0.00000  Uiso   1.00
C596   C     0.53528   0.83315   0.09608   0.00000  Uiso   1.00
C597   C     0.46379   0.83449   0.45013   0.00000  Uiso   1.00
C598   C     0.53622   0.83218   0.04987   0.00000  Uiso   1.00
C599   C     0.50070   0.83348   0.47652   0.00000  Uiso   1.00
C600   C     0.49931   0.83319   0.02348   0.00000  Uiso   1.00
C601   C     0.53890   0.83263   0.45606   0.00000  Uiso   1.00
C602   C     0.46111   0.83403   0.04394   0.00000  Uiso   1.00
C603   C     0.42630   0.83668   0.47020   0.00000  Uiso   1.00
C604   C     0.57371   0.82998   0.02981   0.00000  Uiso   1.00
Cu605  Cu    0.50000   0.88022   0.25000   0.00000  Uiso   1.00
Cu606  Cu    0.50000   0.78645   0.25000   0.00000  Uiso   1.00
H607   H     0.43636   0.83380   0.38344   0.00000  Uiso   1.00
H608   H     0.56364   0.83287   0.11656   0.00000  Uiso   1.00
H609   H     0.39786   0.83847   0.45000   0.00000  Uiso   1.00
H610   H     0.60215   0.82819   0.05000   0.00000  Uiso   1.00
H611   H     0.39514   0.84055   0.02999   0.00000  Uiso   1.00
H612   H     0.60487   0.82611   0.47001   0.00000  Uiso   1.00
N613   N     0.50000   0.95069   0.25000   0.00000  Uiso   1.00
N614   N     0.50000   0.71598   0.25000   0.00000  Uiso   1.00
O615   O     0.43988   0.87291   0.24999   0.00000  Uiso   1.00
O616   O     0.56012   0.79375   0.25001   0.00000  Uiso   1.00
O617   O     0.56012   0.87291   0.25001   0.00000  Uiso   1.00
O618   O     0.43988   0.79375   0.24999   0.00000  Uiso   1.00
O619   O     0.49999   0.87293   0.18513   0.00000  Uiso   1.00
O620   O     0.50001   0.79373   0.31487   0.00000  Uiso   1.00
O621   O     0.50001   0.87293   0.31487   0.00000  Uiso   1.00
O622   O     0.49999   0.79373   0.18513   0.00000  Uiso   1.00
C623   C     0.57806   0.83674   0.38478   0.00000  Uiso   1.00
H624   H     0.58086   0.81922   0.35317   0.00000  Uiso   1.00
O625   O     0.60597   0.86120   0.39838   0.00000  Uiso   1.00
C626   C     0.42194   0.82991   0.11522   0.00000  Uiso   1.00
H627   H     0.41914   0.84742   0.14683   0.00000  Uiso   1.00
O628   O     0.39404   0.80544   0.10162   0.00000  Uiso   1.00
C629   C     0.37799   0.75124   0.28116   0.00000  Uiso   1.00
H630   H     0.39583   0.75480   0.31249   0.00000  Uiso   1.00
O631   O     0.37909   0.71454   0.26140   0.00000  Uiso   1.00
C632   C     0.62200   0.91543   0.21882   0.00000  Uiso   1.00
H633   H     0.60417   0.91188   0.18750   0.00000  Uiso   1.00
O634   O     0.62090   0.95212   0.23859   0.00000  Uiso   1.00
C635   C     0.62740   0.74461   0.24252   0.00000  Uiso   1.00
H636   H     0.60703   0.73983   0.21321   0.00000  Uiso   1.00
O637   O     0.63301   0.71256   0.26887   0.00000  Uiso   1.00
C638   C     0.37259   0.92206   0.25741   0.00000  Uiso   1.00
H639   H     0.39295   0.92687   0.28672   0.00000  Uiso   1.00
O640   O     0.36696   0.95409   0.23106   0.00000  Uiso   1.00
C641   C     0.45788   0.71646   0.17865   0.00000  Uiso   1.00
O642   O     0.42417   0.73346   0.18408   0.00000  Uiso   1.00
O643   O     0.47422   0.71758   0.13649   0.00000  Uiso   1.00
H644   H     0.45519   0.73325   0.11310   0.00000  Uiso   1.00
C645   C     0.54212   0.95021   0.32136   0.00000  Uiso   1.00
O646   O     0.57582   0.93320   0.31592   0.00000  Uiso   1.00
O647   O     0.52578   0.94910   0.36351   0.00000  Uiso   1.00
H648   H     0.54481   0.93344   0.38691   0.00000  Uiso   1.00
C649   C     0.53851   0.71403   0.32357   0.00000  Uiso   1.00
O650   O     0.57054   0.73426   0.32033   0.00000  Uiso   1.00
O651   O     0.52031   0.71205   0.36469   0.00000  Uiso   1.00
H652   H     0.53655   0.72883   0.38915   0.00000  Uiso   1.00
C653   C     0.46151   0.95263   0.17642   0.00000  Uiso   1.00
O654   O     0.42949   0.93237   0.17966   0.00000  Uiso   1.00
O655   O     0.47971   0.95464   0.13530   0.00000  Uiso   1.00
H656   H     0.46348   0.93785   0.11084   0.00000  Uiso   1.00
C657   C     0.75431   0.83379   0.25346   0.00000  Uiso   1.00
C658   C     0.91235   0.83288   0.24653   0.00000  Uiso   1.00
C659   C     0.75824   0.83707   0.01645   0.00000  Uiso   1.00
C660   C     0.90843   0.82959   0.48355   0.00000  Uiso   1.00
C661   C     0.68889   0.79230   0.26145   0.00000  Uiso   1.00
C662   C     0.97777   0.87437   0.23853   0.00000  Uiso   1.00
C663   C     0.98012   0.79027   0.25031   0.00000  Uiso   1.00
C664   C     0.68654   0.87641   0.24965   0.00000  Uiso   1.00
C665   C     0.95733   0.83202   0.24285   0.00000  Uiso   1.00
C666   C     0.70933   0.83466   0.25713   0.00000  Uiso   1.00
C667   C     0.81387   0.69191   0.21580   0.00000  Uiso   1.00
C668   C     0.85279   0.97476   0.28420   0.00000  Uiso   1.00
C669   C     0.85236   0.69073   0.28448   0.00000  Uiso   1.00
C670   C     0.81431   0.97594   0.21552   0.00000  Uiso   1.00
C671   C     0.83282   0.83346   0.16469   0.00000  Uiso   1.00
C672   C     0.83385   0.83321   0.33531   0.00000  Uiso   1.00
C673   C     0.87279   0.83367   0.40880   0.00000  Uiso   1.00
C674   C     0.79387   0.83299   0.09120   0.00000  Uiso   1.00
C675   C     0.83524   0.83287   0.38357   0.00000  Uiso   1.00
C676   C     0.83143   0.83380   0.11643   0.00000  Uiso   1.00
C677   C     0.79805   0.83352   0.40392   0.00000  Uiso   1.00
C678   C     0.86862   0.83315   0.09608   0.00000  Uiso   1.00
C679   C     0.79712   0.83449   0.45013   0.00000  Uiso   1.00
C680   C     0.86955   0.83218   0.04987   0.00000  Uiso   1.00
C681   C     0.83403   0.83348   0.47652   0.00000  Uiso   1.00
C682   C     0.83264   0.83319   0.02348   0.00000  Uiso   1.00
C683   C     0.87223   0.83263   0.45606   0.00000  Uiso   1.00
C684   C     0.79444   0.83403   0.04394   0.00000  Uiso   1.00
C685   C     0.75963   0.83668   0.47020   0.00000  Uiso   1.00
C686   C     0.90704   0.82998   0.02981   0.00000  Uiso   1.00
Cu687  Cu    0.83333   0.88022   0.25000   0.00000  Uiso   1.00
Cu688  Cu    0.83333   0.78645   0.25000   0.00000  Uiso   1.00
H689   H     0.76970   0.83380   0.38344   0.00000  Uiso   1.00
H690   H     0.89697   0.83287   0.11656   0.00000  Uiso   1.00
H691   H     0.73119   0.83847   0.45000   0.00000  Uiso   1.00
H692   H     0.93548   0.82819   0.05000   0.00000  Uiso   1.00
H693   H     0.72847   0.84055   0.02999   0.00000  Uiso   1.00
H694   H     0.93820   0.82611   0.47001   0.00000  Uiso   1.00
N695   N     0.83333   0.95069   0.25000   0.00000  Uiso   1.00
N696   N     0.83333   0.71598   0.25000   0.00000  Uiso   1.00
O697   O     0.77321   0.87291   0.24999   0.00000  Uiso   1.00
O698   O     0.89345   0.79375   0.25001   0.00000  Uiso   1.00
O699   O     0.89345   0.87291   0.25001   0.00000  Uiso   1.00
O700   O     0.77321   0.79375   0.24999   0.00000  Uiso   1.00
O701   O     0.83332   0.87293   0.18513   0.00000  Uiso   1.00
O702   O     0.83334   0.79373   0.31487   0.00000  Uiso   1.00
O703   O     0.83334   0.87293   0.31487   0.00000  Uiso   1.00
O704   O     0.83332   0.79373   0.18513   0.00000  Uiso   1.00
C705   C     0.91139   0.83674   0.38478   0.00000  Uiso   1.00
H706   H     0.91419   0.81922   0.35317   0.00000  Uiso   1.00
O707   O     0.93930   0.86120   0.39838   0.00000  Uiso   1.00
C708   C     0.75527   0.82991   0.11522   0.00000  Uiso   1.00
H709   H     0.75247   0.84742   0.14683   0.00000  Uiso   1.00
O710   O     0.72737   0.80544   0.10162   0.00000  Uiso   1.00
C711   C     0.71132   0.75124   0.28116   0.00000  Uiso   1.00
H712   H     0.72916   0.75480   0.31249   0.00000  Uiso   1.00
O713   O     0.71242   0.71454   0.26140   0.00000  Uiso   1.00
C714   C     0.95533   0.91543   0.21882   0.00000  Uiso   1.00
H715   H     0.93750   0.91188   0.18750   0.00000  Uiso   1.00
O716   O     0.95423   0.95212   0.23859   0.00000  Uiso   1.00
C717   C     0.96073   0.74461   0.24252   0.00000  Uiso   1.00
H718   H     0.94037   0.73983   0.21321   0.00000  Uiso   1.00
O719   O     0.96634   0.71256   0.26887   0.00000  Uiso   1.00
C720   C     0.70592   0.92206   0.25741   0.00000  Uiso   1.00
H721   H     0.72629   0.92687   0.28672   0.00000  Uiso   1.00
O722   O     0.70030   0.95409   0.23106   0.00000  Uiso   1.00
C723   C     0.79121   0.71646   0.17865   0.00000  Uiso   1.00
O724   O     0.75750   0.73346   0.18408   0.00000  Uiso   1.00
O725   O     0.80755   0.71758   0.13649   0.00000  Uiso   1.00
H726   H     0.78852   0.73325   0.11310   0.00000  Uiso   1.00
C727   C     0.87545   0.95021   0.32136   0.00000  Uiso   1.00
O728   O     0.90916   0.93320   0.31592   0.00000  Uiso   1.00
O729   O     0.85912   0.94910   0.36351   0.00000  Uiso   1.00
H730   H     0.87814   0.93344   0.38691   0.00000  Uiso   1.00
C731   C     0.87184   0.71403   0.32357   0.00000  Uiso   1.00
O732   O     0.90387   0.73426   0.32033   0.00000  Uiso   1.00
O733   O     0.85365   0.71205   0.36469   0.00000  Uiso   1.00
H734   H     0.86988   0.72883   0.38915   0.00000  Uiso   1.00
C735   C     0.79484   0.95263   0.17642   0.00000  Uiso   1.00
O736   O     0.76282   0.93237   0.17966   0.00000  Uiso   1.00
O737   O     0.81304   0.95464   0.13530   0.00000  Uiso   1.00
H738   H     0.79681   0.93785   0.11084   0.00000  Uiso   1.00
C739   C     0.08764   0.16712   0.75346   0.00000  Uiso   1.00
C740   C     0.24569   0.16622   0.74653   0.00000  Uiso   1.00
C741   C     0.09157   0.17041   0.51645   0.00000  Uiso   1.00
C742   C     0.24177   0.16292   0.98355   0.00000  Uiso   1.00
C743   C     0.02222   0.12563   0.76145   0.00000  Uiso   1.00
C744   C     0.31111   0.20771   0.73853   0.00000  Uiso   1.00
C745   C     0.31345   0.12360   0.75031   0.00000  Uiso   1.00
C746   C     0.01988   0.20974   0.74965   0.00000  Uiso   1.00
C747   C     0.29066   0.16535   0.74285   0.00000  Uiso   1.00
C748   C     0.04267   0.16799   0.75713   0.00000  Uiso   1.00
C749   C     0.14721   0.02524   0.71580   0.00000  Uiso   1.00
C750   C     0.18612   0.30809   0.78420   0.00000  Uiso   1.00
C751   C     0.18569   0.02406   0.78448   0.00000  Uiso   1.00
C752   C     0.14764   0.30927   0.71552   0.00000  Uiso   1.00
C753   C     0.16615   0.16679   0.66469   0.00000  Uiso   1.00
C754   C     0.16718   0.16654   0.83531   0.00000  Uiso   1.00
C755   C     0.20613   0.16701   0.90880   0.00000  Uiso   1.00
C756   C     0.12721   0.16632   0.59120   0.00000  Uiso   1.00
C757   C     0.16857   0.16620   0.88357   0.00000  Uiso   1.00
C758   C     0.16476   0.16713   0.61643   0.00000  Uiso   1.00
C759   C     0.13139   0.16685   0.90392   0.00000  Uiso   1.00
C760   C     0.20195   0.16649   0.59608   0.00000  Uiso   1.00
C761   C     0.13045   0.16782   0.95013   0.00000  Uiso   1.00
C762   C     0.20288   0.16551   0.54987   0.00000  Uiso   1.00
C763   C     0.16737   0.16681   0.97652   0.00000  Uiso   1.00
C764   C     0.16597   0.16652   0.52348   0.00000  Uiso   1.00
C765   C     0.20556   0.16596   0.95606   0.00000  Uiso   1.00
C766   C     0.12777   0.16737   0.54394   0.00000  Uiso   1.00
C767   C     0.09296   0.17002   0.97020   0.00000  Uiso   1.00
C768   C     0.24038   0.16331   0.52981   0.00000  Uiso   1.00
Cu769  Cu    0.16667   0.21355   0.75000   0.00000  Uiso   1.00
Cu770  Cu    0.16667   0.11978   0.75000   0.00000  Uiso   1.00
H771   H     0.10303   0.16713   0.88344   0.00000  Uiso   1.00
H772   H     0.23031   0.16620   0.61656   0.00000  Uiso   1.00
H773   H     0.06452   0.17180   0.95000   0.00000  Uiso   1.00
H774   H     0.26881   0.16153   0.55000   0.00000  Uiso   1.00
H775   H     0.06180   0.17388   0.52999   0.00000  Uiso   1.00
H776   H     0.27153   0.15944   0.97001   0.00000  Uiso   1.00
N777   N     0.16667   0.28402   0.75000   0.00000  Uiso   1.00
N778   N     0.16667   0.04931   0.75000   0.00000  Uiso   1.00
O779   O     0.10655   0.20625   0.74999   0.00000  Uiso   1.00
O780   O     0.22679   0.12709   0.75001   0.00000  Uiso   1.00
O781   O     0.22679   0.20625   0.75001   0.00000  Uiso   1.00
O782   O     0.10655   0.12709   0.74999   0.00000  Uiso   1.00
O783   O     0.16666   0.20627   0.68513   0.00000  Uiso   1.00
O784   O     0.16668   0.12707   0.81487   0.00000  Uiso   1.00
O785   O     0.16668   0.20627   0.81487   0.00000  Uiso   1.00
O786   O     0.16666   0.12707   0.68513   0.00000  Uiso   1.00
C787   C     0.24473   0.17007   0.88478   0.00000  Uiso   1.00
H788   H     0.24753   0.15255   0.85317   0.00000  Uiso   1.00
O789   O     0.27264   0.19453   0.89838   0.00000  Uiso   1.00
C790   C     0.08861   0.16324   0.61522   0.00000  Uiso   1.00
H791   H     0.08580   0.18075   0.64683   0.00000  Uiso   1.00
O792   O     0.06070   0.13878   0.60162   0.00000  Uiso   1.00
C793   C     0.04466   0.08458   0.78116   0.00000  Uiso   1.00
H794   H     0.06250   0.08813   0.81249   0.00000  Uiso   1.00
O795   O     0.04576   0.04787   0.76140   0.00000  Uiso   1.00
C796   C     0.28867   0.24876   0.71882   0.00000  Uiso   1.00
H797   H     0.27083   0.24522   0.68750   0.00000  Uiso   1.00
O798   O     0.28757   0.28546   0.73859   0.00000  Uiso   1.00
C799   C     0.29406   0.07795   0.74252   0.00000  Uiso   1.00
H800   H     0.27370   0.07316   0.71321   0.00000  Uiso   1.00
O801   O     0.29967   0.04589   0.76887   0.00000  Uiso   1.00
C802   C     0.03925   0.25539   0.75741   0.00000  Uiso   1.00
H803   H     0.05962   0.26020   0.78672   0.00000  Uiso   1.00
O804   O     0.03363   0.28743   0.73106   0.00000  Uiso   1.00
C805   C     0.12454   0.04979   0.67865   0.00000  Uiso   1.00
O806   O     0.09083   0.06679   0.68408   0.00000  Uiso   1.00
O807   O     0.14088   0.05091   0.63649   0.00000  Uiso   1.00
H808   H     0.12186   0.06658   0.61310   0.00000  Uiso   1.00
C809   C     0.20879   0.28355   0.82136   0.00000  Uiso   1.00
O810   O     0.24249   0.26653   0.81592   0.00000  Uiso   1.00
O811   O     0.19245   0.28244   0.86351   0.00000  Uiso   1.00
H812   H     0.21147   0.26677   0.88691   0.00000  Uiso   1.00
C813   C     0.20518   0.04737   0.82357   0.00000  Uiso   1.00
O814   O     0.23721   0.06760   0.82033   0.00000  Uiso   1.00
O815   O     0.18698   0.04538   0.86469   0.00000  Uiso   1.00
H816   H     0.20322   0.06216   0.88915   0.00000  Uiso   1.00
C817   C     0.12817   0.28597   0.67642   0.00000  Uiso   1.00
O818   O     0.09615   0.26571   0.67966   0.00000  Uiso   1.00
O819   O     0.14638   0.28797   0.63530   0.00000  Uiso   1.00
H820   H     0.13015   0.27119   0.61084   0.00000  Uiso   1.00
C821   C     0.42098   0.16712   0.75346   0.00000  Uiso   1.00
C822   C     0.57902   0.16622   0.74653   0.00000  Uiso   1.00
C823   C     0.42490   0.17041   0.51645   0.00000  Uiso   1.00
C824   C     0.57510   0.16292   0.98355   0.00000  Uiso   1.00
C825   C     0.35555   0.12563   0.76145   0.00000  Uiso   1.00
C826   C     0.64444   0.20771   0.73853   0.00000  Uiso   1.00
C827   C     0.64678   0.12360   0.75031   0.00000  Uiso   1.00
C828   C     0.35321   0.20974   0.74965   0.00000  Uiso   1.00
C829   C     0.62399   0.16535   0.74285   0.00000  Uiso   1.00
C830   C     0.37600   0.16799   0.75713   0.00000  Uiso   1.00
C831   C     0.48054   0.02524   0.71580   0.00000  Uiso   1.00
C832   C     0.51946   0.30809   0.78420   0.00000  Uiso   1.00
C833   C     0.51902   0.02406   0.78448   0.00000  Uiso   1.00
C834   C     0.48098   0.30927   0.71552   0.00000  Uiso   1.00
C835   C     0.49948   0.16679   0.66469   0.00000  Uiso   1.00
C836   C     0.50052   0.16654   0.83531   0.00000  Uiso   1.00
C837   C     0.53946   0.16701   0.90880   0.00000  Uiso   1.00
C838   C     0.46054   0.16632   0.59120   0.00000  Uiso   1.00
C839   C     0.50190   0.16620   0.88357   0.00000  Uiso   1.00
C840   C     0.49810   0.16713   0.61643   0.00000  Uiso   1.00
C841   C     0.46472   0.16685   0.90392   0.00000  Uiso   1.00
C842   C     0.53528   0.16649   0.59608   0.00000  Uiso   1.00
C843   C     0.46379   0.16782   0.95013   0.00000  Uiso   1.00
C844   C     0.53622   0.16551   0.54987   0.00000  Uiso   1.00
C845   C     0.50070   0.16681   0.97652   0.00000  Uiso   1.00
C846   C     0.49931   0.16652   0.52348   0.00000  Uiso   1.00
C847   C     0.53890   0.16596   0.95606   0.00000  Uiso   1.00
C848   C     0.46111   0.16737   0.54394   0.00000  Uiso   1.00
C849   C     0.42630   0.17002   0.97020   0.00000  Uiso   1.00
C850   C     0.57371   0.16331   0.52981   0.00000  Uiso   1.00
Cu851  Cu    0.50000   0.21355   0.75000   0.00000  Uiso   1.00
Cu852  Cu    0.50000   0.11978   0.75000   0.00000  Uiso   1.00
H853   H     0.43636   0.16713   0.88344   0.00000  Uiso   1.00
H854   H     0.56364   0.16620   0.61656   0.00000  Uiso   1.00
H855   H     0.39786   0.17180   0.95000   0.00000  Uiso   1.00
H856   H     0.60215   0.16153   0.55000   0.00000  Uiso   1.00
H857   H     0.39514   0.17388   0.52999   0.00000  Uiso   1.00
H858   H     0.60487   0.15944   0.97001   0.00000  Uiso   1.00
N859   N     0.50000   0.28402   0.75000   0.00000  Uiso   1.00
N860   N     0.50000   0.04931   0.75000   0.00000  Uiso   1.00
O861   O     0.43988   0.20625   0.74999   0.00000  Uiso   1.00
O862   O     0.56012   0.12709   0.75001   0.00000  Uiso   1.00
O863   O     0.56012   0.20625   0.75001   0.00000  Uiso   1.00
O864   O     0.43988   0.12709   0.74999   0.00000  Uiso   1.00
O865   O     0.49999   0.20627   0.68513   0.00000  Uiso   1.00
O866   O     0.50001   0.12707   0.81487   0.00000  Uiso   1.00
O867   O     0.50001   0.20627   0.81487   0.00000  Uiso   1.00
O868   O     0.49999   0.12707   0.68513   0.00000  Uiso   1.00
C869   C     0.57806   0.17007   0.88478   0.00000  Uiso   1.00
H870   H     0.58086   0.15255   0.85317   0.00000  Uiso   1.00
O871   O     0.60597   0.19453   0.89838   0.00000  Uiso   1.00
C872   C     0.42194   0.16324   0.61522   0.00000  Uiso   1.00
H873   H     0.41914   0.18075   0.64683   0.00000  Uiso   1.00
O874   O     0.39404   0.13878   0.60162   0.00000  Uiso   1.00
C875   C     0.37799   0.08458   0.78116   0.00000  Uiso   1.00
H876   H     0.39583   0.08813   0.81249   0.00000  Uiso   1.00
O877   O     0.37909   0.04787   0.76140   0.00000  Uiso   1.00
C878   C     0.62200   0.24876   0.71882   0.00000  Uiso   1.00
H879   H     0.60417   0.24522   0.68750   0.00000  Uiso   1.00
O880   O     0.62090   0.28546   0.73859   0.00000  Uiso   1.00
C881   C     0.62740   0.07795   0.74252   0.00000  Uiso   1.00
H882   H     0.60703   0.07316   0.71321   0.00000  Uiso   1.00
O883   O     0.63301   0.04589   0.76887   0.00000  Uiso   1.00
C884   C     0.37259   0.25539   0.75741   0.00000  Uiso   1.00
H885   H     0.39295   0.26020   0.78672   0.00000  Uiso   1.00
O886   O     0.36696   0.28743   0.73106   0.00000  Uiso   1.00
C887   C     0.45788   0.04979   0.67865   0.00000  Uiso   1.00
O888   O     0.42417   0.06679   0.68408   0.00000  Uiso   1.00
O889   O     0.47422   0.05091   0.63649   0.00000  Uiso   1.00
H890   H     0.45519   0.06658   0.61310   0.00000  Uiso   1.00
C891   C     0.54212   0.28355   0.82136   0.00000  Uiso   1.00
O892   O     0.57582   0.26653   0.81592   0.00000  Uiso   1.00
O893   O     0.52578   0.28244   0.86351   0.00000  Uiso   1.00
H894   H     0.54481   0.26677   0.88691   0.00000  Uiso   1.00
C895   C     0.53851   0.04737   0.82357   0.00000  Uiso   1.00
O896   O     0.57054   0.06760   0.82033   0.00000  Uiso   1.00
O897   O     0.52031   0.04538   0.86469   0.00000  Uiso   1.00
H898   H     0.53655   0.06216   0.88915   0.00000  Uiso   1.00
C899   C     0.46151   0.28597   0.67642   0.00000  Uiso   1.00
O900   O     0.42949   0.26571   0.67966   0.00000  Uiso   1.00
O901   O     0.47971   0.28797   0.63530   0.00000  Uiso   1.00
H902   H     0.46348   0.27119   0.61084   0.00000  Uiso   1.00
C903   C     0.75431   0.16712   0.75346   0.00000  Uiso   1.00
C904   C     0.91235   0.16622   0.74653   0.00000  Uiso   1.00
C905   C     0.75824   0.17041   0.51645   0.00000  Uiso   1.00
C906   C     0.90843   0.16292   0.98355   0.00000  Uiso   1.00
C907   C     0.68889   0.12563   0.76145   0.00000  Uiso   1.00
C908   C     0.97777   0.20771   0.73853   0.00000  Uiso   1.00
C909   C     0.98012   0.12360   0.75031   0.00000  Uiso   1.00
C910   C     0.68654   0.20974   0.74965   0.00000  Uiso   1.00
C911   C     0.95733   0.16535   0.74285   0.00000  Uiso   1.00
C912   C     0.70933   0.16799   0.75713   0.00000  Uiso   1.00
C913   C     0.81387   0.02524   0.71580   0.00000  Uiso   1.00
C914   C     0.85279   0.30809   0.78420   0.00000  Uiso   1.00
C915   C     0.85236   0.02406   0.78448   0.00000  Uiso   1.00
C916   C     0.81431   0.30927   0.71552   0.00000  Uiso   1.00
C917   C     0.83282   0.16679   0.66469   0.00000  Uiso   1.00
C918   C     0.83385   0.16654   0.83531   0.00000  Uiso   1.00
C919   C     0.87279   0.16701   0.90880   0.00000  Uiso   1.00
C920   C     0.79387   0.16632   0.59120   0.00000  Uiso   1.00
C921   C     0.83524   0.16620   0.88357   0.00000  Uiso   1.00
C922   C     0.83143   0.16713   0.61643   0.00000  Uiso   1.00
C923   C     0.79805   0.16685   0.90392   0.00000  Uiso   1.00
C924   C     0.86862   0.16649   0.59608   0.00000  Uiso   1.00
C925   C     0.79712   0.16782   0.95013   0.00000  Uiso   1.00
C926   C     0.86955   0.16551   0.54987   0.00000  Uiso   1.00
C927   C     0.83403   0.16681   0.97652   0.00000  Uiso   1.00
C928   C     0.83264   0.16652   0.52348   0.00000  Uiso   1.00
C929   C     0.87223   0.16596   0.95606   0.00000  Uiso   1.00
C930   C     0.79444   0.16737   0.54394   0.00000  Uiso   1.00
C931   C     0.75963   0.17002   0.97020   0.00000  Uiso   1.00
C932   C     0.90704   0.16331   0.52981   0.00000  Uiso   1.00
Cu933  Cu    0.83333   0.21355   0.75000   0.00000  Uiso   1.00
Cu934  Cu    0.83333   0.11978   0.75000   0.00000  Uiso   1.00
H935   H     0.76970   0.16713   0.88344   0.00000  Uiso   1.00
H936   H     0.89697   0.16620   0.61656   0.00000  Uiso   1.00
H937   H     0.73119   0.17180   0.95000   0.00000  Uiso   1.00
H938   H     0.93548   0.16153   0.55000   0.00000  Uiso   1.00
H939   H     0.72847   0.17388   0.52999   0.00000  Uiso   1.00
H940   H     0.93820   0.15944   0.97001   0.00000  Uiso   1.00
N941   N     0.83333   0.28402   0.75000   0.00000  Uiso   1.00
N942   N     0.83333   0.04931   0.75000   0.00000  Uiso   1.00
O943   O     0.77321   0.20625   0.74999   0.00000  Uiso   1.00
O944   O     0.89345   0.12709   0.75001   0.00000  Uiso   1.00
O945   O     0.89345   0.20625   0.75001   0.00000  Uiso   1.00
O946   O     0.77321   0.12709   0.74999   0.00000  Uiso   1.00
O947   O     0.83332   0.20627   0.68513   0.00000  Uiso   1.00
O948   O     0.83334   0.12707   0.81487   0.00000  Uiso   1.00
O949   O     0.83334   0.20627   0.81487   0.00000  Uiso   1.00
O950   O     0.83332   0.12707   0.68513   0.00000  Uiso   1.00
C951   C     0.91139   0.17007   0.88478   0.00000  Uiso   1.00
H952   H     0.91419   0.15255   0.85317   0.00000  Uiso   1.00
O953   O     0.93930   0.19453   0.89838   0.00000  Uiso   1.00
C954   C     0.75527   0.16324   0.61522   0.00000  Uiso   1.00
H955   H     0.75247   0.18075   0.64683   0.00000  Uiso   1.00
O956   O     0.72737   0.13878   0.60162   0.00000  Uiso   1.00
C957   C     0.71132   0.08458   0.78116   0.00000  Uiso   1.00
H958   H     0.72916   0.08813   0.81249   0.00000  Uiso   1.00
O959   O     0.71242   0.04787   0.76140   0.00000  Uiso   1.00
C960   C     0.95533   0.24876   0.71882   0.00000  Uiso   1.00
H961   H     0.93750   0.24522   0.68750   0.00000  Uiso   1.00
O962   O     0.95423   0.28546   0.73859   0.00000  Uiso   1.00
C963   C     0.96073   0.07795   0.74252   0.00000  Uiso   1.00
H964   H     0.94037   0.07316   0.71321   0.00000  Uiso   1.00
O965   O     0.96634   0.04589   0.76887   0.00000  Uiso   1.00
C966   C     0.70592   0.25539   0.75741   0.00000  Uiso   1.00
H967   H     0.72629   0.26020   0.78672   0.00000  Uiso   1.00
O968   O     0.70030   0.28743   0.73106   0.00000  Uiso   1.00
C969   C     0.79121   0.04979   0.67865   0.00000  Uiso   1.00
O970   O     0.75750   0.06679   0.68408   0.00000  Uiso   1.00
O971   O     0.80755   0.05091   0.63649   0.00000  Uiso   1.00
H972   H     0.78852   0.06658   0.61310   0.00000  Uiso   1.00
C973   C     0.87545   0.28355   0.82136   0.00000  Uiso   1.00
O974   O     0.90916   0.26653   0.81592   0.00000  Uiso   1.00
O975   O     0.85912   0.28244   0.86351   0.00000  Uiso   1.00
H976   H     0.87814   0.26677   0.88691   0.00000  Uiso   1.00
C977   C     0.87184   0.04737   0.82357   0.00000  Uiso   1.00
O978   O     0.90387   0.06760   0.82033   0.00000  Uiso   1.00
O979   O     0.85365   0.04538   0.86469   0.00000  Uiso   1.00
H980   H     0.86988   0.06216   0.88915   0.00000  Uiso   1.00
C981   C     0.79484   0.28597   0.67642   0.00000  Uiso   1.00
O982   O     0.76282   0.26571   0.67966   0.00000  Uiso   1.00
O983   O     0.81304   0.28797   0.63530   0.00000  Uiso   1.00
H984   H     0.79681   0.27119   0.61084   0.00000  Uiso   1.00
C985   C     0.08764   0.50045   0.75346   0.00000  Uiso   1.00
C986   C     0.24569   0.49955   0.74653   0.00000  Uiso   1.00
C987   C     0.09157   0.50374   0.51645   0.00000  Uiso   1.00
C988   C     0.24177   0.49625   0.98355   0.00000  Uiso   1.00
C989   C     0.02222   0.45896   0.76145   0.00000  Uiso   1.00
C990   C     0.31111   0.54104   0.73853   0.00000  Uiso   1.00
C991   C     0.31345   0.45693   0.75031   0.00000  Uiso   1.00
C992   C     0.01988   0.54307   0.74965   0.00000  Uiso   1.00
C993   C     0.29066   0.49868   0.74285   0.00000  Uiso   1.00
C994   C     0.04267   0.50132   0.75713   0.00000  Uiso   1.00
C995   C     0.14721   0.35857   0.71580   0.00000  Uiso   1.00
C996   C     0.18612   0.64143   0.78420   0.00000  Uiso   1.00
C997   C     0.18569   0.35739   0.78448   0.00000  Uiso   1.00
C998   C     0.14764   0.64261   0.71552   0.00000  Uiso   1.00
C999   C     0.16615   0.50012   0.66469   0.00000  Uiso   1.00
C1000  C     0.16718   0.49988   0.83531   0.00000  Uiso   1.00
C1001  C     0.20613   0.50034   0.90880   0.00000  Uiso   1.00
C1002  C     0.12721   0.49965   0.59120   0.00000  Uiso   1.00
C1003  C     0.16857   0.49953   0.88357   0.00000  Uiso   1.00
C1004  C     0.16476   0.50047   0.61643   0.00000  Uiso   1.00
C1005  C     0.13139   0.50018   0.90392   0.00000  Uiso   1.00
C1006  C     0.20195   0.49982   0.59608   0.00000  Uiso   1.00
C1007  C     0.13045   0.50115   0.95013   0.00000  Uiso   1.00
C1008  C     0.20288   0.49884   0.54987   0.00000  Uiso   1.00
C1009  C     0.16737   0.50014   0.97652   0.00000  Uiso   1.00
C1010  C     0.16597   0.49985   0.52348   0.00000  Uiso   1.00
C1011  C     0.20556   0.49929   0.95606   0.00000  Uiso   1.00
C1012  C     0.12777   0.50070   0.54394   0.00000  Uiso   1.00
C1013  C     0.09296   0.50335   0.97020   0.00000  Uiso   1.00
C1014  C     0.24038   0.49664   0.52981   0.00000  Uiso   1.00
Cu1015 Cu    0.16667   0.54689   0.75000   0.00000  Uiso   1.00
Cu1016 Cu    0.16667   0.45311   0.75000   0.00000  Uiso   1.00
H1017  H     0.10303   0.50047   0.88344   0.00000  Uiso   1.00
H1018  H     0.23031   0.49953   0.61656   0.00000  Uiso   1.00
H1019  H     0.06452   0.50513   0.95000   0.00000  Uiso   1.00
H1020  H     0.26881   0.49486   0.55000   0.00000  Uiso   1.00
H1021  H     0.06180   0.50721   0.52999   0.00000  Uiso   1.00
H1022  H     0.27153   0.49278   0.97001   0.00000  Uiso   1.00
N1023  N     0.16667   0.61736   0.75000   0.00000  Uiso   1.00
N1024  N     0.16667   0.38264   0.75000   0.00000  Uiso   1.00
O1025  O     0.10655   0.53958   0.74999   0.00000  Uiso   1.00
O1026  O     0.22679   0.46042   0.75001   0.00000  Uiso   1.00
O1027  O     0.22679   0.53958   0.75001   0.00000  Uiso   1.00
O1028  O     0.10655   0.46042   0.74999   0.00000  Uiso   1.00
O1029  O     0.16666   0.53960   0.68513   0.00000  Uiso   1.00
O1030  O     0.16668   0.46040   0.81487   0.00000  Uiso   1.00
O1031  O     0.16668   0.53960   0.81487   0.00000  Uiso   1.00
O1032  O     0.16666   0.46040   0.68513   0.00000  Uiso   1.00
C1033  C     0.24473   0.50341   0.88478   0.00000  Uiso   1.00
H1034  H     0.24753   0.48588   0.85317   0.00000  Uiso   1.00
O1035  O     0.27264   0.52787   0.89838   0.00000  Uiso   1.00
C1036  C     0.08861   0.49657   0.61522   0.00000  Uiso   1.00
H1037  H     0.08580   0.51409   0.64683   0.00000  Uiso   1.00
O1038  O     0.06070   0.47211   0.60162   0.00000  Uiso   1.00
C1039  C     0.04466   0.41791   0.78116   0.00000  Uiso   1.00
H1040  H     0.06250   0.42146   0.81249   0.00000  Uiso   1.00
O1041  O     0.04576   0.38120   0.76140   0.00000  Uiso   1.00
C1042  C     0.28867   0.58209   0.71882   0.00000  Uiso   1.00
H1043  H     0.27083   0.57855   0.68750   0.00000  Uiso   1.00
O1044  O     0.28757   0.61879   0.73859   0.00000  Uiso   1.00
C1045  C     0.29406   0.41128   0.74252   0.00000  Uiso   1.00
H1046  H     0.27370   0.40649   0.71321   0.00000  Uiso   1.00
O1047  O     0.29967   0.37923   0.76887   0.00000  Uiso   1.00
C1048  C     0.03925   0.58873   0.75741   0.00000  Uiso   1.00
H1049  H     0.05962   0.59353   0.78672   0.00000  Uiso   1.00
O1050  O     0.03363   0.62076   0.73106   0.00000  Uiso   1.00
C1051  C     0.12454   0.38312   0.67865   0.00000  Uiso   1.00
O1052  O     0.09083   0.40013   0.68408   0.00000  Uiso   1.00
O1053  O     0.14088   0.38424   0.63649   0.00000  Uiso   1.00
H1054  H     0.12186   0.39991   0.61310   0.00000  Uiso   1.00
C1055  C     0.20879   0.61688   0.82136   0.00000  Uiso   1.00
O1056  O     0.24249   0.59986   0.81592   0.00000  Uiso   1.00
O1057  O     0.19245   0.61577   0.86351   0.00000  Uiso   1.00
H1058  H     0.21147   0.60011   0.88691   0.00000  Uiso   1.00
C1059  C     0.20518   0.38070   0.82357   0.00000  Uiso   1.00
O1060  O     0.23721   0.40093   0.82033   0.00000  Uiso   1.00
O1061  O     0.18698   0.37871   0.86469   0.00000  Uiso   1.00
H1062  H     0.20322   0.39550   0.88915   0.00000  Uiso   1.00
C1063  C     0.12817   0.61930   0.67642   0.00000  Uiso   1.00
O1064  O     0.09615   0.59904   0.67966   0.00000  Uiso   1.00
O1065  O     0.14638   0.62131   0.63530   0.00000  Uiso   1.00
H1066  H     0.13015   0.60452   0.61084   0.00000  Uiso   1.00
C1067  C     0.42098   0.50045   0.75346   0.00000  Uiso   1.00
C1068  C     0.57902   0.49955   0.74653   0.00000  Uiso   1.00
C1069  C     0.42490   0.50374   0.51645   0.00000  Uiso   1.00
C1070  C     0.57510   0.49625   0.98355   0.00000  Uiso   1.00
C1071  C     0.35555   0.45896   0.76145   0.00000  Uiso   1.00
C1072  C     0.64444   0.54104   0.73853   0.00000  Uiso   1.00
C1073  C     0.64678   0.45693   0.75031   0.00000  Uiso   1.00
C1074  C     0.35321   0.54307   0.74965   0.00000  Uiso   1.00
C1075  C     0.62399   0.49868   0.74285   0.00000  Uiso   1.00
C1076  C     0.37600   0.50132   0.75713   0.00000  Uiso   1.00
C1077  C     0.48054   0.35857   0.71580   0.00000  Uiso   1.00
C1078  C     0.51946   0.64143   0.78420   0.00000  Uiso   1.00
C1079  C     0.51902   0.35739   0.78448   0.00000  Uiso   1.00
C1080  C     0.48098   0.64261   0.71552   0.00000  Uiso   1.00
C1081  C     0.49948   0.50012   0.66469   0.00000  Uiso   1.00
C1082  C     0.50052   0.49988   0.83531   0.00000  Uiso   1.00
C1083  C     0.53946   0.50034   0.90880   0.00000  Uiso   1.00
C1084  C     0.46054   0.49965   0.59120   0.00000  Uiso   1.00
C1085  C     0.50190   0.49953   0.88357   0.00000  Uiso   1.00
C1086  C     0.49810   0.50047   0.61643   0.00000  Uiso   1.00
C1087  C     0.46472   0.50018   0.90392   0.00000  Uiso   1.00
C1088  C     0.53528   0.49982   0.59608   0.00000  Uiso   1.00
C1089  C     0.46379   0.50115   0.95013   0.00000  Uiso   1.00
C1090  C     0.53622   0.49884   0.54987   0.00000  Uiso   1.00
C1091  C     0.50070   0.50014   0.97652   0.00000  Uiso   1.00
C1092  C     0.49931   0.49985   0.52348   0.00000  Uiso   1.00
C1093  C     0.53890   0.49929   0.95606   0.00000  Uiso   1.00
C1094  C     0.46111   0.50070   0.54394   0.00000  Uiso   1.00
C1095  C     0.42630   0.50335   0.97020   0.00000  Uiso   1.00
C1096  C     0.57371   0.49664   0.52981   0.00000  Uiso   1.00
Cu1097 Cu    0.50000   0.54689   0.75000   0.00000  Uiso   1.00
Cu1098 Cu    0.50000   0.45311   0.75000   0.00000  Uiso   1.00
H1099  H     0.43636   0.50047   0.88344   0.00000  Uiso   1.00
H1100  H     0.56364   0.49953   0.61656   0.00000  Uiso   1.00
H1101  H     0.39786   0.50513   0.95000   0.00000  Uiso   1.00
H1102  H     0.60215   0.49486   0.55000   0.00000  Uiso   1.00
H1103  H     0.39514   0.50721   0.52999   0.00000  Uiso   1.00
H1104  H     0.60487   0.49278   0.97001   0.00000  Uiso   1.00
N1105  N     0.50000   0.61736   0.75000   0.00000  Uiso   1.00
N1106  N     0.50000   0.38264   0.75000   0.00000  Uiso   1.00
O1107  O     0.43988   0.53958   0.74999   0.00000  Uiso   1.00
O1108  O     0.56012   0.46042   0.75001   0.00000  Uiso   1.00
O1109  O     0.56012   0.53958   0.75001   0.00000  Uiso   1.00
O1110  O     0.43988   0.46042   0.74999   0.00000  Uiso   1.00
O1111  O     0.49999   0.53960   0.68513   0.00000  Uiso   1.00
O1112  O     0.50001   0.46040   0.81487   0.00000  Uiso   1.00
O1113  O     0.50001   0.53960   0.81487   0.00000  Uiso   1.00
O1114  O     0.49999   0.46040   0.68513   0.00000  Uiso   1.00
C1115  C     0.57806   0.50341   0.88478   0.00000  Uiso   1.00
H1116  H     0.58086   0.48588   0.85317   0.00000  Uiso   1.00
O1117  O     0.60597   0.52787   0.89838   0.00000  Uiso   1.00
C1118  C     0.42194   0.49657   0.61522   0.00000  Uiso   1.00
H1119  H     0.41914   0.51409   0.64683   0.00000  Uiso   1.00
O1120  O     0.39404   0.47211   0.60162   0.00000  Uiso   1.00
C1121  C     0.37799   0.41791   0.78116   0.00000  Uiso   1.00
H1122  H     0.39583   0.42146   0.81249   0.00000  Uiso   1.00
O1123  O     0.37909   0.38120   0.76140   0.00000  Uiso   1.00
C1124  C     0.62200   0.58209   0.71882   0.00000  Uiso   1.00
H1125  H     0.60417   0.57855   0.68750   0.00000  Uiso   1.00
O1126  O     0.62090   0.61879   0.73859   0.00000  Uiso   1.00
C1127  C     0.62740   0.41128   0.74252   0.00000  Uiso   1.00
H1128  H     0.60703   0.40649   0.71321   0.00000  Uiso   1.00
O1129  O     0.63301   0.37923   0.76887   0.00000  Uiso   1.00
C1130  C     0.37259   0.58873   0.75741   0.00000  Uiso   1.00
H1131  H     0.39295   0.59353   0.78672   0.00000  Uiso   1.00
O1132  O     0.36696   0.62076   0.73106   0.00000  Uiso   1.00
C1133  C     0.45788   0.38312   0.67865   0.00000  Uiso   1.00
O1134  O     0.42417   0.40013   0.68408   0.00000  Uiso   1.00
O1135  O     0.47422   0.38424   0.63649   0.00000  Uiso   1.00
H1136  H     0.45519   0.39991   0.61310   0.00000  Uiso   1.00
C1137  C     0.54212   0.61688   0.82136   0.00000  Uiso   1.00
O1138  O     0.57582   0.59986   0.81592   0.00000  Uiso   1.00
O1139  O     0.52578   0.61577   0.86351   0.00000  Uiso   1.00
H1140  H     0.54481   0.60011   0.88691   0.00000  Uiso   1.00
C1141  C     0.53851   0.38070   0.82357   0.00000  Uiso   1.00
O1142  O     0.57054   0.40093   0.82033   0.00000  Uiso   1.00
O1143  O     0.52031   0.37871   0.86469   0.00000  Uiso   1.00
H1144  H     0.53655   0.39550   0.88915   0.00000  Uiso   1.00
C1145  C     0.46151   0.61930   0.67642   0.00000  Uiso   1.00
O1146  O     0.42949   0.59904   0.67966   0.00000  Uiso   1.00
O1147  O     0.47971   0.62131   0.63530   0.00000  Uiso   1.00
H1148  H     0.46348   0.60452   0.61084   0.00000  Uiso   1.00
C1149  C     0.75431   0.50045   0.75346   0.00000  Uiso   1.00
C1150  C     0.91235   0.49955   0.74653   0.00000  Uiso   1.00
C1151  C     0.75824   0.50374   0.51645   0.00000  Uiso   1.00
C1152  C     0.90843   0.49625   0.98355   0.00000  Uiso   1.00
C1153  C     0.68889   0.45896   0.76145   0.00000  Uiso   1.00
C1154  C     0.97777   0.54104   0.73853   0.00000  Uiso   1.00
C1155  C     0.98012   0.45693   0.75031   0.00000  Uiso   1.00
C1156  C     0.68654   0.54307   0.74965   0.00000  Uiso   1.00
C1157  C     0.95733   0.49868   0.74285   0.00000  Uiso   1.00
C1158  C     0.70933   0.50132   0.75713   0.00000  Uiso   1.00
C1159  C     0.81387   0.35857   0.71580   0.00000  Uiso   1.00
C1160  C     0.85279   0.64143   0.78420   0.00000  Uiso   1.00
C1161  C     0.85236   0.35739   0.78448   0.00000  Uiso   1.00
C1162  C     0.81431   0.64261   0.71552   0.00000  Uiso   1.00
C1163  C     0.83282   0.50012   0.66469   0.00000  Uiso   1.00
C1164  C     0.83385   0.49988   0.83531   0.00000  Uiso   1.00
C1165  C     0.87279   0.50034   0.90880   0.00000  Uiso   1.00
C1166  C     0.79387   0.49965   0.59120   0.00000  Uiso   1.00
C1167  C     0.83524   0.49953   0.88357   0.00000  Uiso   1.00
C1168  C     0.83143   0.50047   0.61643   0.00000  Uiso   1.00
C1169  C     0.79805   0.50018   0.90392   0.00000  Uiso   1.00
C1170  C     0.86862   0.49982   0.59608   0.00000  Uiso   1.00
C1171  C     0.79712   0.50115   0.95013   0.00000  Uiso   1.00
C1172  C     0.86955   0.49884   0.54987   0.00000  Uiso   1.00
C1173  C     0.83403   0.50014   0.97652   0.00000  Uiso   1.00
C1174  C     0.83264   0.49985   0.52348   0.00000  Uiso   1.00
C1175  C     0.87223   0.49929   0.95606   0.00000  Uiso   1.00
C1176  C     0.79444   0.50070   0.54394   0.00000  Uiso   1.00
C1177  C     0.75963   0.50335   0.97020   0.00000  Uiso   1.00
C1178  C     0.90704   0.49664   0.52981   0.00000  Uiso   1.00
Cu1179 Cu    0.83333   0.54689   0.75000   0.00000  Uiso   1.00
Cu1180 Cu    0.83333   0.45311   0.75000   0.00000  Uiso   1.00
H1181  H     0.76970   0.50047   0.88344   0.00000  Uiso   1.00
H1182  H     0.89697   0.49953   0.61656   0.00000  Uiso   1.00
H1183  H     0.73119   0.50513   0.95000   0.00000  Uiso   1.00
H1184  H     0.93548   0.49486   0.55000   0.00000  Uiso   1.00
H1185  H     0.72847   0.50721   0.52999   0.00000  Uiso   1.00
H1186  H     0.93820   0.49278   0.97001   0.00000  Uiso   1.00
N1187  N     0.83333   0.61736   0.75000   0.00000  Uiso   1.00
N1188  N     0.83333   0.38264   0.75000   0.00000  Uiso   1.00
O1189  O     0.77321   0.53958   0.74999   0.00000  Uiso   1.00
O1190  O     0.89345   0.46042   0.75001   0.00000  Uiso   1.00
O1191  O     0.89345   0.53958   0.75001   0.00000  Uiso   1.00
O1192  O     0.77321   0.46042   0.74999   0.00000  Uiso   1.00
O1193  O     0.83332   0.53960   0.68513   0.00000  Uiso   1.00
O1194  O     0.83334   0.46040   0.81487   0.00000  Uiso   1.00
O1195  O     0.83334   0.53960   0.81487   0.00000  Uiso   1.00
O1196  O     0.83332   0.46040   0.68513   0.00000  Uiso   1.00
C1197  C     0.91139   0.50341   0.88478   0.00000  Uiso   1.00
H1198  H     0.91419   0.48588   0.85317   0.00000  Uiso   1.00
O1199  O     0.93930   0.52787   0.89838   0.00000  Uiso   1.00
C1200  C     0.75527   0.49657   0.61522   0.00000  Uiso   1.00
H1201  H     0.75247   0.51409   0.64683   0.00000  Uiso   1.00
O1202  O     0.72737   0.47211   0.60162   0.00000  Uiso   1.00
C1203  C     0.71132   0.41791   0.78116   0.00000  Uiso   1.00
H1204  H     0.72916   0.42146   0.81249   0.00000  Uiso   1.00
O1205  O     0.71242   0.38120   0.76140   0.00000  Uiso   1.00
C1206  C     0.95533   0.58209   0.71882   0.00000  Uiso   1.00
H1207  H     0.93750   0.57855   0.68750   0.00000  Uiso   1.00
O1208  O     0.95423   0.61879   0.73859   0.00000  Uiso   1.00
C1209  C     0.96073   0.41128   0.74252   0.00000  Uiso   1.00
H1210  H     0.94037   0.40649   0.71321   0.00000  Uiso   1.00
O1211  O     0.96634   0.37923   0.76887   0.00000  Uiso   1.00
C1212  C     0.70592   0.58873   0.75741   0.00000  Uiso   1.00
H1213  H     0.72629   0.59353   0.78672   0.00000  Uiso   1.00
O1214  O     0.70030   0.62076   0.73106   0.00000  Uiso   1.00
C1215  C     0.79121   0.38312   0.67865   0.00000  Uiso   1.00
O1216  O     0.75750   0.40013   0.68408   0.00000  Uiso   1.00
O1217  O     0.80755   0.38424   0.63649   0.00000  Uiso   1.00
H1218  H     0.78852   0.39991   0.61310   0.00000  Uiso   1.00
C1219  C     0.87545   0.61688   0.82136   0.00000  Uiso   1.00
O1220  O     0.90916   0.59986   0.81592   0.00000  Uiso   1.00
O1221  O     0.85912   0.61577   0.86351   0.00000  Uiso   1.00
H1222  H     0.87814   0.60011   0.88691   0.00000  Uiso   1.00
C1223  C     0.87184   0.38070   0.82357   0.00000  Uiso   1.00
O1224  O     0.90387   0.40093   0.82033   0.00000  Uiso   1.00
O1225  O     0.85365   0.37871   0.86469   0.00000  Uiso   1.00
H1226  H     0.86988   0.39550   0.88915   0.00000  Uiso   1.00
C1227  C     0.79484   0.61930   0.67642   0.00000  Uiso   1.00
O1228  O     0.76282   0.59904   0.67966   0.00000  Uiso   1.00
O1229  O     0.81304   0.62131   0.63530   0.00000  Uiso   1.00
H1230  H     0.79681   0.60452   0.61084   0.00000  Uiso   1.00
C1231  C     0.08764   0.83379   0.75346   0.00000  Uiso   1.00
C1232  C     0.24569   0.83288   0.74653   0.00000  Uiso   1.00
C1233  C     0.09157   0.83707   0.51645   0.00000  Uiso   1.00
C1234  C     0.24177   0.82959   0.98355   0.00000  Uiso   1.00
C1235  C     0.02222   0.79230   0.76145   0.00000  Uiso   1.00
C1236  C     0.31111   0.87437   0.73853   0.00000  Uiso   1.00
C1237  C     0.31345   0.79027   0.75031   0.00000  Uiso   1.00
C1238  C     0.01988   0.87641   0.74965   0.00000  Uiso   1.00
C1239  C     0.29066   0.83202   0.74285   0.00000  Uiso   1.00
C1240  C     0.04267   0.83466   0.75713   0.00000  Uiso   1.00
C1241  C     0.14721   0.69191   0.71580   0.00000  Uiso   1.00
C1242  C     0.18612   0.97476   0.78420   0.00000  Uiso   1.00
C1243  C     0.18569   0.69073   0.78448   0.00000  Uiso   1.00
C1244  C     0.14764   0.97594   0.71552   0.00000  Uiso   1.00
C1245  C     0.16615   0.83346   0.66469   0.00000  Uiso   1.00
C1246  C     0.16718   0.83321   0.83531   0.00000  Uiso   1.00
C1247  C     0.20613   0.83367   0.90880   0.00000  Uiso   1.00
C1248  C     0.12721   0.83299   0.59120   0.00000  Uiso   1.00
C1249  C     0.16857   0.83287   0.88357   0.00000  Uiso   1.00
C1250  C     0.16476   0.83380   0.61643   0.00000  Uiso   1.00
C1251  C     0.13139   0.83352   0.90392   0.00000  Uiso   1.00
C1252  C     0.20195   0.83315   0.59608   0.00000  Uiso   1.00
C1253  C     0.13045   0.83449   0.95013   0.00000  Uiso   1.00
C1254  C     0.20288   0.83218   0.54987   0.00000  Uiso   1.00
C1255  C     0.16737   0.83348   0.97652   0.00000  Uiso   1.00
C1256  C     0.16597   0.83319   0.52348   0.00000  Uiso   1.00
C1257  C     0.20556   0.83263   0.95606   0.00000  Uiso   1.00
C1258  C     0.12777   0.83403   0.54394   0.00000  Uiso   1.00
C1259  C     0.09296   0.83668   0.97020   0.00000  Uiso   1.00
C1260  C     0.24038   0.82998   0.52981   0.00000  Uiso   1.00
Cu1261 Cu    0.16667   0.88022   0.75000   0.00000  Uiso   1.00
Cu1262 Cu    0.16667   0.78645   0.75000   0.00000  Uiso   1.00
H1263  H     0.10303   0.83380   0.88344   0.00000  Uiso   1.00
H1264  H     0.23031   0.83287   0.61656   0.00000  Uiso   1.00
H1265  H     0.06452   0.83847   0.95000   0.00000  Uiso   1.00
H1266  H     0.26881   0.82819   0.55000   0.00000  Uiso   1.00
H1267  H     0.06180   0.84055   0.52999   0.00000  Uiso   1.00
H1268  H     0.27153   0.82611   0.97001   0.00000  Uiso   1.00
N1269  N     0.16667   0.95069   0.75000   0.00000  Uiso   1.00
N1270  N     0.16667   0.71598   0.75000   0.00000  Uiso   1.00
O1271  O     0.10655   0.87291   0.74999   0.00000  Uiso   1.00
O1272  O     0.22679   0.79375   0.75001   0.00000  Uiso   1.00
O1273  O     0.22679   0.87291   0.75001   0.00000  Uiso   1.00
O1274  O     0.10655   0.79375   0.74999   0.00000  Uiso   1.00
O1275  O     0.16666   0.87293   0.68513   0.00000  Uiso   1.00
O1276  O     0.16668   0.79373   0.81487   0.00000  Uiso   1.00
O1277  O     0.16668   0.87293   0.81487   0.00000  Uiso   1.00
O1278  O     0.16666   0.79373   0.68513   0.00000  Uiso   1.00
C1279  C     0.24473   0.83674   0.88478   0.00000  Uiso   1.00
H1280  H     0.24753   0.81922   0.85317   0.00000  Uiso   1.00
O1281  O     0.27264   0.86120   0.89838   0.00000  Uiso   1.00
C1282  C     0.08861   0.82991   0.61522   0.00000  Uiso   1.00
H1283  H     0.08580   0.84742   0.64683   0.00000  Uiso   1.00
O1284  O     0.06070   0.80544   0.60162   0.00000  Uiso   1.00
C1285  C     0.04466   0.75124   0.78116   0.00000  Uiso   1.00
H1286  H     0.06250   0.75480   0.81249   0.00000  Uiso   1.00
O1287  O     0.04576   0.71454   0.76140   0.00000  Uiso   1.00
C1288  C     0.28867   0.91543   0.71882   0.00000  Uiso   1.00
H1289  H     0.27083   0.91188   0.68750   0.00000  Uiso   1.00
O1290  O     0.28757   0.95212   0.73859   0.00000  Uiso   1.00
C1291  C     0.29406   0.74461   0.74252   0.00000  Uiso   1.00
H1292  H     0.27370   0.73983   0.71321   0.00000  Uiso   1.00
O1293  O     0.29967   0.71256   0.76887   0.00000  Uiso   1.00
C1294  C     0.03925   0.92206   0.75741   0.00000  Uiso   1.00
H1295  H     0.05962   0.92687   0.78672   0.00000  Uiso   1.00
O1296  O     0.03363   0.95409   0.73106   0.00000  Uiso   1.00
C1297  C     0.12454   0.71646   0.67865   0.00000  Uiso   1.00
O1298  O     0.09083   0.73346   0.68408   0.00000  Uiso   1.00
O1299  O     0.14088   0.71758   0.63649   0.00000  Uiso   1.00
H1300  H     0.12186   0.73325   0.61310   0.00000  Uiso   1.00
C1301  C     0.20879   0.95021   0.82136   0.00000  Uiso   1.00
O1302  O     0.24249   0.93320   0.81592   0.00000  Uiso   1.00
O1303  O     0.19245   0.94910   0.86351   0.00000  Uiso   1.00
H1304  H     0.21147   0.93344   0.88691   0.00000  Uiso   1.00
C1305  C     0.20518   0.71403   0.82357   0.00000  Uiso   1.00
O1306  O     0.23721   0.73426   0.82033   0.00000  Uiso   1.00
O1307  O     0.18698   0.71205   0.86469   0.00000  Uiso   1.00
H1308  H     0.20322   0.72883   0.88915   0.00000  Uiso   1.00
C1309  C     0.12817   0.95263   0.67642   0.00000  Uiso   1.00
O1310  O     0.09615   0.93237   0.67966   0.00000  Uiso   1.00
O1311  O     0.14638   0.95464   0.63530   0.00000  Uiso   1.00
H1312  H     0.13015   0.93785   0.61084   0.00000  Uiso   1.00
C1313  C     0.42098   0.83379   0.75346   0.00000  Uiso   1.00
C1314  C     0.57902   0.83288   0.74653   0.00000  Uiso   1.00
C1315  C     0.42490   0.83707   0.51645   0.00000  Uiso   1.00
C1316  C     0.57510   0.82959   0.98355   0.00000  Uiso   1.00
C1317  C     0.35555   0.79230   0.76145   0.00000  Uiso   1.00
C1318  C     0.64444   0.87437   0.73853   0.00000  Uiso   1.00
C1319  C     0.64678   0.79027   0.75031   0.00000  Uiso   1.00
C1320  C     0.35321   0.87641   0.74965   0.00000  Uiso   1.00
C1321  C     0.62399   0.83202   0.74285   0.00000  Uiso   1.00
C1322  C     0.37600   0.83466   0.75713   0.00000  Uiso   1.00
C1323  C     0.48054   0.69191   0.71580   0.00000  Uiso   1.00
C1324  C     0.51946   0.97476   0.78420   0.00000  Uiso   1.00
C1325  C     0.51902   0.69073   0.78448   0.00000  Uiso   1.00
C1326  C     0.48098   0.97594   0.71552   0.00000  Uiso   1.00
C1327  C     0.49948   0.83346   0.66469   0.00000  Uiso   1.00
C1328  C     0.50052   0.83321   0.83531   0.00000  Uiso   1.00
C1329  C     0.53946   0.83367   0.90880   0.00000  Uiso   1.00
C1330  C     0.46054   0.83299   0.59120   0.00000  Uiso   1.00
C1331  C     0.50190   0.83287   0.88357   0.00000  Uiso   1.00
C1332  C     0.49810   0.83380   0.61643   0.00000  Uiso   1.00
C1333  C     0.46472   0.83352   0.90392   0.00000  Uiso   1.00
C1334  C     0.53528   0.83315   0.59608   0.00000  Uiso   1.00
C1335  C     0.46379   0.83449   0.95013   0.00000  Uiso   1.00
C1336  C     0.53622   0.83218   0.54987   0.00000  Uiso   1.00
C1337  C     0.50070   0.83348   0.97652   0.00000  Uiso   1.00
C1338  C     0.49931   0.83319   0.52348   0.00000  Uiso   1.00
C1339  C     0.53890   0.83263   0.95606   0.00000  Uiso   1.00
C1340  C     0.46111   0.83403   0.54394   0.00000  Uiso   1.00
C1341  C     0.42630   0.83668   0.97020   0.00000  Uiso   1.00
C1342  C     0.57371   0.82998   0.52981   0.00000  Uiso   1.00
Cu1343 Cu    0.50000   0.88022   0.75000   0.00000  Uiso   1.00
Cu1344 Cu    0.50000   0.78645   0.75000   0.00000  Uiso   1.00
H1345  H     0.43636   0.83380   0.88344   0.00000  Uiso   1.00
H1346  H     0.56364   0.83287   0.61656   0.00000  Uiso   1.00
H1347  H     0.39786   0.83847   0.95000   0.00000  Uiso   1.00
H1348  H     0.60215   0.82819   0.55000   0.00000  Uiso   1.00
H1349  H     0.39514   0.84055   0.52999   0.00000  Uiso   1.00
H1350  H     0.60487   0.82611   0.97001   0.00000  Uiso   1.00
N1351  N     0.50000   0.95069   0.75000   0.00000  Uiso   1.00
N1352  N     0.50000   0.71598   0.75000   0.00000  Uiso   1.00
O1353  O     0.43988   0.87291   0.74999   0.00000  Uiso   1.00
O1354  O     0.56012   0.79375   0.75001   0.00000  Uiso   1.00
O1355  O     0.56012   0.87291   0.75001   0.00000  Uiso   1.00
O1356  O     0.43988   0.79375   0.74999   0.00000  Uiso   1.00
O1357  O     0.49999   0.87293   0.68513   0.00000  Uiso   1.00
O1358  O     0.50001   0.79373   0.81487   0.00000  Uiso   1.00
O1359  O     0.50001   0.87293   0.81487   0.00000  Uiso   1.00
O1360  O     0.49999   0.79373   0.68513   0.00000  Uiso   1.00
C1361  C     0.57806   0.83674   0.88478   0.00000  Uiso   1.00
H1362  H     0.58086   0.81922   0.85317   0.00000  Uiso   1.00
O1363  O     0.60597   0.86120   0.89838   0.00000  Uiso   1.00
C1364  C     0.42194   0.82991   0.61522   0.00000  Uiso   1.00
H1365  H     0.41914   0.84742   0.64683   0.00000  Uiso   1.00
O1366  O     0.39404   0.80544   0.60162   0.00000  Uiso   1.00
C1367  C     0.37799   0.75124   0.78116   0.00000  Uiso   1.00
H1368  H     0.39583   0.75480   0.81249   0.00000  Uiso   1.00
O1369  O     0.37909   0.71454   0.76140   0.00000  Uiso   1.00
C1370  C     0.62200   0.91543   0.71882   0.00000  Uiso   1.00
H1371  H     0.60417   0.91188   0.68750   0.00000  Uiso   1.00
O1372  O     0.62090   0.95212   0.73859   0.00000  Uiso   1.00
C1373  C     0.62740   0.74461   0.74252   0.00000  Uiso   1.00
H1374  H     0.60703   0.73983   0.71321   0.00000  Uiso   1.00
O1375  O     0.63301   0.71256   0.76887   0.00000  Uiso   1.00
C1376  C     0.37259   0.92206   0.75741   0.00000  Uiso   1.00
H1377  H     0.39295   0.92687   0.78672   0.00000  Uiso   1.00
O1378  O     0.36696   0.95409   0.73106   0.00000  Uiso   1.00
C1379  C     0.45788   0.71646   0.67865   0.00000  Uiso   1.00
O1380  O     0.42417   0.73346   0.68408   0.00000  Uiso   1.00
O1381  O     0.47422   0.71758   0.63649   0.00000  Uiso   1.00
H1382  H     0.45519   0.73325   0.61310   0.00000  Uiso   1.00
C1383  C     0.54212   0.95021   0.82136   0.00000  Uiso   1.00
O1384  O     0.57582   0.93320   0.81592   0.00000  Uiso   1.00
O1385  O     0.52578   0.94910   0.86351   0.00000  Uiso   1.00
H1386  H     0.54481   0.93344   0.88691   0.00000  Uiso   1.00
C1387  C     0.53851   0.71403   0.82357   0.00000  Uiso   1.00
O1388  O     0.57054   0.73426   0.82033   0.00000  Uiso   1.00
O1389  O     0.52031   0.71205   0.86469   0.00000  Uiso   1.00
H1390  H     0.53655   0.72883   0.88915   0.00000  Uiso   1.00
C1391  C     0.46151   0.95263   0.67642   0.00000  Uiso   1.00
O1392  O     0.42949   0.93237   0.67966   0.00000  Uiso   1.00
O1393  O     0.47971   0.95464   0.63530   0.00000  Uiso   1.00
H1394  H     0.46348   0.93785   0.61084   0.00000  Uiso   1.00
C1395  C     0.75431   0.83379   0.75346   0.00000  Uiso   1.00
C1396  C     0.91235   0.83288   0.74653   0.00000  Uiso   1.00
C1397  C     0.75824   0.83707   0.51645   0.00000  Uiso   1.00
C1398  C     0.90843   0.82959   0.98355   0.00000  Uiso   1.00
C1399  C     0.68889   0.79230   0.76145   0.00000  Uiso   1.00
C1400  C     0.97777   0.87437   0.73853   0.00000  Uiso   1.00
C1401  C     0.98012   0.79027   0.75031   0.00000  Uiso   1.00
C1402  C     0.68654   0.87641   0.74965   0.00000  Uiso   1.00
C1403  C     0.95733   0.83202   0.74285   0.00000  Uiso   1.00
C1404  C     0.70933   0.83466   0.75713   0.00000  Uiso   1.00
C1405  C     0.81387   0.69191   0.71580   0.00000  Uiso   1.00
C1406  C     0.85279   0.97476   0.78420   0.00000  Uiso   1.00
C1407  C     0.85236   0.69073   0.78448   0.00000  Uiso   1.00
C1408  C     0.81431   0.97594   0.71552   0.00000  Uiso   1.00
C1409  C     0.83282   0.83346   0.66469   0.00000  Uiso   1.00
C1410  C     0.83385   0.83321   0.83531   0.00000  Uiso   1.00
C1411  C     0.87279   0.83367   0.90880   0.00000  Uiso   1.00
C1412  C     0.79387   0.83299   0.59120   0.00000  Uiso   1.00
C1413  C     0.83524   0.83287   0.88357   0.00000  Uiso   1.00
C1414  C     0.83143   0.83380   0.61643   0.00000  Uiso   1.00
C1415  C     0.79805   0.83352   0.90392   0.00000  Uiso   1.00
C1416  C     0.86862   0.83315   0.59608   0.00000  Uiso   1.00
C1417  C     0.79712   0.83449   0.95013   0.00000  Uiso   1.00
C1418  C     0.86955   0.83218   0.54987   0.00000  Uiso   1.00
C1419  C     0.83403   0.83348   0.97652   0.00000  Uiso   1.00
C1420  C     0.83264   0.83319   0.52348   0.00000  Uiso   1.00
C1421  C     0.87223   0.83263   0.95606   0.00000  Uiso   1.00
C1422  C     0.79444   0.83403   0.54394   0.00000  Uiso   1.00
C1423  C     0.75963   0.83668   0.97020   0.00000  Uiso   1.00
C1424  C     0.90704   0.82998   0.52981   0.00000  Uiso   1.00
Cu1425 Cu    0.83333   0.88022   0.75000   0.00000  Uiso   1.00
Cu1426 Cu    0.83333   0.78645   0.75000   0.00000  Uiso   1.00
H1427  H     0.76970   0.83380   0.88344   0.00000  Uiso   1.00
H1428  H     0.89697   0.83287   0.61656   0.00000  Uiso   1.00
H1429  H     0.73119   0.83847   0.95000   0.00000  Uiso   1.00
H1430  H     0.93548   0.82819   0.55000   0.00000  Uiso   1.00
H1431  H     0.72847   0.84055   0.52999   0.00000  Uiso   1.00
H1432  H     0.93820   0.82611   0.97001   0.00000  Uiso   1.00
N1433  N     0.83333   0.95069   0.75000   0.00000  Uiso   1.00
N1434  N     0.83333   0.71598   0.75000   0.00000  Uiso   1.00
O1435  O     0.77321   0.87291   0.74999   0.00000  Uiso   1.00
O1436  O     0.89345   0.79375   0.75001   0.00000  Uiso   1.00
O1437  O     0.89345   0.87291   0.75001   0.00000  Uiso   1.00
O1438  O     0.77321   0.79375   0.74999   0.00000  Uiso   1.00
O1439  O     0.83332   0.87293   0.68513   0.00000  Uiso   1.00
O1440  O     0.83334   0.79373   0.81487   0.00000  Uiso   1.00
O1441  O     0.83334   0.87293   0.81487   0.00000  Uiso   1.00
O1442  O     0.83332   0.79373   0.68513   0.00000  Uiso   1.00
C1443  C     0.91139   0.83674   0.88478   0.00000  Uiso   1.00
H1444  H     0.91419   0.81922   0.85317   0.00000  Uiso   1.00
O1445  O     0.93930   0.86120   0.89838   0.00000  Uiso   1.00
C1446  C     0.75527   0.82991   0.61522   0.00000  Uiso   1.00
H1447  H     0.75247   0.84742   0.64683   0.00000  Uiso   1.00
O1448  O     0.72737   0.80544   0.60162   0.00000  Uiso   1.00
C1449  C     0.71132   0.75124   0.78116   0.00000  Uiso   1.00
H1450  H     0.72916   0.75480   0.81249   0.00000  Uiso   1.00
O1451  O     0.71242   0.71454   0.76140   0.00000  Uiso   1.00
C1452  C     0.95533   0.91543   0.71882   0.00000  Uiso   1.00
H1453  H     0.93750   0.91188   0.68750   0.00000  Uiso   1.00
O1454  O     0.95423   0.95212   0.73859   0.00000  Uiso   1.00
C1455  C     0.96073   0.74461   0.74252   0.00000  Uiso   1.00
H1456  H     0.94037   0.73983   0.71321   0.00000  Uiso   1.00
O1457  O     0.96634   0.71256   0.76887   0.00000  Uiso   1.00
C1458  C     0.70592   0.92206   0.75741   0.00000  Uiso   1.00
H1459  H     0.72629   0.92687   0.78672   0.00000  Uiso   1.00
O1460  O     0.70030   0.95409   0.73106   0.00000  Uiso   1.00
C1461  C     0.79121   0.71646   0.67865   0.00000  Uiso   1.00
O1462  O     0.75750   0.73346   0.68408   0.00000  Uiso   1.00
O1463  O     0.80755   0.71758   0.63649   0.00000  Uiso   1.00
H1464  H     0.78852   0.73325   0.61310   0.00000  Uiso   1.00
C1465  C     0.87545   0.95021   0.82136   0.00000  Uiso   1.00
O1466  O     0.90916   0.93320   0.81592   0.00000  Uiso   1.00
O1467  O     0.85912   0.94910   0.86351   0.00000  Uiso   1.00
H1468  H     0.87814   0.93344   0.88691   0.00000  Uiso   1.00
C1469  C     0.87184   0.71403   0.82357   0.00000  Uiso   1.00
O1470  O     0.90387   0.73426   0.82033   0.00000  Uiso   1.00
O1471  O     0.85365   0.71205   0.86469   0.00000  Uiso   1.00
H1472  H     0.86988   0.72883   0.88915   0.00000  Uiso   1.00
C1473  C     0.79484   0.95263   0.67642   0.00000  Uiso   1.00
O1474  O     0.76282   0.93237   0.67966   0.00000  Uiso   1.00
O1475  O     0.81304   0.95464   0.63530   0.00000  Uiso   1.00
H1476  H     0.79681   0.93785   0.61084   0.00000  Uiso   1.00
loop_
_geom_bond_atom_site_label_1
_geom_bond_atom_site_label_2
_geom_bond_distance
_geom_bond_site_symmetry_2
_ccdc_geom_bond_type
C1     O44     1.312   .     A
C1     O41     1.307   .     A
C1     C10     1.483   .     S
C2     O43     1.312   .     A
C2     O42     1.307   .     A
C2     C9      1.483   .     S
C3     C28     1.409   .     A
C3     H37     1.079   .     S
C3     C767    1.389   1_554 S
C4     C27     1.409   .     A
C4     H38     1.079   .     S
C4     C768    1.389   .     S
C5     C55     1.489   .     S
C5     C10     1.416   .     A
C5     C171    1.405   1_455 S
C6     C58     1.489   .     S
C6     C9      1.416   .     A
C6     C90     1.405   .     S
C7     C61     1.490   .     S
C7     C9      1.420   .     A
C7     C87     1.405   .     S
C8     C64     1.490   .     S
C8     C10     1.420   .     A
C8     C170    1.405   1_455 S
C11    C67     1.477   .     S
C11    N40     1.377   .     A
C11    C506    1.427   1_545 S
C12    C71     1.477   .     S
C12    N39     1.377   .     A
C12    C259    1.427   .     S
C13    N40     1.378   .     A
C13    C75     1.476   .     S
C13    C504    1.427   1_545 S
C14    N39     1.378   .     A
C14    C79     1.476   .     S
C14    C257    1.427   .     S
C15    O48     1.299   .     A
C15    C20     1.444   .     S
C15    O45     1.299   .     A
C16    O47     1.299   .     A
C16    O46     1.299   .     A
C16    C19     1.445   .     S
C17    C27     1.417   .     A
C17    C49     1.492   .     S
C17    C19     1.411   .     A
C18    C52     1.492   .     S
C18    C28     1.417   .     A
C18    C20     1.411   .     A
C19    C21     1.391   .     A
C20    C22     1.391   .     A
C21    H33     1.086   .     S
C21    C23     1.387   .     A
C22    H34     1.086   .     S
C22    C24     1.387   .     A
C23    C29     1.397   .     A
C23    C25     1.410   .     A
C24    C26     1.410   .     A
C24    C30     1.397   .     A
C25    C27     1.422   .     A
C25    C764    1.410   .     S
C26    C28     1.422   .     A
C26    C763    1.410   1_554 S
C29    H35     1.084   .     S
C29    C741    1.389   .     S
C30    H36     1.084   .     S
C30    C742    1.389   1_554 S
Cu31   O43     1.978   .     S
Cu31   O47     1.954   .     S
Cu31   Cu32    2.714   .     S
Cu31   O41     1.985   .     S
Cu31   N39     2.040   .     S
Cu31   O45     1.956   .     S
Cu32   O48     1.954   .     S
Cu32   O44     1.978   .     S
Cu32   O46     1.956   .     S
Cu32   N40     2.040   .     S
Cu32   O42     1.985   .     S
C49    O51     1.221   .     D
C49    H50     1.084   .     S
C52    O54     1.221   .     D
C52    H53     1.084   .     S
C55    H56     1.086   .     S
C55    O57     1.220   .     D
C58    O60     1.220   .     D
C58    H59     1.086   .     S
C61    O63     1.220   .     D
C61    H62     1.086   .     S
C64    O66     1.220   .     D
C64    H65     1.086   .     S
C67    O68     1.221   .     D
C67    O69     1.398   .     S
O69    H70     1.013   .     S
C71    O72     1.221   .     D
C71    O73     1.398   .     S
O73    H74     1.013   .     S
C75    O76     1.219   .     D
C75    O77     1.398   .     S
O77    H78     1.014   .     S
C79    O81     1.398   .     S
C79    O80     1.219   .     D
O81    H82     1.014   .     S
C83    O126    1.312   .     A
C83    O123    1.307   .     A
C83    C92     1.483   .     S
C84    O125    1.312   .     A
C84    O124    1.307   .     A
C84    C91     1.483   .     S
C85    C110    1.409   .     A
C85    H119    1.079   .     S
C85    C849    1.389   1_554 S
C86    C109    1.409   .     A
C86    H120    1.079   .     S
C86    C850    1.389   .     S
C87    C137    1.489   .     S
C87    C92     1.416   .     A
C88    C140    1.489   .     S
C88    C91     1.416   .     A
C88    C172    1.405   .     S
C89    C143    1.490   .     S
C89    C91     1.420   .     A
C89    C169    1.405   .     S
C90    C146    1.490   .     S
C90    C92     1.420   .     A
C93    C149    1.477   .     S
C93    N122    1.377   .     A
C93    C588    1.427   1_545 S
C94    C153    1.477   .     S
C94    N121    1.377   .     A
C94    C341    1.427   .     S
C95    N122    1.378   .     A
C95    C157    1.476   .     S
C95    C586    1.427   1_545 S
C96    N121    1.378   .     A
C96    C161    1.476   .     S
C96    C339    1.427   .     S
C97    O130    1.299   .     A
C97    C102    1.444   .     S
C97    O127    1.299   .     A
C98    O129    1.299   .     A
C98    O128    1.299   .     A
C98    C101    1.445   .     S
C99    C109    1.417   .     A
C99    C131    1.492   .     S
C99    C101    1.411   .     A
C100   C134    1.492   .     S
C100   C110    1.417   .     A
C100   C102    1.411   .     A
C101   C103    1.391   .     A
C102   C104    1.391   .     A
C103   H115    1.086   .     S
C103   C105    1.387   .     A
C104   H116    1.086   .     S
C104   C106    1.387   .     A
C105   C111    1.397   .     A
C105   C107    1.410   .     A
C106   C108    1.410   .     A
C106   C112    1.397   .     A
C107   C109    1.422   .     A
C107   C846    1.410   .     S
C108   C110    1.422   .     A
C108   C845    1.410   1_554 S
C111   H117    1.084   .     S
C111   C823    1.389   .     S
C112   H118    1.084   .     S
C112   C824    1.389   1_554 S
Cu113  O125    1.978   .     S
Cu113  O129    1.954   .     S
Cu113  Cu114   2.714   .     S
Cu113  O123    1.985   .     S
Cu113  N121    2.040   .     S
Cu113  O127    1.956   .     S
Cu114  O130    1.954   .     S
Cu114  O126    1.978   .     S
Cu114  O128    1.956   .     S
Cu114  N122    2.040   .     S
Cu114  O124    1.985   .     S
C131   O133    1.221   .     D
C131   H132    1.084   .     S
C134   O136    1.221   .     D
C134   H135    1.084   .     S
C137   H138    1.086   .     S
C137   O139    1.220   .     D
C140   O142    1.220   .     D
C140   H141    1.086   .     S
C143   O145    1.220   .     D
C143   H144    1.086   .     S
C146   O148    1.220   .     D
C146   H147    1.086   .     S
C149   O150    1.221   .     D
C149   O151    1.398   .     S
O151   H152    1.013   .     S
C153   O154    1.221   .     D
C153   O155    1.398   .     S
O155   H156    1.013   .     S
C157   O158    1.219   .     D
C157   O159    1.398   .     S
O159   H160    1.014   .     S
C161   O163    1.398   .     S
C161   O162    1.219   .     D
O163   H164    1.014   .     S
C165   O208    1.312   .     A
C165   O205    1.307   .     A
C165   C174    1.483   .     S
C166   O207    1.312   .     A
C166   O206    1.307   .     A
C166   C173    1.483   .     S
C167   C192    1.409   .     A
C167   H201    1.079   .     S
C167   C931    1.389   1_554 S
C168   C191    1.409   .     A
C168   H202    1.079   .     S
C168   C932    1.389   .     S
C169   C219    1.489   .     S
C169   C174    1.416   .     A
C170   C222    1.489   .     S
C170   C173    1.416   .     A
C170   C8      1.405   1_655 S
C171   C225    1.490   .     S
C171   C173    1.420   .     A
C171   C5      1.405   1_655 S
C172   C228    1.490   .     S
C172   C174    1.420   .     A
C175   C231    1.477   .     S
C175   N204    1.377   .     A
C175   C670    1.427   1_545 S
C176   C235    1.477   .     S
C176   N203    1.377   .     A
C176   C423    1.427   .     S
C177   N204    1.378   .     A
C177   C239    1.476   .     S
C177   C668    1.427   1_545 S
C178   N203    1.378   .     A
C178   C243    1.476   .     S
C178   C421    1.427   .     S
C179   O212    1.299   .     A
C179   C184    1.444   .     S
C179   O209    1.299   .     A
C180   O211    1.299   .     A
C180   O210    1.299   .     A
C180   C183    1.445   .     S
C181   C191    1.417   .     A
C181   C213    1.492   .     S
C181   C183    1.411   .     A
C182   C216    1.492   .     S
C182   C192    1.417   .     A
C182   C184    1.411   .     A
C183   C185    1.391   .     A
C184   C186    1.391   .     A
C185   H197    1.086   .     S
C185   C187    1.387   .     A
C186   H198    1.086   .     S
C186   C188    1.387   .     A
C187   C193    1.397   .     A
C187   C189    1.410   .     A
C188   C190    1.410   .     A
C188   C194    1.397   .     A
C189   C191    1.422   .     A
C189   C928    1.410   .     S
C190   C192    1.422   .     A
C190   C927    1.410   1_554 S
C193   H199    1.084   .     S
C193   C905    1.389   .     S
C194   H200    1.084   .     S
C194   C906    1.389   1_554 S
Cu195  O207    1.978   .     S
Cu195  O211    1.954   .     S
Cu195  Cu196   2.714   .     S
Cu195  O205    1.985   .     S
Cu195  N203    2.040   .     S
Cu195  O209    1.956   .     S
Cu196  O212    1.954   .     S
Cu196  O208    1.978   .     S
Cu196  O210    1.956   .     S
Cu196  N204    2.040   .     S
Cu196  O206    1.985   .     S
C213   O215    1.221   .     D
C213   H214    1.084   .     S
C216   O218    1.221   .     D
C216   H217    1.084   .     S
C219   H220    1.086   .     S
C219   O221    1.220   .     D
C222   O224    1.220   .     D
C222   H223    1.086   .     S
C225   O227    1.220   .     D
C225   H226    1.086   .     S
C228   O230    1.220   .     D
C228   H229    1.086   .     S
C231   O232    1.221   .     D
C231   O233    1.398   .     S
O233   H234    1.013   .     S
C235   O236    1.221   .     D
C235   O237    1.398   .     S
O237   H238    1.013   .     S
C239   O240    1.219   .     D
C239   O241    1.398   .     S
O241   H242    1.014   .     S
C243   O245    1.398   .     S
C243   O244    1.219   .     D
O245   H246    1.014   .     S
C247   O290    1.312   .     A
C247   O287    1.307   .     A
C247   C256    1.483   .     S
C248   O289    1.312   .     A
C248   O288    1.307   .     A
C248   C255    1.483   .     S
C249   C274    1.409   .     A
C249   H283    1.079   .     S
C249   C1013   1.389   1_554 S
C250   C273    1.409   .     A
C250   H284    1.079   .     S
C250   C1014   1.389   .     S
C251   C301    1.489   .     S
C251   C256    1.416   .     A
C251   C417    1.405   1_455 S
C252   C304    1.489   .     S
C252   C255    1.416   .     A
C252   C336    1.405   .     S
C253   C307    1.490   .     S
C253   C255    1.420   .     A
C253   C333    1.405   .     S
C254   C310    1.490   .     S
C254   C256    1.420   .     A
C254   C416    1.405   1_455 S
C257   C313    1.477   .     S
C257   N286    1.377   .     A
C258   C317    1.477   .     S
C258   N285    1.377   .     A
C258   C505    1.427   .     S
C259   N286    1.378   .     A
C259   C321    1.476   .     S
C260   N285    1.378   .     A
C260   C325    1.476   .     S
C260   C503    1.427   .     S
C261   O294    1.299   .     A
C261   C266    1.444   .     S
C261   O291    1.299   .     A
C262   O293    1.299   .     A
C262   O292    1.299   .     A
C262   C265    1.445   .     S
C263   C273    1.417   .     A
C263   C295    1.492   .     S
C263   C265    1.411   .     A
C264   C298    1.492   .     S
C264   C274    1.417   .     A
C264   C266    1.411   .     A
C265   C267    1.391   .     A
C266   C268    1.391   .     A
C267   H279    1.086   .     S
C267   C269    1.387   .     A
C268   H280    1.086   .     S
C268   C270    1.387   .     A
C269   C275    1.397   .     A
C269   C271    1.410   .     A
C270   C272    1.410   .     A
C270   C276    1.397   .     A
C271   C273    1.422   .     A
C271   C1010   1.410   .     S
C272   C274    1.422   .     A
C272   C1009   1.410   1_554 S
C275   H281    1.084   .     S
C275   C987    1.389   .     S
C276   H282    1.084   .     S
C276   C988    1.389   1_554 S
Cu277  O289    1.978   .     S
Cu277  O293    1.954   .     S
Cu277  Cu278   2.714   .     S
Cu277  O287    1.985   .     S
Cu277  N285    2.040   .     S
Cu277  O291    1.956   .     S
Cu278  O294    1.954   .     S
Cu278  O290    1.978   .     S
Cu278  O292    1.956   .     S
Cu278  N286    2.040   .     S
Cu278  O288    1.985   .     S
C295   O297    1.221   .     D
C295   H296    1.084   .     S
C298   O300    1.221   .     D
C298   H299    1.084   .     S
C301   H302    1.086   .     S
C301   O303    1.220   .     D
C304   O306    1.220   .     D
C304   H305    1.086   .     S
C307   O309    1.220   .     D
C307   H308    1.086   .     S
C310   O312    1.220   .     D
C310   H311    1.086   .     S
C313   O314    1.221   .     D
C313   O315    1.398   .     S
O315   H316    1.013   .     S
C317   O318    1.221   .     D
C317   O319    1.398   .     S
O319   H320    1.013   .     S
C321   O322    1.219   .     D
C321   O323    1.398   .     S
O323   H324    1.014   .     S
C325   O327    1.398   .     S
C325   O326    1.219   .     D
O327   H328    1.014   .     S
C329   O372    1.312   .     A
C329   O369    1.307   .     A
C329   C338    1.483   .     S
C330   O371    1.312   .     A
C330   O370    1.307   .     A
C330   C337    1.483   .     S
C331   C356    1.409   .     A
C331   H365    1.079   .     S
C331   C1095   1.389   1_554 S
C332   C355    1.409   .     A
C332   H366    1.079   .     S
C332   C1096   1.389   .     S
C333   C383    1.489   .     S
C333   C338    1.416   .     A
C334   C386    1.489   .     S
C334   C337    1.416   .     A
C334   C418    1.405   .     S
C335   C389    1.490   .     S
C335   C337    1.420   .     A
C335   C415    1.405   .     S
C336   C392    1.490   .     S
C336   C338    1.420   .     A
C339   C395    1.477   .     S
C339   N368    1.377   .     A
C340   C399    1.477   .     S
C340   N367    1.377   .     A
C340   C587    1.427   .     S
C341   N368    1.378   .     A
C341   C403    1.476   .     S
C342   N367    1.378   .     A
C342   C407    1.476   .     S
C342   C585    1.427   .     S
C343   O376    1.299   .     A
C343   C348    1.444   .     S
C343   O373    1.299   .     A
C344   O375    1.299   .     A
C344   O374    1.299   .     A
C344   C347    1.445   .     S
C345   C355    1.417   .     A
C345   C377    1.492   .     S
C345   C347    1.411   .     A
C346   C380    1.492   .     S
C346   C356    1.417   .     A
C346   C348    1.411   .     A
C347   C349    1.391   .     A
C348   C350    1.391   .     A
C349   H361    1.086   .     S
C349   C351    1.387   .     A
C350   H362    1.086   .     S
C350   C352    1.387   .     A
C351   C357    1.397   .     A
C351   C353    1.410   .     A
C352   C354    1.410   .     A
C352   C358    1.397   .     A
C353   C355    1.422   .     A
C353   C1092   1.410   .     S
C354   C356    1.422   .     A
C354   C1091   1.410   1_554 S
C357   H363    1.084   .     S
C357   C1069   1.389   .     S
C358   H364    1.084   .     S
C358   C1070   1.389   1_554 S
Cu359  O371    1.978   .     S
Cu359  O375    1.954   .     S
Cu359  Cu360   2.714   .     S
Cu359  O369    1.985   .     S
Cu359  N367    2.040   .     S
Cu359  O373    1.956   .     S
Cu360  O376    1.954   .     S
Cu360  O372    1.978   .     S
Cu360  O374    1.956   .     S
Cu360  N368    2.040   .     S
Cu360  O370    1.985   .     S
C377   O379    1.221   .     D
C377   H378    1.084   .     S
C380   O382    1.221   .     D
C380   H381    1.084   .     S
C383   H384    1.086   .     S
C383   O385    1.220   .     D
C386   O388    1.220   .     D
C386   H387    1.086   .     S
C389   O391    1.220   .     D
C389   H390    1.086   .     S
C392   O394    1.220   .     D
C392   H393    1.086   .     S
C395   O396    1.221   .     D
C395   O397    1.398   .     S
O397   H398    1.013   .     S
C399   O400    1.221   .     D
C399   O401    1.398   .     S
O401   H402    1.013   .     S
C403   O404    1.219   .     D
C403   O405    1.398   .     S
O405   H406    1.014   .     S
C407   O409    1.398   .     S
C407   O408    1.219   .     D
O409   H410    1.014   .     S
C411   O454    1.312   .     A
C411   O451    1.307   .     A
C411   C420    1.483   .     S
C412   O453    1.312   .     A
C412   O452    1.307   .     A
C412   C419    1.483   .     S
C413   C438    1.409   .     A
C413   H447    1.079   .     S
C413   C1177   1.389   1_554 S
C414   C437    1.409   .     A
C414   H448    1.079   .     S
C414   C1178   1.389   .     S
C415   C465    1.489   .     S
C415   C420    1.416   .     A
C416   C468    1.489   .     S
C416   C419    1.416   .     A
C416   C254    1.405   1_655 S
C417   C471    1.490   .     S
C417   C419    1.420   .     A
C417   C251    1.405   1_655 S
C418   C474    1.490   .     S
C418   C420    1.420   .     A
C421   C477    1.477   .     S
C421   N450    1.377   .     A
C422   C481    1.477   .     S
C422   N449    1.377   .     A
C422   C669    1.427   .     S
C423   N450    1.378   .     A
C423   C485    1.476   .     S
C424   N449    1.378   .     A
C424   C489    1.476   .     S
C424   C667    1.427   .     S
C425   O458    1.299   .     A
C425   C430    1.444   .     S
C425   O455    1.299   .     A
C426   O457    1.299   .     A
C426   O456    1.299   .     A
C426   C429    1.445   .     S
C427   C437    1.417   .     A
C427   C459    1.492   .     S
C427   C429    1.411   .     A
C428   C462    1.492   .     S
C428   C438    1.417   .     A
C428   C430    1.411   .     A
C429   C431    1.391   .     A
C430   C432    1.391   .     A
C431   H443    1.086   .     S
C431   C433    1.387   .     A
C432   H444    1.086   .     S
C432   C434    1.387   .     A
C433   C439    1.397   .     A
C433   C435    1.410   .     A
C434   C436    1.410   .     A
C434   C440    1.397   .     A
C435   C437    1.422   .     A
C435   C1174   1.410   .     S
C436   C438    1.422   .     A
C436   C1173   1.410   1_554 S
C439   H445    1.084   .     S
C439   C1151   1.389   .     S
C440   H446    1.084   .     S
C440   C1152   1.389   1_554 S
Cu441  O453    1.978   .     S
Cu441  O457    1.954   .     S
Cu441  Cu442   2.714   .     S
Cu441  O451    1.985   .     S
Cu441  N449    2.040   .     S
Cu441  O455    1.956   .     S
Cu442  O458    1.954   .     S
Cu442  O454    1.978   .     S
Cu442  O456    1.956   .     S
Cu442  N450    2.040   .     S
Cu442  O452    1.985   .     S
C459   O461    1.221   .     D
C459   H460    1.084   .     S
C462   O464    1.221   .     D
C462   H463    1.084   .     S
C465   H466    1.086   .     S
C465   O467    1.220   .     D
C468   O470    1.220   .     D
C468   H469    1.086   .     S
C471   O473    1.220   .     D
C471   H472    1.086   .     S
C474   O476    1.220   .     D
C474   H475    1.086   .     S
C477   O478    1.221   .     D
C477   O479    1.398   .     S
O479   H480    1.013   .     S
C481   O482    1.221   .     D
C481   O483    1.398   .     S
O483   H484    1.013   .     S
C485   O486    1.219   .     D
C485   O487    1.398   .     S
O487   H488    1.014   .     S
C489   O491    1.398   .     S
C489   O490    1.219   .     D
O491   H492    1.014   .     S
C493   O536    1.312   .     A
C493   O533    1.307   .     A
C493   C502    1.483   .     S
C494   O535    1.312   .     A
C494   O534    1.307   .     A
C494   C501    1.483   .     S
C495   C520    1.409   .     A
C495   H529    1.079   .     S
C495   C1259   1.389   1_554 S
C496   C519    1.409   .     A
C496   H530    1.079   .     S
C496   C1260   1.389   .     S
C497   C547    1.489   .     S
C497   C502    1.416   .     A
C497   C663    1.405   1_455 S
C498   C550    1.489   .     S
C498   C501    1.416   .     A
C498   C582    1.405   .     S
C499   C553    1.490   .     S
C499   C501    1.420   .     A
C499   C579    1.405   .     S
C500   C556    1.490   .     S
C500   C502    1.420   .     A
C500   C662    1.405   1_455 S
C503   C559    1.477   .     S
C503   N532    1.377   .     A
C504   C563    1.477   .     S
C504   N531    1.377   .     A
C504   C13     1.427   1_565 S
C505   N532    1.378   .     A
C505   C567    1.476   .     S
C506   N531    1.378   .     A
C506   C571    1.476   .     S
C506   C11     1.427   1_565 S
C507   O540    1.299   .     A
C507   C512    1.444   .     S
C507   O537    1.299   .     A
C508   O539    1.299   .     A
C508   O538    1.299   .     A
C508   C511    1.445   .     S
C509   C519    1.417   .     A
C509   C541    1.492   .     S
C509   C511    1.411   .     A
C510   C544    1.492   .     S
C510   C520    1.417   .     A
C510   C512    1.411   .     A
C511   C513    1.391   .     A
C512   C514    1.391   .     A
C513   H525    1.086   .     S
C513   C515    1.387   .     A
C514   H526    1.086   .     S
C514   C516    1.387   .     A
C515   C521    1.397   .     A
C515   C517    1.410   .     A
C516   C518    1.410   .     A
C516   C522    1.397   .     A
C517   C519    1.422   .     A
C517   C1256   1.410   .     S
C518   C520    1.422   .     A
C518   C1255   1.410   1_554 S
C521   H527    1.084   .     S
C521   C1233   1.389   .     S
C522   H528    1.084   .     S
C522   C1234   1.389   1_554 S
Cu523  O535    1.978   .     S
Cu523  O539    1.954   .     S
Cu523  Cu524   2.714   .     S
Cu523  O533    1.985   .     S
Cu523  N531    2.040   .     S
Cu523  O537    1.956   .     S
Cu524  O540    1.954   .     S
Cu524  O536    1.978   .     S
Cu524  O538    1.956   .     S
Cu524  N532    2.040   .     S
Cu524  O534    1.985   .     S
C541   O543    1.221   .     D
C541   H542    1.084   .     S
C544   O546    1.221   .     D
C544   H545    1.084   .     S
C547   H548    1.086   .     S
C547   O549    1.220   .     D
C550   O552    1.220   .     D
C550   H551    1.086   .     S
C553   O555    1.220   .     D
C553   H554    1.086   .     S
C556   O558    1.220   .     D
C556   H557    1.086   .     S
C559   O560    1.221   .     D
C559   O561    1.398   .     S
O561   H562    1.013   .     S
C563   O564    1.221   .     D
C563   O565    1.398   .     S
O565   H566    1.013   .     S
C567   O568    1.219   .     D
C567   O569    1.398   .     S
O569   H570    1.014   .     S
C571   O573    1.398   .     S
C571   O572    1.219   .     D
O573   H574    1.014   .     S
C575   O618    1.312   .     A
C575   O615    1.307   .     A
C575   C584    1.483   .     S
C576   O617    1.312   .     A
C576   O616    1.307   .     A
C576   C583    1.483   .     S
C577   C602    1.409   .     A
C577   H611    1.079   .     S
C577   C1341   1.389   1_554 S
C578   C601    1.409   .     A
C578   H612    1.079   .     S
C578   C1342   1.389   .     S
C579   C629    1.489   .     S
C579   C584    1.416   .     A
C580   C632    1.489   .     S
C580   C583    1.416   .     A
C580   C664    1.405   .     S
C581   C635    1.490   .     S
C581   C583    1.420   .     A
C581   C661    1.405   .     S
C582   C638    1.490   .     S
C582   C584    1.420   .     A
C585   C641    1.477   .     S
C585   N614    1.377   .     A
C586   C645    1.477   .     S
C586   N613    1.377   .     A
C586   C95     1.427   1_565 S
C587   N614    1.378   .     A
C587   C649    1.476   .     S
C588   N613    1.378   .     A
C588   C653    1.476   .     S
C588   C93     1.427   1_565 S
C589   O622    1.299   .     A
C589   C594    1.444   .     S
C589   O619    1.299   .     A
C590   O621    1.299   .     A
C590   O620    1.299   .     A
C590   C593    1.445   .     S
C591   C601    1.417   .     A
C591   C623    1.492   .     S
C591   C593    1.411   .     A
C592   C626    1.492   .     S
C592   C602    1.417   .     A
C592   C594    1.411   .     A
C593   C595    1.391   .     A
C594   C596    1.391   .     A
C595   H607    1.086   .     S
C595   C597    1.387   .     A
C596   H608    1.086   .     S
C596   C598    1.387   .     A
C597   C603    1.397   .     A
C597   C599    1.410   .     A
C598   C600    1.410   .     A
C598   C604    1.397   .     A
C599   C601    1.422   .     A
C599   C1338   1.410   .     S
C600   C602    1.422   .     A
C600   C1337   1.410   1_554 S
C603   H609    1.084   .     S
C603   C1315   1.389   .     S
C604   H610    1.084   .     S
C604   C1316   1.389   1_554 S
Cu605  O617    1.978   .     S
Cu605  O621    1.954   .     S
Cu605  Cu606   2.714   .     S
Cu605  O615    1.985   .     S
Cu605  N613    2.040   .     S
Cu605  O619    1.956   .     S
Cu606  O622    1.954   .     S
Cu606  O618    1.978   .     S
Cu606  O620    1.956   .     S
Cu606  N614    2.040   .     S
Cu606  O616    1.985   .     S
C623   O625    1.221   .     D
C623   H624    1.084   .     S
C626   O628    1.221   .     D
C626   H627    1.084   .     S
C629   H630    1.086   .     S
C629   O631    1.220   .     D
C632   O634    1.220   .     D
C632   H633    1.086   .     S
C635   O637    1.220   .     D
C635   H636    1.086   .     S
C638   O640    1.220   .     D
C638   H639    1.086   .     S
C641   O642    1.221   .     D
C641   O643    1.398   .     S
O643   H644    1.013   .     S
C645   O646    1.221   .     D
C645   O647    1.398   .     S
O647   H648    1.013   .     S
C649   O650    1.219   .     D
C649   O651    1.398   .     S
O651   H652    1.014   .     S
C653   O655    1.398   .     S
C653   O654    1.219   .     D
O655   H656    1.014   .     S
C657   O700    1.312   .     A
C657   O697    1.307   .     A
C657   C666    1.483   .     S
C658   O699    1.312   .     A
C658   O698    1.307   .     A
C658   C665    1.483   .     S
C659   C684    1.409   .     A
C659   H693    1.079   .     S
C659   C1423   1.389   1_554 S
C660   C683    1.409   .     A
C660   H694    1.079   .     S
C660   C1424   1.389   .     S
C661   C711    1.489   .     S
C661   C666    1.416   .     A
C662   C714    1.489   .     S
C662   C665    1.416   .     A
C662   C500    1.405   1_655 S
C663   C717    1.490   .     S
C663   C665    1.420   .     A
C663   C497    1.405   1_655 S
C664   C720    1.490   .     S
C664   C666    1.420   .     A
C667   C723    1.477   .     S
C667   N696    1.377   .     A
C668   C727    1.477   .     S
C668   N695    1.377   .     A
C668   C177    1.427   1_565 S
C669   N696    1.378   .     A
C669   C731    1.476   .     S
C670   N695    1.378   .     A
C670   C735    1.476   .     S
C670   C175    1.427   1_565 S
C671   O704    1.299   .     A
C671   C676    1.444   .     S
C671   O701    1.299   .     A
C672   O703    1.299   .     A
C672   O702    1.299   .     A
C672   C675    1.445   .     S
C673   C683    1.417   .     A
C673   C705    1.492   .     S
C673   C675    1.411   .     A
C674   C708    1.492   .     S
C674   C684    1.417   .     A
C674   C676    1.411   .     A
C675   C677    1.391   .     A
C676   C678    1.391   .     A
C677   H689    1.086   .     S
C677   C679    1.387   .     A
C678   H690    1.086   .     S
C678   C680    1.387   .     A
C679   C685    1.397   .     A
C679   C681    1.410   .     A
C680   C682    1.410   .     A
C680   C686    1.397   .     A
C681   C683    1.422   .     A
C681   C1420   1.410   .     S
C682   C684    1.422   .     A
C682   C1419   1.410   1_554 S
C685   H691    1.084   .     S
C685   C1397   1.389   .     S
C686   H692    1.084   .     S
C686   C1398   1.389   1_554 S
Cu687  O699    1.978   .     S
Cu687  O703    1.954   .     S
Cu687  Cu688   2.714   .     S
Cu687  O697    1.985   .     S
Cu687  N695    2.040   .     S
Cu687  O701    1.956   .     S
Cu688  O704    1.954   .     S
Cu688  O700    1.978   .     S
Cu688  O702    1.956   .     S
Cu688  N696    2.040   .     S
Cu688  O698    1.985   .     S
C705   O707    1.221   .     D
C705   H706    1.084   .     S
C708   O710    1.221   .     D
C708   H709    1.084   .     S
C711   H712    1.086   .     S
C711   O713    1.220   .     D
C714   O716    1.220   .     D
C714   H715    1.086   .     S
C717   O719    1.220   .     D
C717   H718    1.086   .     S
C720   O722    1.220   .     D
C720   H721    1.086   .     S
C723   O724    1.221   .     D
C723   O725    1.398   .     S
O725   H726    1.013   .     S
C727   O728    1.221   .     D
C727   O729    1.398   .     S
O729   H730    1.013   .     S
C731   O732    1.219   .     D
C731   O733    1.398   .     S
O733   H734    1.014   .     S
C735   O737    1.398   .     S
C735   O736    1.219   .     D
O737   H738    1.014   .     S
C739   O782    1.312   .     A
C739   O779    1.307   .     A
C739   C748    1.483   .     S
C740   O781    1.312   .     A
C740   O780    1.307   .     A
C740   C747    1.483   .     S
C741   C766    1.409   .     A
C741   H775    1.079   .     S
C742   C765    1.409   .     A
C742   H776    1.079   .     S
C742   C30     1.389   1_556 S
C743   C793    1.489   .     S
C743   C748    1.416   .     A
C743   C909    1.405   1_455 S
C744   C796    1.489   .     S
C744   C747    1.416   .     A
C744   C828    1.405   .     S
C745   C799    1.490   .     S
C745   C747    1.420   .     A
C745   C825    1.405   .     S
C746   C802    1.490   .     S
C746   C748    1.420   .     A
C746   C908    1.405   1_455 S
C749   C805    1.477   .     S
C749   N778    1.377   .     A
C749   C1244   1.427   1_545 S
C750   C809    1.477   .     S
C750   N777    1.377   .     A
C750   C997    1.427   .     S
C751   N778    1.378   .     A
C751   C813    1.476   .     S
C751   C1242   1.427   1_545 S
C752   N777    1.378   .     A
C752   C817    1.476   .     S
C752   C995    1.427   .     S
C753   O786    1.299   .     A
C753   C758    1.444   .     S
C753   O783    1.299   .     A
C754   O785    1.299   .     A
C754   O784    1.299   .     A
C754   C757    1.445   .     S
C755   C765    1.417   .     A
C755   C787    1.492   .     S
C755   C757    1.411   .     A
C756   C790    1.492   .     S
C756   C766    1.417   .     A
C756   C758    1.411   .     A
C757   C759    1.391   .     A
C758   C760    1.391   .     A
C759   H771    1.086   .     S
C759   C761    1.387   .     A
C760   H772    1.086   .     S
C760   C762    1.387   .     A
C761   C767    1.397   .     A
C761   C763    1.410   .     A
C762   C764    1.410   .     A
C762   C768    1.397   .     A
C763   C765    1.422   .     A
C763   C26     1.410   1_556 S
C764   C766    1.422   .     A
C767   H773    1.084   .     S
C767   C3      1.389   1_556 S
C768   H774    1.084   .     S
Cu769  O781    1.978   .     S
Cu769  O785    1.954   .     S
Cu769  Cu770   2.714   .     S
Cu769  O779    1.985   .     S
Cu769  N777    2.040   .     S
Cu769  O783    1.956   .     S
Cu770  O786    1.954   .     S
Cu770  O782    1.978   .     S
Cu770  O784    1.956   .     S
Cu770  N778    2.040   .     S
Cu770  O780    1.985   .     S
C787   O789    1.221   .     D
C787   H788    1.084   .     S
C790   O792    1.221   .     D
C790   H791    1.084   .     S
C793   H794    1.086   .     S
C793   O795    1.220   .     D
C796   O798    1.220   .     D
C796   H797    1.086   .     S
C799   O801    1.220   .     D
C799   H800    1.086   .     S
C802   O804    1.220   .     D
C802   H803    1.086   .     S
C805   O806    1.221   .     D
C805   O807    1.398   .     S
O807   H808    1.013   .     S
C809   O810    1.221   .     D
C809   O811    1.398   .     S
O811   H812    1.013   .     S
C813   O814    1.219   .     D
C813   O815    1.398   .     S
O815   H816    1.014   .     S
C817   O819    1.398   .     S
C817   O818    1.219   .     D
O819   H820    1.014   .     S
C821   O864    1.312   .     A
C821   O861    1.307   .     A
C821   C830    1.483   .     S
C822   O863    1.312   .     A
C822   O862    1.307   .     A
C822   C829    1.483   .     S
C823   C848    1.409   .     A
C823   H857    1.079   .     S
C824   C847    1.409   .     A
C824   H858    1.079   .     S
C824   C112    1.389   1_556 S
C825   C875    1.489   .     S
C825   C830    1.416   .     A
C826   C878    1.489   .     S
C826   C829    1.416   .     A
C826   C910    1.405   .     S
C827   C881    1.490   .     S
C827   C829    1.420   .     A
C827   C907    1.405   .     S
C828   C884    1.490   .     S
C828   C830    1.420   .     A
C831   C887    1.477   .     S
C831   N860    1.377   .     A
C831   C1326   1.427   1_545 S
C832   C891    1.477   .     S
C832   N859    1.377   .     A
C832   C1079   1.427   .     S
C833   N860    1.378   .     A
C833   C895    1.476   .     S
C833   C1324   1.427   1_545 S
C834   N859    1.378   .     A
C834   C899    1.476   .     S
C834   C1077   1.427   .     S
C835   O868    1.299   .     A
C835   C840    1.444   .     S
C835   O865    1.299   .     A
C836   O867    1.299   .     A
C836   O866    1.299   .     A
C836   C839    1.445   .     S
C837   C847    1.417   .     A
C837   C869    1.492   .     S
C837   C839    1.411   .     A
C838   C872    1.492   .     S
C838   C848    1.417   .     A
C838   C840    1.411   .     A
C839   C841    1.391   .     A
C840   C842    1.391   .     A
C841   H853    1.086   .     S
C841   C843    1.387   .     A
C842   H854    1.086   .     S
C842   C844    1.387   .     A
C843   C849    1.397   .     A
C843   C845    1.410   .     A
C844   C846    1.410   .     A
C844   C850    1.397   .     A
C845   C847    1.422   .     A
C845   C108    1.410   1_556 S
C846   C848    1.422   .     A
C849   H855    1.084   .     S
C849   C85     1.389   1_556 S
C850   H856    1.084   .     S
Cu851  O863    1.978   .     S
Cu851  O867    1.954   .     S
Cu851  Cu852   2.714   .     S
Cu851  O861    1.985   .     S
Cu851  N859    2.040   .     S
Cu851  O865    1.956   .     S
Cu852  O868    1.954   .     S
Cu852  O864    1.978   .     S
Cu852  O866    1.956   .     S
Cu852  N860    2.040   .     S
Cu852  O862    1.985   .     S
C869   O871    1.221   .     D
C869   H870    1.084   .     S
C872   O874    1.221   .     D
C872   H873    1.084   .     S
C875   H876    1.086   .     S
C875   O877    1.220   .     D
C878   O880    1.220   .     D
C878   H879    1.086   .     S
C881   O883    1.220   .     D
C881   H882    1.086   .     S
C884   O886    1.220   .     D
C884   H885    1.086   .     S
C887   O888    1.221   .     D
C887   O889    1.398   .     S
O889   H890    1.013   .     S
C891   O892    1.221   .     D
C891   O893    1.398   .     S
O893   H894    1.013   .     S
C895   O896    1.219   .     D
C895   O897    1.398   .     S
O897   H898    1.014   .     S
C899   O901    1.398   .     S
C899   O900    1.219   .     D
O901   H902    1.014   .     S
C903   O946    1.312   .     A
C903   O943    1.307   .     A
C903   C912    1.483   .     S
C904   O945    1.312   .     A
C904   O944    1.307   .     A
C904   C911    1.483   .     S
C905   C930    1.409   .     A
C905   H939    1.079   .     S
C906   C929    1.409   .     A
C906   H940    1.079   .     S
C906   C194    1.389   1_556 S
C907   C957    1.489   .     S
C907   C912    1.416   .     A
C908   C960    1.489   .     S
C908   C911    1.416   .     A
C908   C746    1.405   1_655 S
C909   C963    1.490   .     S
C909   C911    1.420   .     A
C909   C743    1.405   1_655 S
C910   C966    1.490   .     S
C910   C912    1.420   .     A
C913   C969    1.477   .     S
C913   N942    1.377   .     A
C913   C1408   1.427   1_545 S
C914   C973    1.477   .     S
C914   N941    1.377   .     A
C914   C1161   1.427   .     S
C915   N942    1.378   .     A
C915   C977    1.476   .     S
C915   C1406   1.427   1_545 S
C916   N941    1.378   .     A
C916   C981    1.476   .     S
C916   C1159   1.427   .     S
C917   O950    1.299   .     A
C917   C922    1.444   .     S
C917   O947    1.299   .     A
C918   O949    1.299   .     A
C918   O948    1.299   .     A
C918   C921    1.445   .     S
C919   C929    1.417   .     A
C919   C951    1.492   .     S
C919   C921    1.411   .     A
C920   C954    1.492   .     S
C920   C930    1.417   .     A
C920   C922    1.411   .     A
C921   C923    1.391   .     A
C922   C924    1.391   .     A
C923   H935    1.086   .     S
C923   C925    1.387   .     A
C924   H936    1.086   .     S
C924   C926    1.387   .     A
C925   C931    1.397   .     A
C925   C927    1.410   .     A
C926   C928    1.410   .     A
C926   C932    1.397   .     A
C927   C929    1.422   .     A
C927   C190    1.410   1_556 S
C928   C930    1.422   .     A
C931   H937    1.084   .     S
C931   C167    1.389   1_556 S
C932   H938    1.084   .     S
Cu933  O945    1.978   .     S
Cu933  O949    1.954   .     S
Cu933  Cu934   2.714   .     S
Cu933  O943    1.985   .     S
Cu933  N941    2.040   .     S
Cu933  O947    1.956   .     S
Cu934  O950    1.954   .     S
Cu934  O946    1.978   .     S
Cu934  O948    1.956   .     S
Cu934  N942    2.040   .     S
Cu934  O944    1.985   .     S
C951   O953    1.221   .     D
C951   H952    1.084   .     S
C954   O956    1.221   .     D
C954   H955    1.084   .     S
C957   H958    1.086   .     S
C957   O959    1.220   .     D
C960   O962    1.220   .     D
C960   H961    1.086   .     S
C963   O965    1.220   .     D
C963   H964    1.086   .     S
C966   O968    1.220   .     D
C966   H967    1.086   .     S
C969   O970    1.221   .     D
C969   O971    1.398   .     S
O971   H972    1.013   .     S
C973   O974    1.221   .     D
C973   O975    1.398   .     S
O975   H976    1.013   .     S
C977   O978    1.219   .     D
C977   O979    1.398   .     S
O979   H980    1.014   .     S
C981   O983    1.398   .     S
C981   O982    1.219   .     D
O983   H984    1.014   .     S
C985   O1028   1.312   .     A
C985   O1025   1.307   .     A
C985   C994    1.483   .     S
C986   O1027   1.312   .     A
C986   O1026   1.307   .     A
C986   C993    1.483   .     S
C987   C1012   1.409   .     A
C987   H1021   1.079   .     S
C988   C1011   1.409   .     A
C988   H1022   1.079   .     S
C988   C276    1.389   1_556 S
C989   C1039   1.489   .     S
C989   C994    1.416   .     A
C989   C1155   1.405   1_455 S
C990   C1042   1.489   .     S
C990   C993    1.416   .     A
C990   C1074   1.405   .     S
C991   C1045   1.490   .     S
C991   C993    1.420   .     A
C991   C1071   1.405   .     S
C992   C1048   1.490   .     S
C992   C994    1.420   .     A
C992   C1154   1.405   1_455 S
C995   C1051   1.477   .     S
C995   N1024   1.377   .     A
C996   C1055   1.477   .     S
C996   N1023   1.377   .     A
C996   C1243   1.427   .     S
C997   N1024   1.378   .     A
C997   C1059   1.476   .     S
C998   N1023   1.378   .     A
C998   C1063   1.476   .     S
C998   C1241   1.427   .     S
C999   O1032   1.299   .     A
C999   C1004   1.444   .     S
C999   O1029   1.299   .     A
C1000  O1031   1.299   .     A
C1000  O1030   1.299   .     A
C1000  C1003   1.445   .     S
C1001  C1011   1.417   .     A
C1001  C1033   1.492   .     S
C1001  C1003   1.411   .     A
C1002  C1036   1.492   .     S
C1002  C1012   1.417   .     A
C1002  C1004   1.411   .     A
C1003  C1005   1.391   .     A
C1004  C1006   1.391   .     A
C1005  H1017   1.086   .     S
C1005  C1007   1.387   .     A
C1006  H1018   1.086   .     S
C1006  C1008   1.387   .     A
C1007  C1013   1.397   .     A
C1007  C1009   1.410   .     A
C1008  C1010   1.410   .     A
C1008  C1014   1.397   .     A
C1009  C1011   1.422   .     A
C1009  C272    1.410   1_556 S
C1010  C1012   1.422   .     A
C1013  H1019   1.084   .     S
C1013  C249    1.389   1_556 S
C1014  H1020   1.084   .     S
Cu1015 O1027   1.978   .     S
Cu1015 O1031   1.954   .     S
Cu1015 Cu1016  2.714   .     S
Cu1015 O1025   1.985   .     S
Cu1015 N1023   2.040   .     S
Cu1015 O1029   1.956   .     S
Cu1016 O1032   1.954   .     S
Cu1016 O1028   1.978   .     S
Cu1016 O1030   1.956   .     S
Cu1016 N1024   2.040   .     S
Cu1016 O1026   1.985   .     S
C1033  O1035   1.221   .     D
C1033  H1034   1.084   .     S
C1036  O1038   1.221   .     D
C1036  H1037   1.084   .     S
C1039  H1040   1.086   .     S
C1039  O1041   1.220   .     D
C1042  O1044   1.220   .     D
C1042  H1043   1.086   .     S
C1045  O1047   1.220   .     D
C1045  H1046   1.086   .     S
C1048  O1050   1.220   .     D
C1048  H1049   1.086   .     S
C1051  O1052   1.221   .     D
C1051  O1053   1.398   .     S
O1053  H1054   1.013   .     S
C1055  O1056   1.221   .     D
C1055  O1057   1.398   .     S
O1057  H1058   1.013   .     S
C1059  O1060   1.219   .     D
C1059  O1061   1.398   .     S
O1061  H1062   1.014   .     S
C1063  O1065   1.398   .     S
C1063  O1064   1.219   .     D
O1065  H1066   1.014   .     S
C1067  O1110   1.312   .     A
C1067  O1107   1.307   .     A
C1067  C1076   1.483   .     S
C1068  O1109   1.312   .     A
C1068  O1108   1.307   .     A
C1068  C1075   1.483   .     S
C1069  C1094   1.409   .     A
C1069  H1103   1.079   .     S
C1070  C1093   1.409   .     A
C1070  H1104   1.079   .     S
C1070  C358    1.389   1_556 S
C1071  C1121   1.489   .     S
C1071  C1076   1.416   .     A
C1072  C1124   1.489   .     S
C1072  C1075   1.416   .     A
C1072  C1156   1.405   .     S
C1073  C1127   1.490   .     S
C1073  C1075   1.420   .     A
C1073  C1153   1.405   .     S
C1074  C1130   1.490   .     S
C1074  C1076   1.420   .     A
C1077  C1133   1.477   .     S
C1077  N1106   1.377   .     A
C1078  C1137   1.477   .     S
C1078  N1105   1.377   .     A
C1078  C1325   1.427   .     S
C1079  N1106   1.378   .     A
C1079  C1141   1.476   .     S
C1080  N1105   1.378   .     A
C1080  C1145   1.476   .     S
C1080  C1323   1.427   .     S
C1081  O1114   1.299   .     A
C1081  C1086   1.444   .     S
C1081  O1111   1.299   .     A
C1082  O1113   1.299   .     A
C1082  O1112   1.299   .     A
C1082  C1085   1.445   .     S
C1083  C1093   1.417   .     A
C1083  C1115   1.492   .     S
C1083  C1085   1.411   .     A
C1084  C1118   1.492   .     S
C1084  C1094   1.417   .     A
C1084  C1086   1.411   .     A
C1085  C1087   1.391   .     A
C1086  C1088   1.391   .     A
C1087  H1099   1.086   .     S
C1087  C1089   1.387   .     A
C1088  H1100   1.086   .     S
C1088  C1090   1.387   .     A
C1089  C1095   1.397   .     A
C1089  C1091   1.410   .     A
C1090  C1092   1.410   .     A
C1090  C1096   1.397   .     A
C1091  C1093   1.422   .     A
C1091  C354    1.410   1_556 S
C1092  C1094   1.422   .     A
C1095  H1101   1.084   .     S
C1095  C331    1.389   1_556 S
C1096  H1102   1.084   .     S
Cu1097 O1109   1.978   .     S
Cu1097 O1113   1.954   .     S
Cu1097 Cu1098  2.714   .     S
Cu1097 O1107   1.985   .     S
Cu1097 N1105   2.040   .     S
Cu1097 O1111   1.956   .     S
Cu1098 O1114   1.954   .     S
Cu1098 O1110   1.978   .     S
Cu1098 O1112   1.956   .     S
Cu1098 N1106   2.040   .     S
Cu1098 O1108   1.985   .     S
C1115  O1117   1.221   .     D
C1115  H1116   1.084   .     S
C1118  O1120   1.221   .     D
C1118  H1119   1.084   .     S
C1121  H1122   1.086   .     S
C1121  O1123   1.220   .     D
C1124  O1126   1.220   .     D
C1124  H1125   1.086   .     S
C1127  O1129   1.220   .     D
C1127  H1128   1.086   .     S
C1130  O1132   1.220   .     D
C1130  H1131   1.086   .     S
C1133  O1134   1.221   .     D
C1133  O1135   1.398   .     S
O1135  H1136   1.013   .     S
C1137  O1138   1.221   .     D
C1137  O1139   1.398   .     S
O1139  H1140   1.013   .     S
C1141  O1142   1.219   .     D
C1141  O1143   1.398   .     S
O1143  H1144   1.014   .     S
C1145  O1147   1.398   .     S
C1145  O1146   1.219   .     D
O1147  H1148   1.014   .     S
C1149  O1192   1.312   .     A
C1149  O1189   1.307   .     A
C1149  C1158   1.483   .     S
C1150  O1191   1.312   .     A
C1150  O1190   1.307   .     A
C1150  C1157   1.483   .     S
C1151  C1176   1.409   .     A
C1151  H1185   1.079   .     S
C1152  C1175   1.409   .     A
C1152  H1186   1.079   .     S
C1152  C440    1.389   1_556 S
C1153  C1203   1.489   .     S
C1153  C1158   1.416   .     A
C1154  C1206   1.489   .     S
C1154  C1157   1.416   .     A
C1154  C992    1.405   1_655 S
C1155  C1209   1.490   .     S
C1155  C1157   1.420   .     A
C1155  C989    1.405   1_655 S
C1156  C1212   1.490   .     S
C1156  C1158   1.420   .     A
C1159  C1215   1.477   .     S
C1159  N1188   1.377   .     A
C1160  C1219   1.477   .     S
C1160  N1187   1.377   .     A
C1160  C1407   1.427   .     S
C1161  N1188   1.378   .     A
C1161  C1223   1.476   .     S
C1162  N1187   1.378   .     A
C1162  C1227   1.476   .     S
C1162  C1405   1.427   .     S
C1163  O1196   1.299   .     A
C1163  C1168   1.444   .     S
C1163  O1193   1.299   .     A
C1164  O1195   1.299   .     A
C1164  O1194   1.299   .     A
C1164  C1167   1.445   .     S
C1165  C1175   1.417   .     A
C1165  C1197   1.492   .     S
C1165  C1167   1.411   .     A
C1166  C1200   1.492   .     S
C1166  C1176   1.417   .     A
C1166  C1168   1.411   .     A
C1167  C1169   1.391   .     A
C1168  C1170   1.391   .     A
C1169  H1181   1.086   .     S
C1169  C1171   1.387   .     A
C1170  H1182   1.086   .     S
C1170  C1172   1.387   .     A
C1171  C1177   1.397   .     A
C1171  C1173   1.410   .     A
C1172  C1174   1.410   .     A
C1172  C1178   1.397   .     A
C1173  C1175   1.422   .     A
C1173  C436    1.410   1_556 S
C1174  C1176   1.422   .     A
C1177  H1183   1.084   .     S
C1177  C413    1.389   1_556 S
C1178  H1184   1.084   .     S
Cu1179 O1191   1.978   .     S
Cu1179 O1195   1.954   .     S
Cu1179 Cu1180  2.714   .     S
Cu1179 O1189   1.985   .     S
Cu1179 N1187   2.040   .     S
Cu1179 O1193   1.956   .     S
Cu1180 O1196   1.954   .     S
Cu1180 O1192   1.978   .     S
Cu1180 O1194   1.956   .     S
Cu1180 N1188   2.040   .     S
Cu1180 O1190   1.985   .     S
C1197  O1199   1.221   .     D
C1197  H1198   1.084   .     S
C1200  O1202   1.221   .     D
C1200  H1201   1.084   .     S
C1203  H1204   1.086   .     S
C1203  O1205   1.220   .     D
C1206  O1208   1.220   .     D
C1206  H1207   1.086   .     S
C1209  O1211   1.220   .     D
C1209  H1210   1.086   .     S
C1212  O1214   1.220   .     D
C1212  H1213   1.086   .     S
C1215  O1216   1.221   .     D
C1215  O1217   1.398   .     S
O1217  H1218   1.013   .     S
C1219  O1220   1.221   .     D
C1219  O1221   1.398   .     S
O1221  H1222   1.013   .     S
C1223  O1224   1.219   .     D
C1223  O1225   1.398   .     S
O1225  H1226   1.014   .     S
C1227  O1229   1.398   .     S
C1227  O1228   1.219   .     D
O1229  H1230   1.014   .     S
C1231  O1274   1.312   .     A
C1231  O1271   1.307   .     A
C1231  C1240   1.483   .     S
C1232  O1273   1.312   .     A
C1232  O1272   1.307   .     A
C1232  C1239   1.483   .     S
C1233  C1258   1.409   .     A
C1233  H1267   1.079   .     S
C1234  C1257   1.409   .     A
C1234  H1268   1.079   .     S
C1234  C522    1.389   1_556 S
C1235  C1285   1.489   .     S
C1235  C1240   1.416   .     A
C1235  C1401   1.405   1_455 S
C1236  C1288   1.489   .     S
C1236  C1239   1.416   .     A
C1236  C1320   1.405   .     S
C1237  C1291   1.490   .     S
C1237  C1239   1.420   .     A
C1237  C1317   1.405   .     S
C1238  C1294   1.490   .     S
C1238  C1240   1.420   .     A
C1238  C1400   1.405   1_455 S
C1241  C1297   1.477   .     S
C1241  N1270   1.377   .     A
C1242  C1301   1.477   .     S
C1242  N1269   1.377   .     A
C1242  C751    1.427   1_565 S
C1243  N1270   1.378   .     A
C1243  C1305   1.476   .     S
C1244  N1269   1.378   .     A
C1244  C1309   1.476   .     S
C1244  C749    1.427   1_565 S
C1245  O1278   1.299   .     A
C1245  C1250   1.444   .     S
C1245  O1275   1.299   .     A
C1246  O1277   1.299   .     A
C1246  O1276   1.299   .     A
C1246  C1249   1.445   .     S
C1247  C1257   1.417   .     A
C1247  C1279   1.492   .     S
C1247  C1249   1.411   .     A
C1248  C1282   1.492   .     S
C1248  C1258   1.417   .     A
C1248  C1250   1.411   .     A
C1249  C1251   1.391   .     A
C1250  C1252   1.391   .     A
C1251  H1263   1.086   .     S
C1251  C1253   1.387   .     A
C1252  H1264   1.086   .     S
C1252  C1254   1.387   .     A
C1253  C1259   1.397   .     A
C1253  C1255   1.410   .     A
C1254  C1256   1.410   .     A
C1254  C1260   1.397   .     A
C1255  C1257   1.422   .     A
C1255  C518    1.410   1_556 S
C1256  C1258   1.422   .     A
C1259  H1265   1.084   .     S
C1259  C495    1.389   1_556 S
C1260  H1266   1.084   .     S
Cu1261 O1273   1.978   .     S
Cu1261 O1277   1.954   .     S
Cu1261 Cu1262  2.714   .     S
Cu1261 O1271   1.985   .     S
Cu1261 N1269   2.040   .     S
Cu1261 O1275   1.956   .     S
Cu1262 O1278   1.954   .     S
Cu1262 O1274   1.978   .     S
Cu1262 O1276   1.956   .     S
Cu1262 N1270   2.040   .     S
Cu1262 O1272   1.985   .     S
C1279  O1281   1.221   .     D
C1279  H1280   1.084   .     S
C1282  O1284   1.221   .     D
C1282  H1283   1.084   .     S
C1285  H1286   1.086   .     S
C1285  O1287   1.220   .     D
C1288  O1290   1.220   .     D
C1288  H1289   1.086   .     S
C1291  O1293   1.220   .     D
C1291  H1292   1.086   .     S
C1294  O1296   1.220   .     D
C1294  H1295   1.086   .     S
C1297  O1298   1.221   .     D
C1297  O1299   1.398   .     S
O1299  H1300   1.013   .     S
C1301  O1302   1.221   .     D
C1301  O1303   1.398   .     S
O1303  H1304   1.013   .     S
C1305  O1306   1.219   .     D
C1305  O1307   1.398   .     S
O1307  H1308   1.014   .     S
C1309  O1311   1.398   .     S
C1309  O1310   1.219   .     D
O1311  H1312   1.014   .     S
C1313  O1356   1.312   .     A
C1313  O1353   1.307   .     A
C1313  C1322   1.483   .     S
C1314  O1355   1.312   .     A
C1314  O1354   1.307   .     A
C1314  C1321   1.483   .     S
C1315  C1340   1.409   .     A
C1315  H1349   1.079   .     S
C1316  C1339   1.409   .     A
C1316  H1350   1.079   .     S
C1316  C604    1.389   1_556 S
C1317  C1367   1.489   .     S
C1317  C1322   1.416   .     A
C1318  C1370   1.489   .     S
C1318  C1321   1.416   .     A
C1318  C1402   1.405   .     S
C1319  C1373   1.490   .     S
C1319  C1321   1.420   .     A
C1319  C1399   1.405   .     S
C1320  C1376   1.490   .     S
C1320  C1322   1.420   .     A
C1323  C1379   1.477   .     S
C1323  N1352   1.377   .     A
C1324  C1383   1.477   .     S
C1324  N1351   1.377   .     A
C1324  C833    1.427   1_565 S
C1325  N1352   1.378   .     A
C1325  C1387   1.476   .     S
C1326  N1351   1.378   .     A
C1326  C1391   1.476   .     S
C1326  C831    1.427   1_565 S
C1327  O1360   1.299   .     A
C1327  C1332   1.444   .     S
C1327  O1357   1.299   .     A
C1328  O1359   1.299   .     A
C1328  O1358   1.299   .     A
C1328  C1331   1.445   .     S
C1329  C1339   1.417   .     A
C1329  C1361   1.492   .     S
C1329  C1331   1.411   .     A
C1330  C1364   1.492   .     S
C1330  C1340   1.417   .     A
C1330  C1332   1.411   .     A
C1331  C1333   1.391   .     A
C1332  C1334   1.391   .     A
C1333  H1345   1.086   .     S
C1333  C1335   1.387   .     A
C1334  H1346   1.086   .     S
C1334  C1336   1.387   .     A
C1335  C1341   1.397   .     A
C1335  C1337   1.410   .     A
C1336  C1338   1.410   .     A
C1336  C1342   1.397   .     A
C1337  C1339   1.422   .     A
C1337  C600    1.410   1_556 S
C1338  C1340   1.422   .     A
C1341  H1347   1.084   .     S
C1341  C577    1.389   1_556 S
C1342  H1348   1.084   .     S
Cu1343 O1355   1.978   .     S
Cu1343 O1359   1.954   .     S
Cu1343 Cu1344  2.714   .     S
Cu1343 O1353   1.985   .     S
Cu1343 N1351   2.040   .     S
Cu1343 O1357   1.956   .     S
Cu1344 O1360   1.954   .     S
Cu1344 O1356   1.978   .     S
Cu1344 O1358   1.956   .     S
Cu1344 N1352   2.040   .     S
Cu1344 O1354   1.985   .     S
C1361  O1363   1.221   .     D
C1361  H1362   1.084   .     S
C1364  O1366   1.221   .     D
C1364  H1365   1.084   .     S
C1367  H1368   1.086   .     S
C1367  O1369   1.220   .     D
C1370  O1372   1.220   .     D
C1370  H1371   1.086   .     S
C1373  O1375   1.220   .     D
C1373  H1374   1.086   .     S
C1376  O1378   1.220   .     D
C1376  H1377   1.086   .     S
C1379  O1380   1.221   .     D
C1379  O1381   1.398   .     S
O1381  H1382   1.013   .     S
C1383  O1384   1.221   .     D
C1383  O1385   1.398   .     S
O1385  H1386   1.013   .     S
C1387  O1388   1.219   .     D
C1387  O1389   1.398   .     S
O1389  H1390   1.014   .     S
C1391  O1393   1.398   .     S
C1391  O1392   1.219   .     D
O1393  H1394   1.014   .     S
C1395  O1438   1.312   .     A
C1395  O1435   1.307   .     A
C1395  C1404   1.483   .     S
C1396  O1437   1.312   .     A
C1396  O1436   1.307   .     A
C1396  C1403   1.483   .     S
C1397  C1422   1.409   .     A
C1397  H1431   1.079   .     S
C1398  C1421   1.409   .     A
C1398  H1432   1.079   .     S
C1398  C686    1.389   1_556 S
C1399  C1449   1.489   .     S
C1399  C1404   1.416   .     A
C1400  C1452   1.489   .     S
C1400  C1403   1.416   .     A
C1400  C1238   1.405   1_655 S
C1401  C1455   1.490   .     S
C1401  C1403   1.420   .     A
C1401  C1235   1.405   1_655 S
C1402  C1458   1.490   .     S
C1402  C1404   1.420   .     A
C1405  C1461   1.477   .     S
C1405  N1434   1.377   .     A
C1406  C1465   1.477   .     S
C1406  N1433   1.377   .     A
C1406  C915    1.427   1_565 S
C1407  N1434   1.378   .     A
C1407  C1469   1.476   .     S
C1408  N1433   1.378   .     A
C1408  C1473   1.476   .     S
C1408  C913    1.427   1_565 S
C1409  O1442   1.299   .     A
C1409  C1414   1.444   .     S
C1409  O1439   1.299   .     A
C1410  O1441   1.299   .     A
C1410  O1440   1.299   .     A
C1410  C1413   1.445   .     S
C1411  C1421   1.417   .     A
C1411  C1443   1.492   .     S
C1411  C1413   1.411   .     A
C1412  C1446   1.492   .     S
C1412  C1422   1.417   .     A
C1412  C1414   1.411   .     A
C1413  C1415   1.391   .     A
C1414  C1416   1.391   .     A
C1415  H1427   1.086   .     S
C1415  C1417   1.387   .     A
C1416  H1428   1.086   .     S
C1416  C1418   1.387   .     A
C1417  C1423   1.397   .     A
C1417  C1419   1.410   .     A
C1418  C1420   1.410   .     A
C1418  C1424   1.397   .     A
C1419  C1421   1.422   .     A
C1419  C682    1.410   1_556 S
C1420  C1422   1.422   .     A
C1423  H1429   1.084   .     S
C1423  C659    1.389   1_556 S
C1424  H1430   1.084   .     S
Cu1425 O1437   1.978   .     S
Cu1425 O1441   1.954   .     S
Cu1425 Cu1426  2.714   .     S
Cu1425 O1435   1.985   .     S
Cu1425 N1433   2.040   .     S
Cu1425 O1439   1.956   .     S
Cu1426 O1442   1.954   .     S
Cu1426 O1438   1.978   .     S
Cu1426 O1440   1.956   .     S
Cu1426 N1434   2.040   .     S
Cu1426 O1436   1.985   .     S
C1443  O1445   1.221   .     D
C1443  H1444   1.084   .     S
C1446  O1448   1.221   .     D
C1446  H1447   1.084   .     S
C1449  H1450   1.086   .     S
C1449  O1451   1.220   .     D
C1452  O1454   1.220   .     D
C1452  H1453   1.086   .     S
C1455  O1457   1.220   .     D
C1455  H1456   1.086   .     S
C1458  O1460   1.220   .     D
C1458  H1459   1.086   .     S
C1461  O1462   1.221   .     D
C1461  O1463   1.398   .     S
O1463  H1464   1.013   .     S
C1465  O1466   1.221   .     D
C1465  O1467   1.398   .     S
O1467  H1468   1.013   .     S
C1469  O1470   1.219   .     D
C1469  O1471   1.398   .     S
O1471  H1472   1.014   .     S
C1473  O1475   1.398   .     S
C1473  O1474   1.219   .     D
O1475  H1476   1.014   .     S
