data_str_m2_o10_o17_pcu_sym.118
_audit_creation_date              2020-01-03
_audit_creation_method            'Materials Studio'
_symmetry_space_group_name_H-M    'P1'
_symmetry_Int_Tables_number       1
_symmetry_cell_setting            triclinic
loop_
_symmetry_equiv_pos_as_xyz
  x,y,z
_cell_length_a                    30.1064
_cell_length_b                    26.0873
_cell_length_c                    22.9093
_cell_angle_alpha                 103.6808
_cell_angle_beta                  95.4005
_cell_angle_gamma                 96.3191
loop_
_atom_site_label
_atom_site_type_symbol
_atom_site_fract_x
_atom_site_fract_y
_atom_site_fract_z
_atom_site_U_iso_or_equiv
_atom_site_adp_type
_atom_site_occupancy
C1     C     0.24861   0.06665   0.15090   0.00000  Uiso   1.00
C2     C     0.25141   0.26669   0.18245   0.00000  Uiso   1.00
C3     C     0.00741   0.06922   0.12522   0.00000  Uiso   1.00
C4     C     0.49246   0.26363   0.20838   0.00000  Uiso   1.00
C5     C     0.24810   0.01031   0.14259   0.00000  Uiso   1.00
C6     C     0.25193   0.32304   0.19084   0.00000  Uiso   1.00
C7     C     0.16448   0.16403   0.16622   0.00000  Uiso   1.00
C8     C     0.33549   0.16904   0.16705   0.00000  Uiso   1.00
C9     C     0.41426   0.21815   0.19149   0.00000  Uiso   1.00
C10    C     0.08566   0.11468   0.14173   0.00000  Uiso   1.00
C11    C     0.38405   0.17062   0.16722   0.00000  Uiso   1.00
C12    C     0.11588   0.16228   0.16596   0.00000  Uiso   1.00
C13    C     0.39999   0.12287   0.14333   0.00000  Uiso   1.00
C14    C     0.09990   0.21007   0.18967   0.00000  Uiso   1.00
C15    C     0.44596   0.12055   0.14513   0.00000  Uiso   1.00
C16    C     0.05392   0.21236   0.18799   0.00000  Uiso   1.00
C17    C     0.47670   0.16759   0.16709   0.00000  Uiso   1.00
C18    C     0.02321   0.16530   0.16614   0.00000  Uiso   1.00
C19    C     0.46100   0.21689   0.18957   0.00000  Uiso   1.00
C20    C     0.03891   0.11598   0.14377   0.00000  Uiso   1.00
C21    C     0.46156   0.07165   0.12549   0.00000  Uiso   1.00
C22    C     0.03830   0.26125   0.20777   0.00000  Uiso   1.00
Cu23   Cu    0.25501   0.17246   0.22813   0.00000  Uiso   1.00
Cu24   Cu    0.24500   0.16087   0.10521   0.00000  Uiso   1.00
H25    H     0.37632   0.08720   0.12369   0.00000  Uiso   1.00
H26    H     0.12355   0.24580   0.20909   0.00000  Uiso   1.00
H27    H     0.43827   0.03501   0.11080   0.00000  Uiso   1.00
H28    H     0.06159   0.29791   0.22247   0.00000  Uiso   1.00
H29    H     0.01766   0.03024   0.11070   0.00000  Uiso   1.00
H30    H     0.48214   0.30254   0.22336   0.00000  Uiso   1.00
H31    H     0.24428   0.31901   0.09652   0.00000  Uiso   1.00
H32    H     0.25561   0.01431   0.23694   0.00000  Uiso   1.00
N33    N     0.23745   0.15214   0.01284   0.00000  Uiso   1.00
N34    N     0.26256   0.18119   0.32049   0.00000  Uiso   1.00
O35    O     0.25326   0.09538   0.20659   0.00000  Uiso   1.00
O36    O     0.24675   0.23796   0.12674   0.00000  Uiso   1.00
O37    O     0.24480   0.08559   0.10279   0.00000  Uiso   1.00
O38    O     0.25520   0.24774   0.23055   0.00000  Uiso   1.00
O39    O     0.18936   0.17155   0.21857   0.00000  Uiso   1.00
O40    O     0.31065   0.16179   0.11476   0.00000  Uiso   1.00
O41    O     0.18090   0.16176   0.11477   0.00000  Uiso   1.00
O42    O     0.31910   0.17157   0.21857   0.00000  Uiso   1.00
C43    C     0.39712   0.26918   0.21568   0.00000  Uiso   1.00
C44    C     0.37342   0.29293   0.17606   0.00000  Uiso   1.00
C45    C     0.35983   0.00937   0.19751   0.00000  Uiso   1.00
C46    C     0.36986   0.03595   0.25864   0.00000  Uiso   1.00
C47    C     0.39381   0.01275   0.29843   0.00000  Uiso   1.00
C48    C     0.40747   0.29614   0.27718   0.00000  Uiso   1.00
H49    H     0.36635   0.27319   0.12852   0.00000  Uiso   1.00
H50    H     0.34133   0.02717   0.16668   0.00000  Uiso   1.00
H51    H     0.35914   0.07448   0.27510   0.00000  Uiso   1.00
H52    H     0.40156   0.03342   0.01237   0.00000  Uiso   1.00
H53    H     0.42626   0.27865   0.30835   0.00000  Uiso   1.00
C54    C     0.10267   0.06353   0.11730   0.00000  Uiso   1.00
C55    C     0.09083   0.03566   0.05628   0.00000  Uiso   1.00
C56    C     0.10413   0.31886   0.03504   0.00000  Uiso   1.00
C57    C     0.12892   0.29611   0.07446   0.00000  Uiso   1.00
C58    C     0.14032   0.32345   0.13516   0.00000  Uiso   1.00
C59    C     0.12741   0.04029   0.15644   0.00000  Uiso   1.00
H60    H     0.07113   0.05263   0.02546   0.00000  Uiso   1.00
H61    H     0.09524   0.29756   0.32148   0.00000  Uiso   1.00
H62    H     0.13916   0.25728   0.05809   0.00000  Uiso   1.00
H63    H     0.15927   0.30588   0.16579   0.00000  Uiso   1.00
H64    H     0.13571   0.06068   0.20356   0.00000  Uiso   1.00
N65    N     0.20996   0.10821   0.30907   0.00000  Uiso   1.00
H66    H     0.20109   0.11011   0.26618   0.00000  Uiso   1.00
C67    C     0.17013   0.08990   0.33266   0.00000  Uiso   1.00
H68    H     0.15169   0.05392   0.29973   0.00000  Uiso   1.00
H69    H     0.14747   0.12109   0.00637   0.00000  Uiso   1.00
H70    H     0.17840   0.07722   0.04095   0.00000  Uiso   1.00
N71    N     0.29895   0.21511   0.02252   0.00000  Uiso   1.00
H72    H     0.29891   0.22347   0.06771   0.00000  Uiso   1.00
C73    C     0.31170   0.26351   0.00467   0.00000  Uiso   1.00
H74    H     0.33994   0.28841   0.03718   0.00000  Uiso   1.00
H75    H     0.28312   0.28705   0.00518   0.00000  Uiso   1.00
H76    H     0.32408   0.25468   0.29350   0.00000  Uiso   1.00
C77    C     0.74861   0.06665   0.15090   0.00000  Uiso   1.00
C78    C     0.75141   0.26669   0.18245   0.00000  Uiso   1.00
C79    C     0.50741   0.06922   0.12522   0.00000  Uiso   1.00
C80    C     0.99246   0.26363   0.20838   0.00000  Uiso   1.00
C81    C     0.74810   0.01031   0.14259   0.00000  Uiso   1.00
C82    C     0.75193   0.32304   0.19084   0.00000  Uiso   1.00
C83    C     0.66448   0.16403   0.16622   0.00000  Uiso   1.00
C84    C     0.83549   0.16904   0.16705   0.00000  Uiso   1.00
C85    C     0.91426   0.21815   0.19149   0.00000  Uiso   1.00
C86    C     0.58566   0.11468   0.14173   0.00000  Uiso   1.00
C87    C     0.88405   0.17062   0.16722   0.00000  Uiso   1.00
C88    C     0.61588   0.16228   0.16596   0.00000  Uiso   1.00
C89    C     0.89999   0.12287   0.14333   0.00000  Uiso   1.00
C90    C     0.59990   0.21007   0.18967   0.00000  Uiso   1.00
C91    C     0.94596   0.12055   0.14513   0.00000  Uiso   1.00
C92    C     0.55392   0.21236   0.18799   0.00000  Uiso   1.00
C93    C     0.97670   0.16759   0.16709   0.00000  Uiso   1.00
C94    C     0.52321   0.16530   0.16614   0.00000  Uiso   1.00
C95    C     0.96100   0.21689   0.18957   0.00000  Uiso   1.00
C96    C     0.53891   0.11598   0.14377   0.00000  Uiso   1.00
C97    C     0.96156   0.07165   0.12549   0.00000  Uiso   1.00
C98    C     0.53830   0.26125   0.20777   0.00000  Uiso   1.00
Cu99   Cu    0.75501   0.17246   0.22813   0.00000  Uiso   1.00
Cu100  Cu    0.74500   0.16087   0.10521   0.00000  Uiso   1.00
H101   H     0.87632   0.08720   0.12369   0.00000  Uiso   1.00
H102   H     0.62355   0.24580   0.20909   0.00000  Uiso   1.00
H103   H     0.93827   0.03501   0.11080   0.00000  Uiso   1.00
H104   H     0.56159   0.29791   0.22247   0.00000  Uiso   1.00
H105   H     0.51766   0.03024   0.11070   0.00000  Uiso   1.00
H106   H     0.98214   0.30254   0.22336   0.00000  Uiso   1.00
H107   H     0.74428   0.31901   0.09652   0.00000  Uiso   1.00
H108   H     0.75561   0.01431   0.23694   0.00000  Uiso   1.00
N109   N     0.73745   0.15214   0.01284   0.00000  Uiso   1.00
N110   N     0.76256   0.18119   0.32049   0.00000  Uiso   1.00
O111   O     0.75326   0.09538   0.20659   0.00000  Uiso   1.00
O112   O     0.74675   0.23796   0.12674   0.00000  Uiso   1.00
O113   O     0.74480   0.08559   0.10279   0.00000  Uiso   1.00
O114   O     0.75520   0.24774   0.23055   0.00000  Uiso   1.00
O115   O     0.68936   0.17155   0.21857   0.00000  Uiso   1.00
O116   O     0.81065   0.16179   0.11476   0.00000  Uiso   1.00
O117   O     0.68090   0.16176   0.11477   0.00000  Uiso   1.00
O118   O     0.81910   0.17157   0.21857   0.00000  Uiso   1.00
C119   C     0.89712   0.26918   0.21568   0.00000  Uiso   1.00
C120   C     0.87342   0.29293   0.17606   0.00000  Uiso   1.00
C121   C     0.85983   0.00937   0.19751   0.00000  Uiso   1.00
C122   C     0.86986   0.03595   0.25864   0.00000  Uiso   1.00
C123   C     0.89381   0.01275   0.29843   0.00000  Uiso   1.00
C124   C     0.90747   0.29614   0.27718   0.00000  Uiso   1.00
H125   H     0.86635   0.27319   0.12852   0.00000  Uiso   1.00
H126   H     0.84133   0.02717   0.16668   0.00000  Uiso   1.00
H127   H     0.85914   0.07448   0.27510   0.00000  Uiso   1.00
H128   H     0.90156   0.03342   0.01237   0.00000  Uiso   1.00
H129   H     0.92626   0.27865   0.30835   0.00000  Uiso   1.00
C130   C     0.60267   0.06353   0.11730   0.00000  Uiso   1.00
C131   C     0.59083   0.03566   0.05628   0.00000  Uiso   1.00
C132   C     0.60413   0.31886   0.03504   0.00000  Uiso   1.00
C133   C     0.62892   0.29611   0.07446   0.00000  Uiso   1.00
C134   C     0.64032   0.32345   0.13516   0.00000  Uiso   1.00
C135   C     0.62741   0.04029   0.15644   0.00000  Uiso   1.00
H136   H     0.57113   0.05263   0.02546   0.00000  Uiso   1.00
H137   H     0.59524   0.29756   0.32148   0.00000  Uiso   1.00
H138   H     0.63916   0.25728   0.05809   0.00000  Uiso   1.00
H139   H     0.65927   0.30588   0.16579   0.00000  Uiso   1.00
H140   H     0.63571   0.06068   0.20356   0.00000  Uiso   1.00
N141   N     0.70996   0.10821   0.30907   0.00000  Uiso   1.00
H142   H     0.70109   0.11011   0.26618   0.00000  Uiso   1.00
C143   C     0.67013   0.08990   0.33266   0.00000  Uiso   1.00
H144   H     0.65169   0.05392   0.29973   0.00000  Uiso   1.00
H145   H     0.64747   0.12109   0.00637   0.00000  Uiso   1.00
H146   H     0.67840   0.07722   0.04095   0.00000  Uiso   1.00
N147   N     0.79895   0.21511   0.02252   0.00000  Uiso   1.00
H148   H     0.79891   0.22347   0.06771   0.00000  Uiso   1.00
C149   C     0.81170   0.26351   0.00467   0.00000  Uiso   1.00
H150   H     0.83994   0.28841   0.03718   0.00000  Uiso   1.00
H151   H     0.78312   0.28705   0.00518   0.00000  Uiso   1.00
H152   H     0.82408   0.25468   0.29350   0.00000  Uiso   1.00
C153   C     0.24861   0.39998   0.15090   0.00000  Uiso   1.00
C154   C     0.25141   0.60002   0.18245   0.00000  Uiso   1.00
C155   C     0.00741   0.40256   0.12522   0.00000  Uiso   1.00
C156   C     0.49246   0.59697   0.20838   0.00000  Uiso   1.00
C157   C     0.24810   0.34365   0.14259   0.00000  Uiso   1.00
C158   C     0.25193   0.65638   0.19084   0.00000  Uiso   1.00
C159   C     0.16448   0.49736   0.16622   0.00000  Uiso   1.00
C160   C     0.33549   0.50238   0.16705   0.00000  Uiso   1.00
C161   C     0.41426   0.55148   0.19149   0.00000  Uiso   1.00
C162   C     0.08566   0.44801   0.14173   0.00000  Uiso   1.00
C163   C     0.38405   0.50395   0.16722   0.00000  Uiso   1.00
C164   C     0.11588   0.49561   0.16596   0.00000  Uiso   1.00
C165   C     0.39999   0.45620   0.14333   0.00000  Uiso   1.00
C166   C     0.09990   0.54340   0.18967   0.00000  Uiso   1.00
C167   C     0.44596   0.45388   0.14513   0.00000  Uiso   1.00
C168   C     0.05392   0.54569   0.18799   0.00000  Uiso   1.00
C169   C     0.47670   0.50093   0.16709   0.00000  Uiso   1.00
C170   C     0.02321   0.49863   0.16614   0.00000  Uiso   1.00
C171   C     0.46100   0.55022   0.18957   0.00000  Uiso   1.00
C172   C     0.03891   0.44931   0.14377   0.00000  Uiso   1.00
C173   C     0.46156   0.40498   0.12549   0.00000  Uiso   1.00
C174   C     0.03830   0.59458   0.20777   0.00000  Uiso   1.00
Cu175  Cu    0.25501   0.50579   0.22813   0.00000  Uiso   1.00
Cu176  Cu    0.24500   0.49421   0.10521   0.00000  Uiso   1.00
H177   H     0.37632   0.42053   0.12369   0.00000  Uiso   1.00
H178   H     0.12355   0.57914   0.20909   0.00000  Uiso   1.00
H179   H     0.43827   0.36834   0.11080   0.00000  Uiso   1.00
H180   H     0.06159   0.63124   0.22247   0.00000  Uiso   1.00
H181   H     0.01766   0.36358   0.11070   0.00000  Uiso   1.00
H182   H     0.48214   0.63587   0.22336   0.00000  Uiso   1.00
H183   H     0.24428   0.65235   0.09652   0.00000  Uiso   1.00
H184   H     0.25561   0.34765   0.23694   0.00000  Uiso   1.00
N185   N     0.23745   0.48547   0.01284   0.00000  Uiso   1.00
N186   N     0.26256   0.51453   0.32049   0.00000  Uiso   1.00
O187   O     0.25326   0.42871   0.20659   0.00000  Uiso   1.00
O188   O     0.24675   0.57129   0.12674   0.00000  Uiso   1.00
O189   O     0.24480   0.41892   0.10279   0.00000  Uiso   1.00
O190   O     0.25520   0.58108   0.23055   0.00000  Uiso   1.00
O191   O     0.18936   0.50488   0.21857   0.00000  Uiso   1.00
O192   O     0.31065   0.49512   0.11476   0.00000  Uiso   1.00
O193   O     0.18090   0.49510   0.11477   0.00000  Uiso   1.00
O194   O     0.31910   0.50490   0.21857   0.00000  Uiso   1.00
C195   C     0.39712   0.60251   0.21568   0.00000  Uiso   1.00
C196   C     0.37342   0.62627   0.17606   0.00000  Uiso   1.00
C197   C     0.35983   0.34270   0.19751   0.00000  Uiso   1.00
C198   C     0.36986   0.36928   0.25864   0.00000  Uiso   1.00
C199   C     0.39381   0.34609   0.29843   0.00000  Uiso   1.00
C200   C     0.40747   0.62948   0.27718   0.00000  Uiso   1.00
H201   H     0.36635   0.60653   0.12852   0.00000  Uiso   1.00
H202   H     0.34133   0.36050   0.16668   0.00000  Uiso   1.00
H203   H     0.35914   0.40782   0.27510   0.00000  Uiso   1.00
H204   H     0.40156   0.36675   0.01237   0.00000  Uiso   1.00
H205   H     0.42626   0.61198   0.30835   0.00000  Uiso   1.00
C206   C     0.10267   0.39686   0.11730   0.00000  Uiso   1.00
C207   C     0.09083   0.36899   0.05628   0.00000  Uiso   1.00
C208   C     0.10413   0.65219   0.03504   0.00000  Uiso   1.00
C209   C     0.12892   0.62944   0.07446   0.00000  Uiso   1.00
C210   C     0.14032   0.65679   0.13516   0.00000  Uiso   1.00
C211   C     0.12741   0.37362   0.15644   0.00000  Uiso   1.00
H212   H     0.07113   0.38597   0.02546   0.00000  Uiso   1.00
H213   H     0.09524   0.63089   0.32148   0.00000  Uiso   1.00
H214   H     0.13916   0.59062   0.05809   0.00000  Uiso   1.00
H215   H     0.15927   0.63921   0.16579   0.00000  Uiso   1.00
H216   H     0.13571   0.39402   0.20356   0.00000  Uiso   1.00
N217   N     0.20996   0.44155   0.30907   0.00000  Uiso   1.00
H218   H     0.20109   0.44345   0.26618   0.00000  Uiso   1.00
C219   C     0.17013   0.42324   0.33266   0.00000  Uiso   1.00
H220   H     0.15169   0.38725   0.29973   0.00000  Uiso   1.00
H221   H     0.14747   0.45442   0.00637   0.00000  Uiso   1.00
H222   H     0.17840   0.41055   0.04095   0.00000  Uiso   1.00
N223   N     0.29895   0.54844   0.02252   0.00000  Uiso   1.00
H224   H     0.29891   0.55681   0.06771   0.00000  Uiso   1.00
C225   C     0.31170   0.59684   0.00467   0.00000  Uiso   1.00
H226   H     0.33994   0.62175   0.03718   0.00000  Uiso   1.00
H227   H     0.28312   0.62038   0.00518   0.00000  Uiso   1.00
H228   H     0.32408   0.58802   0.29350   0.00000  Uiso   1.00
C229   C     0.74861   0.39998   0.15090   0.00000  Uiso   1.00
C230   C     0.75141   0.60002   0.18245   0.00000  Uiso   1.00
C231   C     0.50741   0.40256   0.12522   0.00000  Uiso   1.00
C232   C     0.99246   0.59697   0.20838   0.00000  Uiso   1.00
C233   C     0.74810   0.34365   0.14259   0.00000  Uiso   1.00
C234   C     0.75193   0.65638   0.19084   0.00000  Uiso   1.00
C235   C     0.66448   0.49736   0.16622   0.00000  Uiso   1.00
C236   C     0.83549   0.50238   0.16705   0.00000  Uiso   1.00
C237   C     0.91426   0.55148   0.19149   0.00000  Uiso   1.00
C238   C     0.58566   0.44801   0.14173   0.00000  Uiso   1.00
C239   C     0.88405   0.50395   0.16722   0.00000  Uiso   1.00
C240   C     0.61588   0.49561   0.16596   0.00000  Uiso   1.00
C241   C     0.89999   0.45620   0.14333   0.00000  Uiso   1.00
C242   C     0.59990   0.54340   0.18967   0.00000  Uiso   1.00
C243   C     0.94596   0.45388   0.14513   0.00000  Uiso   1.00
C244   C     0.55392   0.54569   0.18799   0.00000  Uiso   1.00
C245   C     0.97670   0.50093   0.16709   0.00000  Uiso   1.00
C246   C     0.52321   0.49863   0.16614   0.00000  Uiso   1.00
C247   C     0.96100   0.55022   0.18957   0.00000  Uiso   1.00
C248   C     0.53891   0.44931   0.14377   0.00000  Uiso   1.00
C249   C     0.96156   0.40498   0.12549   0.00000  Uiso   1.00
C250   C     0.53830   0.59458   0.20777   0.00000  Uiso   1.00
Cu251  Cu    0.75501   0.50579   0.22813   0.00000  Uiso   1.00
Cu252  Cu    0.74500   0.49421   0.10521   0.00000  Uiso   1.00
H253   H     0.87632   0.42053   0.12369   0.00000  Uiso   1.00
H254   H     0.62355   0.57914   0.20909   0.00000  Uiso   1.00
H255   H     0.93827   0.36834   0.11080   0.00000  Uiso   1.00
H256   H     0.56159   0.63124   0.22247   0.00000  Uiso   1.00
H257   H     0.51766   0.36358   0.11070   0.00000  Uiso   1.00
H258   H     0.98214   0.63587   0.22336   0.00000  Uiso   1.00
H259   H     0.74428   0.65235   0.09652   0.00000  Uiso   1.00
H260   H     0.75561   0.34765   0.23694   0.00000  Uiso   1.00
N261   N     0.73745   0.48547   0.01284   0.00000  Uiso   1.00
N262   N     0.76256   0.51453   0.32049   0.00000  Uiso   1.00
O263   O     0.75326   0.42871   0.20659   0.00000  Uiso   1.00
O264   O     0.74675   0.57129   0.12674   0.00000  Uiso   1.00
O265   O     0.74480   0.41892   0.10279   0.00000  Uiso   1.00
O266   O     0.75520   0.58108   0.23055   0.00000  Uiso   1.00
O267   O     0.68936   0.50488   0.21857   0.00000  Uiso   1.00
O268   O     0.81065   0.49512   0.11476   0.00000  Uiso   1.00
O269   O     0.68090   0.49510   0.11477   0.00000  Uiso   1.00
O270   O     0.81910   0.50490   0.21857   0.00000  Uiso   1.00
C271   C     0.89712   0.60251   0.21568   0.00000  Uiso   1.00
C272   C     0.87342   0.62627   0.17606   0.00000  Uiso   1.00
C273   C     0.85983   0.34270   0.19751   0.00000  Uiso   1.00
C274   C     0.86986   0.36928   0.25864   0.00000  Uiso   1.00
C275   C     0.89381   0.34609   0.29843   0.00000  Uiso   1.00
C276   C     0.90747   0.62948   0.27718   0.00000  Uiso   1.00
H277   H     0.86635   0.60653   0.12852   0.00000  Uiso   1.00
H278   H     0.84133   0.36050   0.16668   0.00000  Uiso   1.00
H279   H     0.85914   0.40782   0.27510   0.00000  Uiso   1.00
H280   H     0.90156   0.36675   0.01237   0.00000  Uiso   1.00
H281   H     0.92626   0.61198   0.30835   0.00000  Uiso   1.00
C282   C     0.60267   0.39686   0.11730   0.00000  Uiso   1.00
C283   C     0.59083   0.36899   0.05628   0.00000  Uiso   1.00
C284   C     0.60413   0.65219   0.03504   0.00000  Uiso   1.00
C285   C     0.62892   0.62944   0.07446   0.00000  Uiso   1.00
C286   C     0.64032   0.65679   0.13516   0.00000  Uiso   1.00
C287   C     0.62741   0.37362   0.15644   0.00000  Uiso   1.00
H288   H     0.57113   0.38597   0.02546   0.00000  Uiso   1.00
H289   H     0.59524   0.63089   0.32148   0.00000  Uiso   1.00
H290   H     0.63916   0.59062   0.05809   0.00000  Uiso   1.00
H291   H     0.65927   0.63921   0.16579   0.00000  Uiso   1.00
H292   H     0.63571   0.39402   0.20356   0.00000  Uiso   1.00
N293   N     0.70996   0.44155   0.30907   0.00000  Uiso   1.00
H294   H     0.70109   0.44345   0.26618   0.00000  Uiso   1.00
C295   C     0.67013   0.42324   0.33266   0.00000  Uiso   1.00
H296   H     0.65169   0.38725   0.29973   0.00000  Uiso   1.00
H297   H     0.64747   0.45442   0.00637   0.00000  Uiso   1.00
H298   H     0.67840   0.41055   0.04095   0.00000  Uiso   1.00
N299   N     0.79895   0.54844   0.02252   0.00000  Uiso   1.00
H300   H     0.79891   0.55681   0.06771   0.00000  Uiso   1.00
C301   C     0.81170   0.59684   0.00467   0.00000  Uiso   1.00
H302   H     0.83994   0.62175   0.03718   0.00000  Uiso   1.00
H303   H     0.78312   0.62038   0.00518   0.00000  Uiso   1.00
H304   H     0.82408   0.58802   0.29350   0.00000  Uiso   1.00
C305   C     0.24861   0.73332   0.15090   0.00000  Uiso   1.00
C306   C     0.25141   0.93336   0.18245   0.00000  Uiso   1.00
C307   C     0.00741   0.73589   0.12522   0.00000  Uiso   1.00
C308   C     0.49246   0.93030   0.20838   0.00000  Uiso   1.00
C309   C     0.24810   0.67698   0.14259   0.00000  Uiso   1.00
C310   C     0.25193   0.98971   0.19084   0.00000  Uiso   1.00
C311   C     0.16448   0.83069   0.16622   0.00000  Uiso   1.00
C312   C     0.33549   0.83571   0.16705   0.00000  Uiso   1.00
C313   C     0.41426   0.88481   0.19149   0.00000  Uiso   1.00
C314   C     0.08566   0.78134   0.14173   0.00000  Uiso   1.00
C315   C     0.38405   0.83729   0.16722   0.00000  Uiso   1.00
C316   C     0.11588   0.82895   0.16596   0.00000  Uiso   1.00
C317   C     0.39999   0.78953   0.14333   0.00000  Uiso   1.00
C318   C     0.09990   0.87673   0.18967   0.00000  Uiso   1.00
C319   C     0.44596   0.78722   0.14513   0.00000  Uiso   1.00
C320   C     0.05392   0.87903   0.18799   0.00000  Uiso   1.00
C321   C     0.47670   0.83426   0.16709   0.00000  Uiso   1.00
C322   C     0.02321   0.83196   0.16614   0.00000  Uiso   1.00
C323   C     0.46100   0.88355   0.18957   0.00000  Uiso   1.00
C324   C     0.03891   0.78264   0.14377   0.00000  Uiso   1.00
C325   C     0.46156   0.73832   0.12549   0.00000  Uiso   1.00
C326   C     0.03830   0.92792   0.20777   0.00000  Uiso   1.00
Cu327  Cu    0.25501   0.83913   0.22813   0.00000  Uiso   1.00
Cu328  Cu    0.24500   0.82754   0.10521   0.00000  Uiso   1.00
H329   H     0.37632   0.75387   0.12369   0.00000  Uiso   1.00
H330   H     0.12355   0.91247   0.20909   0.00000  Uiso   1.00
H331   H     0.43827   0.70167   0.11080   0.00000  Uiso   1.00
H332   H     0.06159   0.96457   0.22247   0.00000  Uiso   1.00
H333   H     0.01766   0.69691   0.11070   0.00000  Uiso   1.00
H334   H     0.48214   0.96920   0.22336   0.00000  Uiso   1.00
H335   H     0.24428   0.98568   0.09652   0.00000  Uiso   1.00
H336   H     0.25561   0.68098   0.23694   0.00000  Uiso   1.00
N337   N     0.23745   0.81881   0.01284   0.00000  Uiso   1.00
N338   N     0.26256   0.84786   0.32049   0.00000  Uiso   1.00
O339   O     0.25326   0.76204   0.20659   0.00000  Uiso   1.00
O340   O     0.24675   0.90462   0.12674   0.00000  Uiso   1.00
O341   O     0.24480   0.75226   0.10279   0.00000  Uiso   1.00
O342   O     0.25520   0.91441   0.23055   0.00000  Uiso   1.00
O343   O     0.18936   0.83821   0.21857   0.00000  Uiso   1.00
O344   O     0.31065   0.82845   0.11476   0.00000  Uiso   1.00
O345   O     0.18090   0.82843   0.11477   0.00000  Uiso   1.00
O346   O     0.31910   0.83824   0.21857   0.00000  Uiso   1.00
C347   C     0.39712   0.93585   0.21568   0.00000  Uiso   1.00
C348   C     0.37342   0.95960   0.17606   0.00000  Uiso   1.00
C349   C     0.35983   0.67603   0.19751   0.00000  Uiso   1.00
C350   C     0.36986   0.70261   0.25864   0.00000  Uiso   1.00
C351   C     0.39381   0.67942   0.29843   0.00000  Uiso   1.00
C352   C     0.40747   0.96281   0.27718   0.00000  Uiso   1.00
H353   H     0.36635   0.93986   0.12852   0.00000  Uiso   1.00
H354   H     0.34133   0.69383   0.16668   0.00000  Uiso   1.00
H355   H     0.35914   0.74115   0.27510   0.00000  Uiso   1.00
H356   H     0.40156   0.70008   0.01237   0.00000  Uiso   1.00
H357   H     0.42626   0.94532   0.30835   0.00000  Uiso   1.00
C358   C     0.10267   0.73020   0.11730   0.00000  Uiso   1.00
C359   C     0.09083   0.70233   0.05628   0.00000  Uiso   1.00
C360   C     0.10413   0.98552   0.03504   0.00000  Uiso   1.00
C361   C     0.12892   0.96277   0.07446   0.00000  Uiso   1.00
C362   C     0.14032   0.99012   0.13516   0.00000  Uiso   1.00
C363   C     0.12741   0.70695   0.15644   0.00000  Uiso   1.00
H364   H     0.07113   0.71930   0.02546   0.00000  Uiso   1.00
H365   H     0.09524   0.96423   0.32148   0.00000  Uiso   1.00
H366   H     0.13916   0.92395   0.05809   0.00000  Uiso   1.00
H367   H     0.15927   0.97254   0.16579   0.00000  Uiso   1.00
H368   H     0.13571   0.72735   0.20356   0.00000  Uiso   1.00
N369   N     0.20996   0.77488   0.30907   0.00000  Uiso   1.00
H370   H     0.20109   0.77678   0.26618   0.00000  Uiso   1.00
C371   C     0.17013   0.75657   0.33266   0.00000  Uiso   1.00
H372   H     0.15169   0.72059   0.29973   0.00000  Uiso   1.00
H373   H     0.14747   0.78776   0.00637   0.00000  Uiso   1.00
H374   H     0.17840   0.74389   0.04095   0.00000  Uiso   1.00
N375   N     0.29895   0.88177   0.02252   0.00000  Uiso   1.00
H376   H     0.29891   0.89014   0.06771   0.00000  Uiso   1.00
C377   C     0.31170   0.93017   0.00467   0.00000  Uiso   1.00
H378   H     0.33994   0.95508   0.03718   0.00000  Uiso   1.00
H379   H     0.28312   0.95372   0.00518   0.00000  Uiso   1.00
H380   H     0.32408   0.92135   0.29350   0.00000  Uiso   1.00
C381   C     0.74861   0.73332   0.15090   0.00000  Uiso   1.00
C382   C     0.75141   0.93336   0.18245   0.00000  Uiso   1.00
C383   C     0.50741   0.73589   0.12522   0.00000  Uiso   1.00
C384   C     0.99246   0.93030   0.20838   0.00000  Uiso   1.00
C385   C     0.74810   0.67698   0.14259   0.00000  Uiso   1.00
C386   C     0.75193   0.98971   0.19084   0.00000  Uiso   1.00
C387   C     0.66448   0.83069   0.16622   0.00000  Uiso   1.00
C388   C     0.83549   0.83571   0.16705   0.00000  Uiso   1.00
C389   C     0.91426   0.88481   0.19149   0.00000  Uiso   1.00
C390   C     0.58566   0.78134   0.14173   0.00000  Uiso   1.00
C391   C     0.88405   0.83729   0.16722   0.00000  Uiso   1.00
C392   C     0.61588   0.82895   0.16596   0.00000  Uiso   1.00
C393   C     0.89999   0.78953   0.14333   0.00000  Uiso   1.00
C394   C     0.59990   0.87673   0.18967   0.00000  Uiso   1.00
C395   C     0.94596   0.78722   0.14513   0.00000  Uiso   1.00
C396   C     0.55392   0.87903   0.18799   0.00000  Uiso   1.00
C397   C     0.97670   0.83426   0.16709   0.00000  Uiso   1.00
C398   C     0.52321   0.83196   0.16614   0.00000  Uiso   1.00
C399   C     0.96100   0.88355   0.18957   0.00000  Uiso   1.00
C400   C     0.53891   0.78264   0.14377   0.00000  Uiso   1.00
C401   C     0.96156   0.73832   0.12549   0.00000  Uiso   1.00
C402   C     0.53830   0.92792   0.20777   0.00000  Uiso   1.00
Cu403  Cu    0.75501   0.83913   0.22813   0.00000  Uiso   1.00
Cu404  Cu    0.74500   0.82754   0.10521   0.00000  Uiso   1.00
H405   H     0.87632   0.75387   0.12369   0.00000  Uiso   1.00
H406   H     0.62355   0.91247   0.20909   0.00000  Uiso   1.00
H407   H     0.93827   0.70167   0.11080   0.00000  Uiso   1.00
H408   H     0.56159   0.96457   0.22247   0.00000  Uiso   1.00
H409   H     0.51766   0.69691   0.11070   0.00000  Uiso   1.00
H410   H     0.98214   0.96920   0.22336   0.00000  Uiso   1.00
H411   H     0.74428   0.98568   0.09652   0.00000  Uiso   1.00
H412   H     0.75561   0.68098   0.23694   0.00000  Uiso   1.00
N413   N     0.73745   0.81881   0.01284   0.00000  Uiso   1.00
N414   N     0.76256   0.84786   0.32049   0.00000  Uiso   1.00
O415   O     0.75326   0.76204   0.20659   0.00000  Uiso   1.00
O416   O     0.74675   0.90462   0.12674   0.00000  Uiso   1.00
O417   O     0.74480   0.75226   0.10279   0.00000  Uiso   1.00
O418   O     0.75520   0.91441   0.23055   0.00000  Uiso   1.00
O419   O     0.68936   0.83821   0.21857   0.00000  Uiso   1.00
O420   O     0.81065   0.82845   0.11476   0.00000  Uiso   1.00
O421   O     0.68090   0.82843   0.11477   0.00000  Uiso   1.00
O422   O     0.81910   0.83824   0.21857   0.00000  Uiso   1.00
C423   C     0.89712   0.93585   0.21568   0.00000  Uiso   1.00
C424   C     0.87342   0.95960   0.17606   0.00000  Uiso   1.00
C425   C     0.85983   0.67603   0.19751   0.00000  Uiso   1.00
C426   C     0.86986   0.70261   0.25864   0.00000  Uiso   1.00
C427   C     0.89381   0.67942   0.29843   0.00000  Uiso   1.00
C428   C     0.90747   0.96281   0.27718   0.00000  Uiso   1.00
H429   H     0.86635   0.93986   0.12852   0.00000  Uiso   1.00
H430   H     0.84133   0.69383   0.16668   0.00000  Uiso   1.00
H431   H     0.85914   0.74115   0.27510   0.00000  Uiso   1.00
H432   H     0.90156   0.70008   0.01237   0.00000  Uiso   1.00
H433   H     0.92626   0.94532   0.30835   0.00000  Uiso   1.00
C434   C     0.60267   0.73020   0.11730   0.00000  Uiso   1.00
C435   C     0.59083   0.70233   0.05628   0.00000  Uiso   1.00
C436   C     0.60413   0.98552   0.03504   0.00000  Uiso   1.00
C437   C     0.62892   0.96277   0.07446   0.00000  Uiso   1.00
C438   C     0.64032   0.99012   0.13516   0.00000  Uiso   1.00
C439   C     0.62741   0.70695   0.15644   0.00000  Uiso   1.00
H440   H     0.57113   0.71930   0.02546   0.00000  Uiso   1.00
H441   H     0.59524   0.96423   0.32148   0.00000  Uiso   1.00
H442   H     0.63916   0.92395   0.05809   0.00000  Uiso   1.00
H443   H     0.65927   0.97254   0.16579   0.00000  Uiso   1.00
H444   H     0.63571   0.72735   0.20356   0.00000  Uiso   1.00
N445   N     0.70996   0.77488   0.30907   0.00000  Uiso   1.00
H446   H     0.70109   0.77678   0.26618   0.00000  Uiso   1.00
C447   C     0.67013   0.75657   0.33266   0.00000  Uiso   1.00
H448   H     0.65169   0.72059   0.29973   0.00000  Uiso   1.00
H449   H     0.64747   0.78776   0.00637   0.00000  Uiso   1.00
H450   H     0.67840   0.74389   0.04095   0.00000  Uiso   1.00
N451   N     0.79895   0.88177   0.02252   0.00000  Uiso   1.00
H452   H     0.79891   0.89014   0.06771   0.00000  Uiso   1.00
C453   C     0.81170   0.93017   0.00467   0.00000  Uiso   1.00
H454   H     0.83994   0.95508   0.03718   0.00000  Uiso   1.00
H455   H     0.78312   0.95372   0.00518   0.00000  Uiso   1.00
H456   H     0.82408   0.92135   0.29350   0.00000  Uiso   1.00
C457   C     0.24861   0.06665   0.48423   0.00000  Uiso   1.00
C458   C     0.25141   0.26669   0.51578   0.00000  Uiso   1.00
C459   C     0.00741   0.06922   0.45855   0.00000  Uiso   1.00
C460   C     0.49246   0.26363   0.54171   0.00000  Uiso   1.00
C461   C     0.24810   0.01031   0.47592   0.00000  Uiso   1.00
C462   C     0.25193   0.32304   0.52417   0.00000  Uiso   1.00
C463   C     0.16448   0.16403   0.49955   0.00000  Uiso   1.00
C464   C     0.33549   0.16904   0.50039   0.00000  Uiso   1.00
C465   C     0.41426   0.21815   0.52483   0.00000  Uiso   1.00
C466   C     0.08566   0.11468   0.47506   0.00000  Uiso   1.00
C467   C     0.38405   0.17062   0.50056   0.00000  Uiso   1.00
C468   C     0.11588   0.16228   0.49930   0.00000  Uiso   1.00
C469   C     0.39999   0.12287   0.47666   0.00000  Uiso   1.00
C470   C     0.09990   0.21007   0.52301   0.00000  Uiso   1.00
C471   C     0.44596   0.12055   0.47846   0.00000  Uiso   1.00
C472   C     0.05392   0.21236   0.52133   0.00000  Uiso   1.00
C473   C     0.47670   0.16759   0.50042   0.00000  Uiso   1.00
C474   C     0.02321   0.16530   0.49947   0.00000  Uiso   1.00
C475   C     0.46100   0.21689   0.52291   0.00000  Uiso   1.00
C476   C     0.03891   0.11598   0.47710   0.00000  Uiso   1.00
C477   C     0.46156   0.07165   0.45883   0.00000  Uiso   1.00
C478   C     0.03830   0.26125   0.54110   0.00000  Uiso   1.00
Cu479  Cu    0.25501   0.17246   0.56146   0.00000  Uiso   1.00
Cu480  Cu    0.24500   0.16087   0.43854   0.00000  Uiso   1.00
H481   H     0.37632   0.08720   0.45703   0.00000  Uiso   1.00
H482   H     0.12355   0.24580   0.54242   0.00000  Uiso   1.00
H483   H     0.43827   0.03501   0.44413   0.00000  Uiso   1.00
H484   H     0.06159   0.29791   0.55580   0.00000  Uiso   1.00
H485   H     0.01766   0.03024   0.44403   0.00000  Uiso   1.00
H486   H     0.48214   0.30254   0.55670   0.00000  Uiso   1.00
H487   H     0.24428   0.31901   0.42986   0.00000  Uiso   1.00
H488   H     0.25561   0.01431   0.57028   0.00000  Uiso   1.00
N489   N     0.23745   0.15214   0.34617   0.00000  Uiso   1.00
N490   N     0.26256   0.18119   0.65383   0.00000  Uiso   1.00
O491   O     0.25326   0.09538   0.53992   0.00000  Uiso   1.00
O492   O     0.24675   0.23796   0.46008   0.00000  Uiso   1.00
O493   O     0.24480   0.08559   0.43612   0.00000  Uiso   1.00
O494   O     0.25520   0.24774   0.56388   0.00000  Uiso   1.00
O495   O     0.18936   0.17155   0.55191   0.00000  Uiso   1.00
O496   O     0.31065   0.16179   0.44809   0.00000  Uiso   1.00
O497   O     0.18090   0.16176   0.44810   0.00000  Uiso   1.00
O498   O     0.31910   0.17157   0.55190   0.00000  Uiso   1.00
C499   C     0.39712   0.26918   0.54902   0.00000  Uiso   1.00
C500   C     0.37342   0.29293   0.50940   0.00000  Uiso   1.00
C501   C     0.35983   0.00937   0.53084   0.00000  Uiso   1.00
C502   C     0.36986   0.03595   0.59197   0.00000  Uiso   1.00
C503   C     0.39381   0.01275   0.63177   0.00000  Uiso   1.00
C504   C     0.40747   0.29614   0.61051   0.00000  Uiso   1.00
H505   H     0.36635   0.27319   0.46185   0.00000  Uiso   1.00
H506   H     0.34133   0.02717   0.50001   0.00000  Uiso   1.00
H507   H     0.35914   0.07448   0.60843   0.00000  Uiso   1.00
H508   H     0.40156   0.03342   0.34570   0.00000  Uiso   1.00
H509   H     0.42626   0.27865   0.64168   0.00000  Uiso   1.00
C510   C     0.10267   0.06353   0.45063   0.00000  Uiso   1.00
C511   C     0.09083   0.03566   0.38962   0.00000  Uiso   1.00
C512   C     0.10413   0.31886   0.36837   0.00000  Uiso   1.00
C513   C     0.12892   0.29611   0.40780   0.00000  Uiso   1.00
C514   C     0.14032   0.32345   0.46849   0.00000  Uiso   1.00
C515   C     0.12741   0.04029   0.48977   0.00000  Uiso   1.00
H516   H     0.07113   0.05263   0.35879   0.00000  Uiso   1.00
H517   H     0.09524   0.29756   0.65481   0.00000  Uiso   1.00
H518   H     0.13916   0.25728   0.39143   0.00000  Uiso   1.00
H519   H     0.15927   0.30588   0.49913   0.00000  Uiso   1.00
H520   H     0.13571   0.06068   0.53689   0.00000  Uiso   1.00
N521   N     0.20996   0.10821   0.64240   0.00000  Uiso   1.00
H522   H     0.20109   0.11011   0.59952   0.00000  Uiso   1.00
C523   C     0.17013   0.08990   0.66599   0.00000  Uiso   1.00
H524   H     0.15169   0.05392   0.63306   0.00000  Uiso   1.00
H525   H     0.14747   0.12109   0.33971   0.00000  Uiso   1.00
H526   H     0.17840   0.07722   0.37428   0.00000  Uiso   1.00
N527   N     0.29895   0.21511   0.35585   0.00000  Uiso   1.00
H528   H     0.29891   0.22347   0.40104   0.00000  Uiso   1.00
C529   C     0.31170   0.26351   0.33800   0.00000  Uiso   1.00
H530   H     0.33994   0.28841   0.37051   0.00000  Uiso   1.00
H531   H     0.28312   0.28705   0.33851   0.00000  Uiso   1.00
H532   H     0.32408   0.25468   0.62683   0.00000  Uiso   1.00
C533   C     0.74861   0.06665   0.48423   0.00000  Uiso   1.00
C534   C     0.75141   0.26669   0.51578   0.00000  Uiso   1.00
C535   C     0.50741   0.06922   0.45855   0.00000  Uiso   1.00
C536   C     0.99246   0.26363   0.54171   0.00000  Uiso   1.00
C537   C     0.74810   0.01031   0.47592   0.00000  Uiso   1.00
C538   C     0.75193   0.32304   0.52417   0.00000  Uiso   1.00
C539   C     0.66448   0.16403   0.49955   0.00000  Uiso   1.00
C540   C     0.83549   0.16904   0.50039   0.00000  Uiso   1.00
C541   C     0.91426   0.21815   0.52483   0.00000  Uiso   1.00
C542   C     0.58566   0.11468   0.47506   0.00000  Uiso   1.00
C543   C     0.88405   0.17062   0.50056   0.00000  Uiso   1.00
C544   C     0.61588   0.16228   0.49930   0.00000  Uiso   1.00
C545   C     0.89999   0.12287   0.47666   0.00000  Uiso   1.00
C546   C     0.59990   0.21007   0.52301   0.00000  Uiso   1.00
C547   C     0.94596   0.12055   0.47846   0.00000  Uiso   1.00
C548   C     0.55392   0.21236   0.52133   0.00000  Uiso   1.00
C549   C     0.97670   0.16759   0.50042   0.00000  Uiso   1.00
C550   C     0.52321   0.16530   0.49947   0.00000  Uiso   1.00
C551   C     0.96100   0.21689   0.52291   0.00000  Uiso   1.00
C552   C     0.53891   0.11598   0.47710   0.00000  Uiso   1.00
C553   C     0.96156   0.07165   0.45883   0.00000  Uiso   1.00
C554   C     0.53830   0.26125   0.54110   0.00000  Uiso   1.00
Cu555  Cu    0.75501   0.17246   0.56146   0.00000  Uiso   1.00
Cu556  Cu    0.74500   0.16087   0.43854   0.00000  Uiso   1.00
H557   H     0.87632   0.08720   0.45703   0.00000  Uiso   1.00
H558   H     0.62355   0.24580   0.54242   0.00000  Uiso   1.00
H559   H     0.93827   0.03501   0.44413   0.00000  Uiso   1.00
H560   H     0.56159   0.29791   0.55580   0.00000  Uiso   1.00
H561   H     0.51766   0.03024   0.44403   0.00000  Uiso   1.00
H562   H     0.98214   0.30254   0.55670   0.00000  Uiso   1.00
H563   H     0.74428   0.31901   0.42986   0.00000  Uiso   1.00
H564   H     0.75561   0.01431   0.57028   0.00000  Uiso   1.00
N565   N     0.73745   0.15214   0.34617   0.00000  Uiso   1.00
N566   N     0.76256   0.18119   0.65383   0.00000  Uiso   1.00
O567   O     0.75326   0.09538   0.53992   0.00000  Uiso   1.00
O568   O     0.74675   0.23796   0.46008   0.00000  Uiso   1.00
O569   O     0.74480   0.08559   0.43612   0.00000  Uiso   1.00
O570   O     0.75520   0.24774   0.56388   0.00000  Uiso   1.00
O571   O     0.68936   0.17155   0.55191   0.00000  Uiso   1.00
O572   O     0.81065   0.16179   0.44809   0.00000  Uiso   1.00
O573   O     0.68090   0.16176   0.44810   0.00000  Uiso   1.00
O574   O     0.81910   0.17157   0.55190   0.00000  Uiso   1.00
C575   C     0.89712   0.26918   0.54902   0.00000  Uiso   1.00
C576   C     0.87342   0.29293   0.50940   0.00000  Uiso   1.00
C577   C     0.85983   0.00937   0.53084   0.00000  Uiso   1.00
C578   C     0.86986   0.03595   0.59197   0.00000  Uiso   1.00
C579   C     0.89381   0.01275   0.63177   0.00000  Uiso   1.00
C580   C     0.90747   0.29614   0.61051   0.00000  Uiso   1.00
H581   H     0.86635   0.27319   0.46185   0.00000  Uiso   1.00
H582   H     0.84133   0.02717   0.50001   0.00000  Uiso   1.00
H583   H     0.85914   0.07448   0.60843   0.00000  Uiso   1.00
H584   H     0.90156   0.03342   0.34570   0.00000  Uiso   1.00
H585   H     0.92626   0.27865   0.64168   0.00000  Uiso   1.00
C586   C     0.60267   0.06353   0.45063   0.00000  Uiso   1.00
C587   C     0.59083   0.03566   0.38962   0.00000  Uiso   1.00
C588   C     0.60413   0.31886   0.36837   0.00000  Uiso   1.00
C589   C     0.62892   0.29611   0.40780   0.00000  Uiso   1.00
C590   C     0.64032   0.32345   0.46849   0.00000  Uiso   1.00
C591   C     0.62741   0.04029   0.48977   0.00000  Uiso   1.00
H592   H     0.57113   0.05263   0.35879   0.00000  Uiso   1.00
H593   H     0.59524   0.29756   0.65481   0.00000  Uiso   1.00
H594   H     0.63916   0.25728   0.39143   0.00000  Uiso   1.00
H595   H     0.65927   0.30588   0.49913   0.00000  Uiso   1.00
H596   H     0.63571   0.06068   0.53689   0.00000  Uiso   1.00
N597   N     0.70996   0.10821   0.64240   0.00000  Uiso   1.00
H598   H     0.70109   0.11011   0.59952   0.00000  Uiso   1.00
C599   C     0.67013   0.08990   0.66599   0.00000  Uiso   1.00
H600   H     0.65169   0.05392   0.63306   0.00000  Uiso   1.00
H601   H     0.64747   0.12109   0.33971   0.00000  Uiso   1.00
H602   H     0.67840   0.07722   0.37428   0.00000  Uiso   1.00
N603   N     0.79895   0.21511   0.35585   0.00000  Uiso   1.00
H604   H     0.79891   0.22347   0.40104   0.00000  Uiso   1.00
C605   C     0.81170   0.26351   0.33800   0.00000  Uiso   1.00
H606   H     0.83994   0.28841   0.37051   0.00000  Uiso   1.00
H607   H     0.78312   0.28705   0.33851   0.00000  Uiso   1.00
H608   H     0.82408   0.25468   0.62683   0.00000  Uiso   1.00
C609   C     0.24861   0.39998   0.48423   0.00000  Uiso   1.00
C610   C     0.25141   0.60002   0.51578   0.00000  Uiso   1.00
C611   C     0.00741   0.40256   0.45855   0.00000  Uiso   1.00
C612   C     0.49246   0.59697   0.54171   0.00000  Uiso   1.00
C613   C     0.24810   0.34365   0.47592   0.00000  Uiso   1.00
C614   C     0.25193   0.65638   0.52417   0.00000  Uiso   1.00
C615   C     0.16448   0.49736   0.49955   0.00000  Uiso   1.00
C616   C     0.33549   0.50238   0.50039   0.00000  Uiso   1.00
C617   C     0.41426   0.55148   0.52483   0.00000  Uiso   1.00
C618   C     0.08566   0.44801   0.47506   0.00000  Uiso   1.00
C619   C     0.38405   0.50395   0.50056   0.00000  Uiso   1.00
C620   C     0.11588   0.49561   0.49930   0.00000  Uiso   1.00
C621   C     0.39999   0.45620   0.47666   0.00000  Uiso   1.00
C622   C     0.09990   0.54340   0.52301   0.00000  Uiso   1.00
C623   C     0.44596   0.45388   0.47846   0.00000  Uiso   1.00
C624   C     0.05392   0.54569   0.52133   0.00000  Uiso   1.00
C625   C     0.47670   0.50093   0.50042   0.00000  Uiso   1.00
C626   C     0.02321   0.49863   0.49947   0.00000  Uiso   1.00
C627   C     0.46100   0.55022   0.52291   0.00000  Uiso   1.00
C628   C     0.03891   0.44931   0.47710   0.00000  Uiso   1.00
C629   C     0.46156   0.40498   0.45883   0.00000  Uiso   1.00
C630   C     0.03830   0.59458   0.54110   0.00000  Uiso   1.00
Cu631  Cu    0.25501   0.50579   0.56146   0.00000  Uiso   1.00
Cu632  Cu    0.24500   0.49421   0.43854   0.00000  Uiso   1.00
H633   H     0.37632   0.42053   0.45703   0.00000  Uiso   1.00
H634   H     0.12355   0.57914   0.54242   0.00000  Uiso   1.00
H635   H     0.43827   0.36834   0.44413   0.00000  Uiso   1.00
H636   H     0.06159   0.63124   0.55580   0.00000  Uiso   1.00
H637   H     0.01766   0.36358   0.44403   0.00000  Uiso   1.00
H638   H     0.48214   0.63587   0.55670   0.00000  Uiso   1.00
H639   H     0.24428   0.65235   0.42986   0.00000  Uiso   1.00
H640   H     0.25561   0.34765   0.57028   0.00000  Uiso   1.00
N641   N     0.23745   0.48547   0.34617   0.00000  Uiso   1.00
N642   N     0.26256   0.51453   0.65383   0.00000  Uiso   1.00
O643   O     0.25326   0.42871   0.53992   0.00000  Uiso   1.00
O644   O     0.24675   0.57129   0.46008   0.00000  Uiso   1.00
O645   O     0.24480   0.41892   0.43612   0.00000  Uiso   1.00
O646   O     0.25520   0.58108   0.56388   0.00000  Uiso   1.00
O647   O     0.18936   0.50488   0.55191   0.00000  Uiso   1.00
O648   O     0.31065   0.49512   0.44809   0.00000  Uiso   1.00
O649   O     0.18090   0.49510   0.44810   0.00000  Uiso   1.00
O650   O     0.31910   0.50490   0.55190   0.00000  Uiso   1.00
C651   C     0.39712   0.60251   0.54902   0.00000  Uiso   1.00
C652   C     0.37342   0.62627   0.50940   0.00000  Uiso   1.00
C653   C     0.35983   0.34270   0.53084   0.00000  Uiso   1.00
C654   C     0.36986   0.36928   0.59197   0.00000  Uiso   1.00
C655   C     0.39381   0.34609   0.63177   0.00000  Uiso   1.00
C656   C     0.40747   0.62948   0.61051   0.00000  Uiso   1.00
H657   H     0.36635   0.60653   0.46185   0.00000  Uiso   1.00
H658   H     0.34133   0.36050   0.50001   0.00000  Uiso   1.00
H659   H     0.35914   0.40782   0.60843   0.00000  Uiso   1.00
H660   H     0.40156   0.36675   0.34570   0.00000  Uiso   1.00
H661   H     0.42626   0.61198   0.64168   0.00000  Uiso   1.00
C662   C     0.10267   0.39686   0.45063   0.00000  Uiso   1.00
C663   C     0.09083   0.36899   0.38962   0.00000  Uiso   1.00
C664   C     0.10413   0.65219   0.36837   0.00000  Uiso   1.00
C665   C     0.12892   0.62944   0.40780   0.00000  Uiso   1.00
C666   C     0.14032   0.65679   0.46849   0.00000  Uiso   1.00
C667   C     0.12741   0.37362   0.48977   0.00000  Uiso   1.00
H668   H     0.07113   0.38597   0.35879   0.00000  Uiso   1.00
H669   H     0.09524   0.63089   0.65481   0.00000  Uiso   1.00
H670   H     0.13916   0.59062   0.39143   0.00000  Uiso   1.00
H671   H     0.15927   0.63921   0.49913   0.00000  Uiso   1.00
H672   H     0.13571   0.39402   0.53689   0.00000  Uiso   1.00
N673   N     0.20996   0.44155   0.64240   0.00000  Uiso   1.00
H674   H     0.20109   0.44345   0.59952   0.00000  Uiso   1.00
C675   C     0.17013   0.42324   0.66599   0.00000  Uiso   1.00
H676   H     0.15169   0.38725   0.63306   0.00000  Uiso   1.00
H677   H     0.14747   0.45442   0.33971   0.00000  Uiso   1.00
H678   H     0.17840   0.41055   0.37428   0.00000  Uiso   1.00
N679   N     0.29895   0.54844   0.35585   0.00000  Uiso   1.00
H680   H     0.29891   0.55681   0.40104   0.00000  Uiso   1.00
C681   C     0.31170   0.59684   0.33800   0.00000  Uiso   1.00
H682   H     0.33994   0.62175   0.37051   0.00000  Uiso   1.00
H683   H     0.28312   0.62038   0.33851   0.00000  Uiso   1.00
H684   H     0.32408   0.58802   0.62683   0.00000  Uiso   1.00
C685   C     0.74861   0.39998   0.48423   0.00000  Uiso   1.00
C686   C     0.75141   0.60002   0.51578   0.00000  Uiso   1.00
C687   C     0.50741   0.40256   0.45855   0.00000  Uiso   1.00
C688   C     0.99246   0.59697   0.54171   0.00000  Uiso   1.00
C689   C     0.74810   0.34365   0.47592   0.00000  Uiso   1.00
C690   C     0.75193   0.65638   0.52417   0.00000  Uiso   1.00
C691   C     0.66448   0.49736   0.49955   0.00000  Uiso   1.00
C692   C     0.83549   0.50238   0.50039   0.00000  Uiso   1.00
C693   C     0.91426   0.55148   0.52483   0.00000  Uiso   1.00
C694   C     0.58566   0.44801   0.47506   0.00000  Uiso   1.00
C695   C     0.88405   0.50395   0.50056   0.00000  Uiso   1.00
C696   C     0.61588   0.49561   0.49930   0.00000  Uiso   1.00
C697   C     0.89999   0.45620   0.47666   0.00000  Uiso   1.00
C698   C     0.59990   0.54340   0.52301   0.00000  Uiso   1.00
C699   C     0.94596   0.45388   0.47846   0.00000  Uiso   1.00
C700   C     0.55392   0.54569   0.52133   0.00000  Uiso   1.00
C701   C     0.97670   0.50093   0.50042   0.00000  Uiso   1.00
C702   C     0.52321   0.49863   0.49947   0.00000  Uiso   1.00
C703   C     0.96100   0.55022   0.52291   0.00000  Uiso   1.00
C704   C     0.53891   0.44931   0.47710   0.00000  Uiso   1.00
C705   C     0.96156   0.40498   0.45883   0.00000  Uiso   1.00
C706   C     0.53830   0.59458   0.54110   0.00000  Uiso   1.00
Cu707  Cu    0.75501   0.50579   0.56146   0.00000  Uiso   1.00
Cu708  Cu    0.74500   0.49421   0.43854   0.00000  Uiso   1.00
H709   H     0.87632   0.42053   0.45703   0.00000  Uiso   1.00
H710   H     0.62355   0.57914   0.54242   0.00000  Uiso   1.00
H711   H     0.93827   0.36834   0.44413   0.00000  Uiso   1.00
H712   H     0.56159   0.63124   0.55580   0.00000  Uiso   1.00
H713   H     0.51766   0.36358   0.44403   0.00000  Uiso   1.00
H714   H     0.98214   0.63587   0.55670   0.00000  Uiso   1.00
H715   H     0.74428   0.65235   0.42986   0.00000  Uiso   1.00
H716   H     0.75561   0.34765   0.57028   0.00000  Uiso   1.00
N717   N     0.73745   0.48547   0.34617   0.00000  Uiso   1.00
N718   N     0.76256   0.51453   0.65383   0.00000  Uiso   1.00
O719   O     0.75326   0.42871   0.53992   0.00000  Uiso   1.00
O720   O     0.74675   0.57129   0.46008   0.00000  Uiso   1.00
O721   O     0.74480   0.41892   0.43612   0.00000  Uiso   1.00
O722   O     0.75520   0.58108   0.56388   0.00000  Uiso   1.00
O723   O     0.68936   0.50488   0.55191   0.00000  Uiso   1.00
O724   O     0.81065   0.49512   0.44809   0.00000  Uiso   1.00
O725   O     0.68090   0.49510   0.44810   0.00000  Uiso   1.00
O726   O     0.81910   0.50490   0.55190   0.00000  Uiso   1.00
C727   C     0.89712   0.60251   0.54902   0.00000  Uiso   1.00
C728   C     0.87342   0.62627   0.50940   0.00000  Uiso   1.00
C729   C     0.85983   0.34270   0.53084   0.00000  Uiso   1.00
C730   C     0.86986   0.36928   0.59197   0.00000  Uiso   1.00
C731   C     0.89381   0.34609   0.63177   0.00000  Uiso   1.00
C732   C     0.90747   0.62948   0.61051   0.00000  Uiso   1.00
H733   H     0.86635   0.60653   0.46185   0.00000  Uiso   1.00
H734   H     0.84133   0.36050   0.50001   0.00000  Uiso   1.00
H735   H     0.85914   0.40782   0.60843   0.00000  Uiso   1.00
H736   H     0.90156   0.36675   0.34570   0.00000  Uiso   1.00
H737   H     0.92626   0.61198   0.64168   0.00000  Uiso   1.00
C738   C     0.60267   0.39686   0.45063   0.00000  Uiso   1.00
C739   C     0.59083   0.36899   0.38962   0.00000  Uiso   1.00
C740   C     0.60413   0.65219   0.36837   0.00000  Uiso   1.00
C741   C     0.62892   0.62944   0.40780   0.00000  Uiso   1.00
C742   C     0.64032   0.65679   0.46849   0.00000  Uiso   1.00
C743   C     0.62741   0.37362   0.48977   0.00000  Uiso   1.00
H744   H     0.57113   0.38597   0.35879   0.00000  Uiso   1.00
H745   H     0.59524   0.63089   0.65481   0.00000  Uiso   1.00
H746   H     0.63916   0.59062   0.39143   0.00000  Uiso   1.00
H747   H     0.65927   0.63921   0.49913   0.00000  Uiso   1.00
H748   H     0.63571   0.39402   0.53689   0.00000  Uiso   1.00
N749   N     0.70996   0.44155   0.64240   0.00000  Uiso   1.00
H750   H     0.70109   0.44345   0.59952   0.00000  Uiso   1.00
C751   C     0.67013   0.42324   0.66599   0.00000  Uiso   1.00
H752   H     0.65169   0.38725   0.63306   0.00000  Uiso   1.00
H753   H     0.64747   0.45442   0.33971   0.00000  Uiso   1.00
H754   H     0.67840   0.41055   0.37428   0.00000  Uiso   1.00
N755   N     0.79895   0.54844   0.35585   0.00000  Uiso   1.00
H756   H     0.79891   0.55681   0.40104   0.00000  Uiso   1.00
C757   C     0.81170   0.59684   0.33800   0.00000  Uiso   1.00
H758   H     0.83994   0.62175   0.37051   0.00000  Uiso   1.00
H759   H     0.78312   0.62038   0.33851   0.00000  Uiso   1.00
H760   H     0.82408   0.58802   0.62683   0.00000  Uiso   1.00
C761   C     0.24861   0.73332   0.48423   0.00000  Uiso   1.00
C762   C     0.25141   0.93336   0.51578   0.00000  Uiso   1.00
C763   C     0.00741   0.73589   0.45855   0.00000  Uiso   1.00
C764   C     0.49246   0.93030   0.54171   0.00000  Uiso   1.00
C765   C     0.24810   0.67698   0.47592   0.00000  Uiso   1.00
C766   C     0.25193   0.98971   0.52417   0.00000  Uiso   1.00
C767   C     0.16448   0.83069   0.49955   0.00000  Uiso   1.00
C768   C     0.33549   0.83571   0.50039   0.00000  Uiso   1.00
C769   C     0.41426   0.88481   0.52483   0.00000  Uiso   1.00
C770   C     0.08566   0.78134   0.47506   0.00000  Uiso   1.00
C771   C     0.38405   0.83729   0.50056   0.00000  Uiso   1.00
C772   C     0.11588   0.82895   0.49930   0.00000  Uiso   1.00
C773   C     0.39999   0.78953   0.47666   0.00000  Uiso   1.00
C774   C     0.09990   0.87673   0.52301   0.00000  Uiso   1.00
C775   C     0.44596   0.78722   0.47846   0.00000  Uiso   1.00
C776   C     0.05392   0.87903   0.52133   0.00000  Uiso   1.00
C777   C     0.47670   0.83426   0.50042   0.00000  Uiso   1.00
C778   C     0.02321   0.83196   0.49947   0.00000  Uiso   1.00
C779   C     0.46100   0.88355   0.52291   0.00000  Uiso   1.00
C780   C     0.03891   0.78264   0.47710   0.00000  Uiso   1.00
C781   C     0.46156   0.73832   0.45883   0.00000  Uiso   1.00
C782   C     0.03830   0.92792   0.54110   0.00000  Uiso   1.00
Cu783  Cu    0.25501   0.83913   0.56146   0.00000  Uiso   1.00
Cu784  Cu    0.24500   0.82754   0.43854   0.00000  Uiso   1.00
H785   H     0.37632   0.75387   0.45703   0.00000  Uiso   1.00
H786   H     0.12355   0.91247   0.54242   0.00000  Uiso   1.00
H787   H     0.43827   0.70167   0.44413   0.00000  Uiso   1.00
H788   H     0.06159   0.96457   0.55580   0.00000  Uiso   1.00
H789   H     0.01766   0.69691   0.44403   0.00000  Uiso   1.00
H790   H     0.48214   0.96920   0.55670   0.00000  Uiso   1.00
H791   H     0.24428   0.98568   0.42986   0.00000  Uiso   1.00
H792   H     0.25561   0.68098   0.57028   0.00000  Uiso   1.00
N793   N     0.23745   0.81881   0.34617   0.00000  Uiso   1.00
N794   N     0.26256   0.84786   0.65383   0.00000  Uiso   1.00
O795   O     0.25326   0.76204   0.53992   0.00000  Uiso   1.00
O796   O     0.24675   0.90462   0.46008   0.00000  Uiso   1.00
O797   O     0.24480   0.75226   0.43612   0.00000  Uiso   1.00
O798   O     0.25520   0.91441   0.56388   0.00000  Uiso   1.00
O799   O     0.18936   0.83821   0.55191   0.00000  Uiso   1.00
O800   O     0.31065   0.82845   0.44809   0.00000  Uiso   1.00
O801   O     0.18090   0.82843   0.44810   0.00000  Uiso   1.00
O802   O     0.31910   0.83824   0.55190   0.00000  Uiso   1.00
C803   C     0.39712   0.93585   0.54902   0.00000  Uiso   1.00
C804   C     0.37342   0.95960   0.50940   0.00000  Uiso   1.00
C805   C     0.35983   0.67603   0.53084   0.00000  Uiso   1.00
C806   C     0.36986   0.70261   0.59197   0.00000  Uiso   1.00
C807   C     0.39381   0.67942   0.63177   0.00000  Uiso   1.00
C808   C     0.40747   0.96281   0.61051   0.00000  Uiso   1.00
H809   H     0.36635   0.93986   0.46185   0.00000  Uiso   1.00
H810   H     0.34133   0.69383   0.50001   0.00000  Uiso   1.00
H811   H     0.35914   0.74115   0.60843   0.00000  Uiso   1.00
H812   H     0.40156   0.70008   0.34570   0.00000  Uiso   1.00
H813   H     0.42626   0.94532   0.64168   0.00000  Uiso   1.00
C814   C     0.10267   0.73020   0.45063   0.00000  Uiso   1.00
C815   C     0.09083   0.70233   0.38962   0.00000  Uiso   1.00
C816   C     0.10413   0.98552   0.36837   0.00000  Uiso   1.00
C817   C     0.12892   0.96277   0.40780   0.00000  Uiso   1.00
C818   C     0.14032   0.99012   0.46849   0.00000  Uiso   1.00
C819   C     0.12741   0.70695   0.48977   0.00000  Uiso   1.00
H820   H     0.07113   0.71930   0.35879   0.00000  Uiso   1.00
H821   H     0.09524   0.96423   0.65481   0.00000  Uiso   1.00
H822   H     0.13916   0.92395   0.39143   0.00000  Uiso   1.00
H823   H     0.15927   0.97254   0.49913   0.00000  Uiso   1.00
H824   H     0.13571   0.72735   0.53689   0.00000  Uiso   1.00
N825   N     0.20996   0.77488   0.64240   0.00000  Uiso   1.00
H826   H     0.20109   0.77678   0.59952   0.00000  Uiso   1.00
C827   C     0.17013   0.75657   0.66599   0.00000  Uiso   1.00
H828   H     0.15169   0.72059   0.63306   0.00000  Uiso   1.00
H829   H     0.14747   0.78776   0.33971   0.00000  Uiso   1.00
H830   H     0.17840   0.74389   0.37428   0.00000  Uiso   1.00
N831   N     0.29895   0.88177   0.35585   0.00000  Uiso   1.00
H832   H     0.29891   0.89014   0.40104   0.00000  Uiso   1.00
C833   C     0.31170   0.93017   0.33800   0.00000  Uiso   1.00
H834   H     0.33994   0.95508   0.37051   0.00000  Uiso   1.00
H835   H     0.28312   0.95372   0.33851   0.00000  Uiso   1.00
H836   H     0.32408   0.92135   0.62683   0.00000  Uiso   1.00
C837   C     0.74861   0.73332   0.48423   0.00000  Uiso   1.00
C838   C     0.75141   0.93336   0.51578   0.00000  Uiso   1.00
C839   C     0.50741   0.73589   0.45855   0.00000  Uiso   1.00
C840   C     0.99246   0.93030   0.54171   0.00000  Uiso   1.00
C841   C     0.74810   0.67698   0.47592   0.00000  Uiso   1.00
C842   C     0.75193   0.98971   0.52417   0.00000  Uiso   1.00
C843   C     0.66448   0.83069   0.49955   0.00000  Uiso   1.00
C844   C     0.83549   0.83571   0.50039   0.00000  Uiso   1.00
C845   C     0.91426   0.88481   0.52483   0.00000  Uiso   1.00
C846   C     0.58566   0.78134   0.47506   0.00000  Uiso   1.00
C847   C     0.88405   0.83729   0.50056   0.00000  Uiso   1.00
C848   C     0.61588   0.82895   0.49930   0.00000  Uiso   1.00
C849   C     0.89999   0.78953   0.47666   0.00000  Uiso   1.00
C850   C     0.59990   0.87673   0.52301   0.00000  Uiso   1.00
C851   C     0.94596   0.78722   0.47846   0.00000  Uiso   1.00
C852   C     0.55392   0.87903   0.52133   0.00000  Uiso   1.00
C853   C     0.97670   0.83426   0.50042   0.00000  Uiso   1.00
C854   C     0.52321   0.83196   0.49947   0.00000  Uiso   1.00
C855   C     0.96100   0.88355   0.52291   0.00000  Uiso   1.00
C856   C     0.53891   0.78264   0.47710   0.00000  Uiso   1.00
C857   C     0.96156   0.73832   0.45883   0.00000  Uiso   1.00
C858   C     0.53830   0.92792   0.54110   0.00000  Uiso   1.00
Cu859  Cu    0.75501   0.83913   0.56146   0.00000  Uiso   1.00
Cu860  Cu    0.74500   0.82754   0.43854   0.00000  Uiso   1.00
H861   H     0.87632   0.75387   0.45703   0.00000  Uiso   1.00
H862   H     0.62355   0.91247   0.54242   0.00000  Uiso   1.00
H863   H     0.93827   0.70167   0.44413   0.00000  Uiso   1.00
H864   H     0.56159   0.96457   0.55580   0.00000  Uiso   1.00
H865   H     0.51766   0.69691   0.44403   0.00000  Uiso   1.00
H866   H     0.98214   0.96920   0.55670   0.00000  Uiso   1.00
H867   H     0.74428   0.98568   0.42986   0.00000  Uiso   1.00
H868   H     0.75561   0.68098   0.57028   0.00000  Uiso   1.00
N869   N     0.73745   0.81881   0.34617   0.00000  Uiso   1.00
N870   N     0.76256   0.84786   0.65383   0.00000  Uiso   1.00
O871   O     0.75326   0.76204   0.53992   0.00000  Uiso   1.00
O872   O     0.74675   0.90462   0.46008   0.00000  Uiso   1.00
O873   O     0.74480   0.75226   0.43612   0.00000  Uiso   1.00
O874   O     0.75520   0.91441   0.56388   0.00000  Uiso   1.00
O875   O     0.68936   0.83821   0.55191   0.00000  Uiso   1.00
O876   O     0.81065   0.82845   0.44809   0.00000  Uiso   1.00
O877   O     0.68090   0.82843   0.44810   0.00000  Uiso   1.00
O878   O     0.81910   0.83824   0.55190   0.00000  Uiso   1.00
C879   C     0.89712   0.93585   0.54902   0.00000  Uiso   1.00
C880   C     0.87342   0.95960   0.50940   0.00000  Uiso   1.00
C881   C     0.85983   0.67603   0.53084   0.00000  Uiso   1.00
C882   C     0.86986   0.70261   0.59197   0.00000  Uiso   1.00
C883   C     0.89381   0.67942   0.63177   0.00000  Uiso   1.00
C884   C     0.90747   0.96281   0.61051   0.00000  Uiso   1.00
H885   H     0.86635   0.93986   0.46185   0.00000  Uiso   1.00
H886   H     0.84133   0.69383   0.50001   0.00000  Uiso   1.00
H887   H     0.85914   0.74115   0.60843   0.00000  Uiso   1.00
H888   H     0.90156   0.70008   0.34570   0.00000  Uiso   1.00
H889   H     0.92626   0.94532   0.64168   0.00000  Uiso   1.00
C890   C     0.60267   0.73020   0.45063   0.00000  Uiso   1.00
C891   C     0.59083   0.70233   0.38962   0.00000  Uiso   1.00
C892   C     0.60413   0.98552   0.36837   0.00000  Uiso   1.00
C893   C     0.62892   0.96277   0.40780   0.00000  Uiso   1.00
C894   C     0.64032   0.99012   0.46849   0.00000  Uiso   1.00
C895   C     0.62741   0.70695   0.48977   0.00000  Uiso   1.00
H896   H     0.57113   0.71930   0.35879   0.00000  Uiso   1.00
H897   H     0.59524   0.96423   0.65481   0.00000  Uiso   1.00
H898   H     0.63916   0.92395   0.39143   0.00000  Uiso   1.00
H899   H     0.65927   0.97254   0.49913   0.00000  Uiso   1.00
H900   H     0.63571   0.72735   0.53689   0.00000  Uiso   1.00
N901   N     0.70996   0.77488   0.64240   0.00000  Uiso   1.00
H902   H     0.70109   0.77678   0.59952   0.00000  Uiso   1.00
C903   C     0.67013   0.75657   0.66599   0.00000  Uiso   1.00
H904   H     0.65169   0.72059   0.63306   0.00000  Uiso   1.00
H905   H     0.64747   0.78776   0.33971   0.00000  Uiso   1.00
H906   H     0.67840   0.74389   0.37428   0.00000  Uiso   1.00
N907   N     0.79895   0.88177   0.35585   0.00000  Uiso   1.00
H908   H     0.79891   0.89014   0.40104   0.00000  Uiso   1.00
C909   C     0.81170   0.93017   0.33800   0.00000  Uiso   1.00
H910   H     0.83994   0.95508   0.37051   0.00000  Uiso   1.00
H911   H     0.78312   0.95372   0.33851   0.00000  Uiso   1.00
H912   H     0.82408   0.92135   0.62683   0.00000  Uiso   1.00
C913   C     0.24861   0.06665   0.81757   0.00000  Uiso   1.00
C914   C     0.25141   0.26669   0.84912   0.00000  Uiso   1.00
C915   C     0.00741   0.06922   0.79189   0.00000  Uiso   1.00
C916   C     0.49246   0.26363   0.87505   0.00000  Uiso   1.00
C917   C     0.24810   0.01031   0.80925   0.00000  Uiso   1.00
C918   C     0.25193   0.32304   0.85750   0.00000  Uiso   1.00
C919   C     0.16448   0.16403   0.83289   0.00000  Uiso   1.00
C920   C     0.33549   0.16904   0.83372   0.00000  Uiso   1.00
C921   C     0.41426   0.21815   0.85816   0.00000  Uiso   1.00
C922   C     0.08566   0.11468   0.80840   0.00000  Uiso   1.00
C923   C     0.38405   0.17062   0.83389   0.00000  Uiso   1.00
C924   C     0.11588   0.16228   0.83263   0.00000  Uiso   1.00
C925   C     0.39999   0.12287   0.81000   0.00000  Uiso   1.00
C926   C     0.09990   0.21007   0.85634   0.00000  Uiso   1.00
C927   C     0.44596   0.12055   0.81179   0.00000  Uiso   1.00
C928   C     0.05392   0.21236   0.85466   0.00000  Uiso   1.00
C929   C     0.47670   0.16759   0.83376   0.00000  Uiso   1.00
C930   C     0.02321   0.16530   0.83281   0.00000  Uiso   1.00
C931   C     0.46100   0.21689   0.85624   0.00000  Uiso   1.00
C932   C     0.03891   0.11598   0.81043   0.00000  Uiso   1.00
C933   C     0.46156   0.07165   0.79216   0.00000  Uiso   1.00
C934   C     0.03830   0.26125   0.87444   0.00000  Uiso   1.00
Cu935  Cu    0.25501   0.17246   0.89479   0.00000  Uiso   1.00
Cu936  Cu    0.24500   0.16087   0.77187   0.00000  Uiso   1.00
H937   H     0.37632   0.08720   0.79036   0.00000  Uiso   1.00
H938   H     0.12355   0.24580   0.87575   0.00000  Uiso   1.00
H939   H     0.43827   0.03501   0.77746   0.00000  Uiso   1.00
H940   H     0.06159   0.29791   0.88913   0.00000  Uiso   1.00
H941   H     0.01766   0.03024   0.77737   0.00000  Uiso   1.00
H942   H     0.48214   0.30254   0.89003   0.00000  Uiso   1.00
H943   H     0.24428   0.31901   0.76319   0.00000  Uiso   1.00
H944   H     0.25561   0.01431   0.90361   0.00000  Uiso   1.00
N945   N     0.23745   0.15214   0.67951   0.00000  Uiso   1.00
N946   N     0.26256   0.18119   0.98716   0.00000  Uiso   1.00
O947   O     0.25326   0.09538   0.87326   0.00000  Uiso   1.00
O948   O     0.24675   0.23796   0.79341   0.00000  Uiso   1.00
O949   O     0.24480   0.08559   0.76945   0.00000  Uiso   1.00
O950   O     0.25520   0.24774   0.89721   0.00000  Uiso   1.00
O951   O     0.18936   0.17155   0.88524   0.00000  Uiso   1.00
O952   O     0.31065   0.16179   0.78143   0.00000  Uiso   1.00
O953   O     0.18090   0.16176   0.78143   0.00000  Uiso   1.00
O954   O     0.31910   0.17157   0.88523   0.00000  Uiso   1.00
C955   C     0.39712   0.26918   0.88235   0.00000  Uiso   1.00
C956   C     0.37342   0.29293   0.84273   0.00000  Uiso   1.00
C957   C     0.35983   0.00937   0.86417   0.00000  Uiso   1.00
C958   C     0.36986   0.03595   0.92531   0.00000  Uiso   1.00
C959   C     0.39381   0.01275   0.96510   0.00000  Uiso   1.00
C960   C     0.40747   0.29614   0.94385   0.00000  Uiso   1.00
H961   H     0.36635   0.27319   0.79518   0.00000  Uiso   1.00
H962   H     0.34133   0.02717   0.83334   0.00000  Uiso   1.00
H963   H     0.35914   0.07448   0.94176   0.00000  Uiso   1.00
H964   H     0.40156   0.03342   0.67904   0.00000  Uiso   1.00
H965   H     0.42626   0.27865   0.97502   0.00000  Uiso   1.00
C966   C     0.10267   0.06353   0.78396   0.00000  Uiso   1.00
C967   C     0.09083   0.03566   0.72295   0.00000  Uiso   1.00
C968   C     0.10413   0.31886   0.70171   0.00000  Uiso   1.00
C969   C     0.12892   0.29611   0.74113   0.00000  Uiso   1.00
C970   C     0.14032   0.32345   0.80182   0.00000  Uiso   1.00
C971   C     0.12741   0.04029   0.82310   0.00000  Uiso   1.00
H972   H     0.07113   0.05263   0.69212   0.00000  Uiso   1.00
H973   H     0.09524   0.29756   0.98814   0.00000  Uiso   1.00
H974   H     0.13916   0.25728   0.72476   0.00000  Uiso   1.00
H975   H     0.15927   0.30588   0.83246   0.00000  Uiso   1.00
H976   H     0.13571   0.06068   0.87023   0.00000  Uiso   1.00
N977   N     0.20996   0.10821   0.97573   0.00000  Uiso   1.00
H978   H     0.20109   0.11011   0.93285   0.00000  Uiso   1.00
C979   C     0.17013   0.08990   0.99932   0.00000  Uiso   1.00
H980   H     0.15169   0.05392   0.96639   0.00000  Uiso   1.00
H981   H     0.14747   0.12109   0.67304   0.00000  Uiso   1.00
H982   H     0.17840   0.07722   0.70761   0.00000  Uiso   1.00
N983   N     0.29895   0.21511   0.68919   0.00000  Uiso   1.00
H984   H     0.29891   0.22347   0.73438   0.00000  Uiso   1.00
C985   C     0.31170   0.26351   0.67134   0.00000  Uiso   1.00
H986   H     0.33994   0.28841   0.70384   0.00000  Uiso   1.00
H987   H     0.28312   0.28705   0.67185   0.00000  Uiso   1.00
H988   H     0.32408   0.25468   0.96017   0.00000  Uiso   1.00
C989   C     0.74861   0.06665   0.81757   0.00000  Uiso   1.00
C990   C     0.75141   0.26669   0.84912   0.00000  Uiso   1.00
C991   C     0.50741   0.06922   0.79189   0.00000  Uiso   1.00
C992   C     0.99246   0.26363   0.87505   0.00000  Uiso   1.00
C993   C     0.74810   0.01031   0.80925   0.00000  Uiso   1.00
C994   C     0.75193   0.32304   0.85750   0.00000  Uiso   1.00
C995   C     0.66448   0.16403   0.83289   0.00000  Uiso   1.00
C996   C     0.83549   0.16904   0.83372   0.00000  Uiso   1.00
C997   C     0.91426   0.21815   0.85816   0.00000  Uiso   1.00
C998   C     0.58566   0.11468   0.80840   0.00000  Uiso   1.00
C999   C     0.88405   0.17062   0.83389   0.00000  Uiso   1.00
C1000  C     0.61588   0.16228   0.83263   0.00000  Uiso   1.00
C1001  C     0.89999   0.12287   0.81000   0.00000  Uiso   1.00
C1002  C     0.59990   0.21007   0.85634   0.00000  Uiso   1.00
C1003  C     0.94596   0.12055   0.81179   0.00000  Uiso   1.00
C1004  C     0.55392   0.21236   0.85466   0.00000  Uiso   1.00
C1005  C     0.97670   0.16759   0.83376   0.00000  Uiso   1.00
C1006  C     0.52321   0.16530   0.83281   0.00000  Uiso   1.00
C1007  C     0.96100   0.21689   0.85624   0.00000  Uiso   1.00
C1008  C     0.53891   0.11598   0.81043   0.00000  Uiso   1.00
C1009  C     0.96156   0.07165   0.79216   0.00000  Uiso   1.00
C1010  C     0.53830   0.26125   0.87444   0.00000  Uiso   1.00
Cu1011 Cu    0.75501   0.17246   0.89479   0.00000  Uiso   1.00
Cu1012 Cu    0.74500   0.16087   0.77187   0.00000  Uiso   1.00
H1013  H     0.87632   0.08720   0.79036   0.00000  Uiso   1.00
H1014  H     0.62355   0.24580   0.87575   0.00000  Uiso   1.00
H1015  H     0.93827   0.03501   0.77746   0.00000  Uiso   1.00
H1016  H     0.56159   0.29791   0.88913   0.00000  Uiso   1.00
H1017  H     0.51766   0.03024   0.77737   0.00000  Uiso   1.00
H1018  H     0.98214   0.30254   0.89003   0.00000  Uiso   1.00
H1019  H     0.74428   0.31901   0.76319   0.00000  Uiso   1.00
H1020  H     0.75561   0.01431   0.90361   0.00000  Uiso   1.00
N1021  N     0.73745   0.15214   0.67951   0.00000  Uiso   1.00
N1022  N     0.76256   0.18119   0.98716   0.00000  Uiso   1.00
O1023  O     0.75326   0.09538   0.87326   0.00000  Uiso   1.00
O1024  O     0.74675   0.23796   0.79341   0.00000  Uiso   1.00
O1025  O     0.74480   0.08559   0.76945   0.00000  Uiso   1.00
O1026  O     0.75520   0.24774   0.89721   0.00000  Uiso   1.00
O1027  O     0.68936   0.17155   0.88524   0.00000  Uiso   1.00
O1028  O     0.81065   0.16179   0.78143   0.00000  Uiso   1.00
O1029  O     0.68090   0.16176   0.78143   0.00000  Uiso   1.00
O1030  O     0.81910   0.17157   0.88523   0.00000  Uiso   1.00
C1031  C     0.89712   0.26918   0.88235   0.00000  Uiso   1.00
C1032  C     0.87342   0.29293   0.84273   0.00000  Uiso   1.00
C1033  C     0.85983   0.00937   0.86417   0.00000  Uiso   1.00
C1034  C     0.86986   0.03595   0.92531   0.00000  Uiso   1.00
C1035  C     0.89381   0.01275   0.96510   0.00000  Uiso   1.00
C1036  C     0.90747   0.29614   0.94385   0.00000  Uiso   1.00
H1037  H     0.86635   0.27319   0.79518   0.00000  Uiso   1.00
H1038  H     0.84133   0.02717   0.83334   0.00000  Uiso   1.00
H1039  H     0.85914   0.07448   0.94176   0.00000  Uiso   1.00
H1040  H     0.90156   0.03342   0.67904   0.00000  Uiso   1.00
H1041  H     0.92626   0.27865   0.97502   0.00000  Uiso   1.00
C1042  C     0.60267   0.06353   0.78396   0.00000  Uiso   1.00
C1043  C     0.59083   0.03566   0.72295   0.00000  Uiso   1.00
C1044  C     0.60413   0.31886   0.70171   0.00000  Uiso   1.00
C1045  C     0.62892   0.29611   0.74113   0.00000  Uiso   1.00
C1046  C     0.64032   0.32345   0.80182   0.00000  Uiso   1.00
C1047  C     0.62741   0.04029   0.82310   0.00000  Uiso   1.00
H1048  H     0.57113   0.05263   0.69212   0.00000  Uiso   1.00
H1049  H     0.59524   0.29756   0.98814   0.00000  Uiso   1.00
H1050  H     0.63916   0.25728   0.72476   0.00000  Uiso   1.00
H1051  H     0.65927   0.30588   0.83246   0.00000  Uiso   1.00
H1052  H     0.63571   0.06068   0.87023   0.00000  Uiso   1.00
N1053  N     0.70996   0.10821   0.97573   0.00000  Uiso   1.00
H1054  H     0.70109   0.11011   0.93285   0.00000  Uiso   1.00
C1055  C     0.67013   0.08990   0.99932   0.00000  Uiso   1.00
H1056  H     0.65169   0.05392   0.96639   0.00000  Uiso   1.00
H1057  H     0.64747   0.12109   0.67304   0.00000  Uiso   1.00
H1058  H     0.67840   0.07722   0.70761   0.00000  Uiso   1.00
N1059  N     0.79895   0.21511   0.68919   0.00000  Uiso   1.00
H1060  H     0.79891   0.22347   0.73438   0.00000  Uiso   1.00
C1061  C     0.81170   0.26351   0.67134   0.00000  Uiso   1.00
H1062  H     0.83994   0.28841   0.70384   0.00000  Uiso   1.00
H1063  H     0.78312   0.28705   0.67185   0.00000  Uiso   1.00
H1064  H     0.82408   0.25468   0.96017   0.00000  Uiso   1.00
C1065  C     0.24861   0.39998   0.81757   0.00000  Uiso   1.00
C1066  C     0.25141   0.60002   0.84912   0.00000  Uiso   1.00
C1067  C     0.00741   0.40256   0.79189   0.00000  Uiso   1.00
C1068  C     0.49246   0.59697   0.87505   0.00000  Uiso   1.00
C1069  C     0.24810   0.34365   0.80925   0.00000  Uiso   1.00
C1070  C     0.25193   0.65638   0.85750   0.00000  Uiso   1.00
C1071  C     0.16448   0.49736   0.83289   0.00000  Uiso   1.00
C1072  C     0.33549   0.50238   0.83372   0.00000  Uiso   1.00
C1073  C     0.41426   0.55148   0.85816   0.00000  Uiso   1.00
C1074  C     0.08566   0.44801   0.80840   0.00000  Uiso   1.00
C1075  C     0.38405   0.50395   0.83389   0.00000  Uiso   1.00
C1076  C     0.11588   0.49561   0.83263   0.00000  Uiso   1.00
C1077  C     0.39999   0.45620   0.81000   0.00000  Uiso   1.00
C1078  C     0.09990   0.54340   0.85634   0.00000  Uiso   1.00
C1079  C     0.44596   0.45388   0.81179   0.00000  Uiso   1.00
C1080  C     0.05392   0.54569   0.85466   0.00000  Uiso   1.00
C1081  C     0.47670   0.50093   0.83376   0.00000  Uiso   1.00
C1082  C     0.02321   0.49863   0.83281   0.00000  Uiso   1.00
C1083  C     0.46100   0.55022   0.85624   0.00000  Uiso   1.00
C1084  C     0.03891   0.44931   0.81043   0.00000  Uiso   1.00
C1085  C     0.46156   0.40498   0.79216   0.00000  Uiso   1.00
C1086  C     0.03830   0.59458   0.87444   0.00000  Uiso   1.00
Cu1087 Cu    0.25501   0.50579   0.89479   0.00000  Uiso   1.00
Cu1088 Cu    0.24500   0.49421   0.77187   0.00000  Uiso   1.00
H1089  H     0.37632   0.42053   0.79036   0.00000  Uiso   1.00
H1090  H     0.12355   0.57914   0.87575   0.00000  Uiso   1.00
H1091  H     0.43827   0.36834   0.77746   0.00000  Uiso   1.00
H1092  H     0.06159   0.63124   0.88913   0.00000  Uiso   1.00
H1093  H     0.01766   0.36358   0.77737   0.00000  Uiso   1.00
H1094  H     0.48214   0.63587   0.89003   0.00000  Uiso   1.00
H1095  H     0.24428   0.65235   0.76319   0.00000  Uiso   1.00
H1096  H     0.25561   0.34765   0.90361   0.00000  Uiso   1.00
N1097  N     0.23745   0.48547   0.67951   0.00000  Uiso   1.00
N1098  N     0.26256   0.51453   0.98716   0.00000  Uiso   1.00
O1099  O     0.25326   0.42871   0.87326   0.00000  Uiso   1.00
O1100  O     0.24675   0.57129   0.79341   0.00000  Uiso   1.00
O1101  O     0.24480   0.41892   0.76945   0.00000  Uiso   1.00
O1102  O     0.25520   0.58108   0.89721   0.00000  Uiso   1.00
O1103  O     0.18936   0.50488   0.88524   0.00000  Uiso   1.00
O1104  O     0.31065   0.49512   0.78143   0.00000  Uiso   1.00
O1105  O     0.18090   0.49510   0.78143   0.00000  Uiso   1.00
O1106  O     0.31910   0.50490   0.88523   0.00000  Uiso   1.00
C1107  C     0.39712   0.60251   0.88235   0.00000  Uiso   1.00
C1108  C     0.37342   0.62627   0.84273   0.00000  Uiso   1.00
C1109  C     0.35983   0.34270   0.86417   0.00000  Uiso   1.00
C1110  C     0.36986   0.36928   0.92531   0.00000  Uiso   1.00
C1111  C     0.39381   0.34609   0.96510   0.00000  Uiso   1.00
C1112  C     0.40747   0.62948   0.94385   0.00000  Uiso   1.00
H1113  H     0.36635   0.60653   0.79518   0.00000  Uiso   1.00
H1114  H     0.34133   0.36050   0.83334   0.00000  Uiso   1.00
H1115  H     0.35914   0.40782   0.94176   0.00000  Uiso   1.00
H1116  H     0.40156   0.36675   0.67904   0.00000  Uiso   1.00
H1117  H     0.42626   0.61198   0.97502   0.00000  Uiso   1.00
C1118  C     0.10267   0.39686   0.78396   0.00000  Uiso   1.00
C1119  C     0.09083   0.36899   0.72295   0.00000  Uiso   1.00
C1120  C     0.10413   0.65219   0.70171   0.00000  Uiso   1.00
C1121  C     0.12892   0.62944   0.74113   0.00000  Uiso   1.00
C1122  C     0.14032   0.65679   0.80182   0.00000  Uiso   1.00
C1123  C     0.12741   0.37362   0.82310   0.00000  Uiso   1.00
H1124  H     0.07113   0.38597   0.69212   0.00000  Uiso   1.00
H1125  H     0.09524   0.63089   0.98814   0.00000  Uiso   1.00
H1126  H     0.13916   0.59062   0.72476   0.00000  Uiso   1.00
H1127  H     0.15927   0.63921   0.83246   0.00000  Uiso   1.00
H1128  H     0.13571   0.39402   0.87023   0.00000  Uiso   1.00
N1129  N     0.20996   0.44155   0.97573   0.00000  Uiso   1.00
H1130  H     0.20109   0.44345   0.93285   0.00000  Uiso   1.00
C1131  C     0.17013   0.42324   0.99932   0.00000  Uiso   1.00
H1132  H     0.15169   0.38725   0.96639   0.00000  Uiso   1.00
H1133  H     0.14747   0.45442   0.67304   0.00000  Uiso   1.00
H1134  H     0.17840   0.41055   0.70761   0.00000  Uiso   1.00
N1135  N     0.29895   0.54844   0.68919   0.00000  Uiso   1.00
H1136  H     0.29891   0.55681   0.73438   0.00000  Uiso   1.00
C1137  C     0.31170   0.59684   0.67134   0.00000  Uiso   1.00
H1138  H     0.33994   0.62175   0.70384   0.00000  Uiso   1.00
H1139  H     0.28312   0.62038   0.67185   0.00000  Uiso   1.00
H1140  H     0.32408   0.58802   0.96017   0.00000  Uiso   1.00
C1141  C     0.74861   0.39998   0.81757   0.00000  Uiso   1.00
C1142  C     0.75141   0.60002   0.84912   0.00000  Uiso   1.00
C1143  C     0.50741   0.40256   0.79189   0.00000  Uiso   1.00
C1144  C     0.99246   0.59697   0.87505   0.00000  Uiso   1.00
C1145  C     0.74810   0.34365   0.80925   0.00000  Uiso   1.00
C1146  C     0.75193   0.65638   0.85750   0.00000  Uiso   1.00
C1147  C     0.66448   0.49736   0.83289   0.00000  Uiso   1.00
C1148  C     0.83549   0.50238   0.83372   0.00000  Uiso   1.00
C1149  C     0.91426   0.55148   0.85816   0.00000  Uiso   1.00
C1150  C     0.58566   0.44801   0.80840   0.00000  Uiso   1.00
C1151  C     0.88405   0.50395   0.83389   0.00000  Uiso   1.00
C1152  C     0.61588   0.49561   0.83263   0.00000  Uiso   1.00
C1153  C     0.89999   0.45620   0.81000   0.00000  Uiso   1.00
C1154  C     0.59990   0.54340   0.85634   0.00000  Uiso   1.00
C1155  C     0.94596   0.45388   0.81179   0.00000  Uiso   1.00
C1156  C     0.55392   0.54569   0.85466   0.00000  Uiso   1.00
C1157  C     0.97670   0.50093   0.83376   0.00000  Uiso   1.00
C1158  C     0.52321   0.49863   0.83281   0.00000  Uiso   1.00
C1159  C     0.96100   0.55022   0.85624   0.00000  Uiso   1.00
C1160  C     0.53891   0.44931   0.81043   0.00000  Uiso   1.00
C1161  C     0.96156   0.40498   0.79216   0.00000  Uiso   1.00
C1162  C     0.53830   0.59458   0.87444   0.00000  Uiso   1.00
Cu1163 Cu    0.75501   0.50579   0.89479   0.00000  Uiso   1.00
Cu1164 Cu    0.74500   0.49421   0.77187   0.00000  Uiso   1.00
H1165  H     0.87632   0.42053   0.79036   0.00000  Uiso   1.00
H1166  H     0.62355   0.57914   0.87575   0.00000  Uiso   1.00
H1167  H     0.93827   0.36834   0.77746   0.00000  Uiso   1.00
H1168  H     0.56159   0.63124   0.88913   0.00000  Uiso   1.00
H1169  H     0.51766   0.36358   0.77737   0.00000  Uiso   1.00
H1170  H     0.98214   0.63587   0.89003   0.00000  Uiso   1.00
H1171  H     0.74428   0.65235   0.76319   0.00000  Uiso   1.00
H1172  H     0.75561   0.34765   0.90361   0.00000  Uiso   1.00
N1173  N     0.73745   0.48547   0.67951   0.00000  Uiso   1.00
N1174  N     0.76256   0.51453   0.98716   0.00000  Uiso   1.00
O1175  O     0.75326   0.42871   0.87326   0.00000  Uiso   1.00
O1176  O     0.74675   0.57129   0.79341   0.00000  Uiso   1.00
O1177  O     0.74480   0.41892   0.76945   0.00000  Uiso   1.00
O1178  O     0.75520   0.58108   0.89721   0.00000  Uiso   1.00
O1179  O     0.68936   0.50488   0.88524   0.00000  Uiso   1.00
O1180  O     0.81065   0.49512   0.78143   0.00000  Uiso   1.00
O1181  O     0.68090   0.49510   0.78143   0.00000  Uiso   1.00
O1182  O     0.81910   0.50490   0.88523   0.00000  Uiso   1.00
C1183  C     0.89712   0.60251   0.88235   0.00000  Uiso   1.00
C1184  C     0.87342   0.62627   0.84273   0.00000  Uiso   1.00
C1185  C     0.85983   0.34270   0.86417   0.00000  Uiso   1.00
C1186  C     0.86986   0.36928   0.92531   0.00000  Uiso   1.00
C1187  C     0.89381   0.34609   0.96510   0.00000  Uiso   1.00
C1188  C     0.90747   0.62948   0.94385   0.00000  Uiso   1.00
H1189  H     0.86635   0.60653   0.79518   0.00000  Uiso   1.00
H1190  H     0.84133   0.36050   0.83334   0.00000  Uiso   1.00
H1191  H     0.85914   0.40782   0.94176   0.00000  Uiso   1.00
H1192  H     0.90156   0.36675   0.67904   0.00000  Uiso   1.00
H1193  H     0.92626   0.61198   0.97502   0.00000  Uiso   1.00
C1194  C     0.60267   0.39686   0.78396   0.00000  Uiso   1.00
C1195  C     0.59083   0.36899   0.72295   0.00000  Uiso   1.00
C1196  C     0.60413   0.65219   0.70171   0.00000  Uiso   1.00
C1197  C     0.62892   0.62944   0.74113   0.00000  Uiso   1.00
C1198  C     0.64032   0.65679   0.80182   0.00000  Uiso   1.00
C1199  C     0.62741   0.37362   0.82310   0.00000  Uiso   1.00
H1200  H     0.57113   0.38597   0.69212   0.00000  Uiso   1.00
H1201  H     0.59524   0.63089   0.98814   0.00000  Uiso   1.00
H1202  H     0.63916   0.59062   0.72476   0.00000  Uiso   1.00
H1203  H     0.65927   0.63921   0.83246   0.00000  Uiso   1.00
H1204  H     0.63571   0.39402   0.87023   0.00000  Uiso   1.00
N1205  N     0.70996   0.44155   0.97573   0.00000  Uiso   1.00
H1206  H     0.70109   0.44345   0.93285   0.00000  Uiso   1.00
C1207  C     0.67013   0.42324   0.99932   0.00000  Uiso   1.00
H1208  H     0.65169   0.38725   0.96639   0.00000  Uiso   1.00
H1209  H     0.64747   0.45442   0.67304   0.00000  Uiso   1.00
H1210  H     0.67840   0.41055   0.70761   0.00000  Uiso   1.00
N1211  N     0.79895   0.54844   0.68919   0.00000  Uiso   1.00
H1212  H     0.79891   0.55681   0.73438   0.00000  Uiso   1.00
C1213  C     0.81170   0.59684   0.67134   0.00000  Uiso   1.00
H1214  H     0.83994   0.62175   0.70384   0.00000  Uiso   1.00
H1215  H     0.78312   0.62038   0.67185   0.00000  Uiso   1.00
H1216  H     0.82408   0.58802   0.96017   0.00000  Uiso   1.00
C1217  C     0.24861   0.73332   0.81757   0.00000  Uiso   1.00
C1218  C     0.25141   0.93336   0.84912   0.00000  Uiso   1.00
C1219  C     0.00741   0.73589   0.79189   0.00000  Uiso   1.00
C1220  C     0.49246   0.93030   0.87505   0.00000  Uiso   1.00
C1221  C     0.24810   0.67698   0.80925   0.00000  Uiso   1.00
C1222  C     0.25193   0.98971   0.85750   0.00000  Uiso   1.00
C1223  C     0.16448   0.83069   0.83289   0.00000  Uiso   1.00
C1224  C     0.33549   0.83571   0.83372   0.00000  Uiso   1.00
C1225  C     0.41426   0.88481   0.85816   0.00000  Uiso   1.00
C1226  C     0.08566   0.78134   0.80840   0.00000  Uiso   1.00
C1227  C     0.38405   0.83729   0.83389   0.00000  Uiso   1.00
C1228  C     0.11588   0.82895   0.83263   0.00000  Uiso   1.00
C1229  C     0.39999   0.78953   0.81000   0.00000  Uiso   1.00
C1230  C     0.09990   0.87673   0.85634   0.00000  Uiso   1.00
C1231  C     0.44596   0.78722   0.81179   0.00000  Uiso   1.00
C1232  C     0.05392   0.87903   0.85466   0.00000  Uiso   1.00
C1233  C     0.47670   0.83426   0.83376   0.00000  Uiso   1.00
C1234  C     0.02321   0.83196   0.83281   0.00000  Uiso   1.00
C1235  C     0.46100   0.88355   0.85624   0.00000  Uiso   1.00
C1236  C     0.03891   0.78264   0.81043   0.00000  Uiso   1.00
C1237  C     0.46156   0.73832   0.79216   0.00000  Uiso   1.00
C1238  C     0.03830   0.92792   0.87444   0.00000  Uiso   1.00
Cu1239 Cu    0.25501   0.83913   0.89479   0.00000  Uiso   1.00
Cu1240 Cu    0.24500   0.82754   0.77187   0.00000  Uiso   1.00
H1241  H     0.37632   0.75387   0.79036   0.00000  Uiso   1.00
H1242  H     0.12355   0.91247   0.87575   0.00000  Uiso   1.00
H1243  H     0.43827   0.70167   0.77746   0.00000  Uiso   1.00
H1244  H     0.06159   0.96457   0.88913   0.00000  Uiso   1.00
H1245  H     0.01766   0.69691   0.77737   0.00000  Uiso   1.00
H1246  H     0.48214   0.96920   0.89003   0.00000  Uiso   1.00
H1247  H     0.24428   0.98568   0.76319   0.00000  Uiso   1.00
H1248  H     0.25561   0.68098   0.90361   0.00000  Uiso   1.00
N1249  N     0.23745   0.81881   0.67951   0.00000  Uiso   1.00
N1250  N     0.26256   0.84786   0.98716   0.00000  Uiso   1.00
O1251  O     0.25326   0.76204   0.87326   0.00000  Uiso   1.00
O1252  O     0.24675   0.90462   0.79341   0.00000  Uiso   1.00
O1253  O     0.24480   0.75226   0.76945   0.00000  Uiso   1.00
O1254  O     0.25520   0.91441   0.89721   0.00000  Uiso   1.00
O1255  O     0.18936   0.83821   0.88524   0.00000  Uiso   1.00
O1256  O     0.31065   0.82845   0.78143   0.00000  Uiso   1.00
O1257  O     0.18090   0.82843   0.78143   0.00000  Uiso   1.00
O1258  O     0.31910   0.83824   0.88523   0.00000  Uiso   1.00
C1259  C     0.39712   0.93585   0.88235   0.00000  Uiso   1.00
C1260  C     0.37342   0.95960   0.84273   0.00000  Uiso   1.00
C1261  C     0.35983   0.67603   0.86417   0.00000  Uiso   1.00
C1262  C     0.36986   0.70261   0.92531   0.00000  Uiso   1.00
C1263  C     0.39381   0.67942   0.96510   0.00000  Uiso   1.00
C1264  C     0.40747   0.96281   0.94385   0.00000  Uiso   1.00
H1265  H     0.36635   0.93986   0.79518   0.00000  Uiso   1.00
H1266  H     0.34133   0.69383   0.83334   0.00000  Uiso   1.00
H1267  H     0.35914   0.74115   0.94176   0.00000  Uiso   1.00
H1268  H     0.40156   0.70008   0.67904   0.00000  Uiso   1.00
H1269  H     0.42626   0.94532   0.97502   0.00000  Uiso   1.00
C1270  C     0.10267   0.73020   0.78396   0.00000  Uiso   1.00
C1271  C     0.09083   0.70233   0.72295   0.00000  Uiso   1.00
C1272  C     0.10413   0.98552   0.70171   0.00000  Uiso   1.00
C1273  C     0.12892   0.96277   0.74113   0.00000  Uiso   1.00
C1274  C     0.14032   0.99012   0.80182   0.00000  Uiso   1.00
C1275  C     0.12741   0.70695   0.82310   0.00000  Uiso   1.00
H1276  H     0.07113   0.71930   0.69212   0.00000  Uiso   1.00
H1277  H     0.09524   0.96423   0.98814   0.00000  Uiso   1.00
H1278  H     0.13916   0.92395   0.72476   0.00000  Uiso   1.00
H1279  H     0.15927   0.97254   0.83246   0.00000  Uiso   1.00
H1280  H     0.13571   0.72735   0.87023   0.00000  Uiso   1.00
N1281  N     0.20996   0.77488   0.97573   0.00000  Uiso   1.00
H1282  H     0.20109   0.77678   0.93285   0.00000  Uiso   1.00
C1283  C     0.17013   0.75657   0.99932   0.00000  Uiso   1.00
H1284  H     0.15169   0.72059   0.96639   0.00000  Uiso   1.00
H1285  H     0.14747   0.78776   0.67304   0.00000  Uiso   1.00
H1286  H     0.17840   0.74389   0.70761   0.00000  Uiso   1.00
N1287  N     0.29895   0.88177   0.68919   0.00000  Uiso   1.00
H1288  H     0.29891   0.89014   0.73438   0.00000  Uiso   1.00
C1289  C     0.31170   0.93017   0.67134   0.00000  Uiso   1.00
H1290  H     0.33994   0.95508   0.70384   0.00000  Uiso   1.00
H1291  H     0.28312   0.95372   0.67185   0.00000  Uiso   1.00
H1292  H     0.32408   0.92135   0.96017   0.00000  Uiso   1.00
C1293  C     0.74861   0.73332   0.81757   0.00000  Uiso   1.00
C1294  C     0.75141   0.93336   0.84912   0.00000  Uiso   1.00
C1295  C     0.50741   0.73589   0.79189   0.00000  Uiso   1.00
C1296  C     0.99246   0.93030   0.87505   0.00000  Uiso   1.00
C1297  C     0.74810   0.67698   0.80925   0.00000  Uiso   1.00
C1298  C     0.75193   0.98971   0.85750   0.00000  Uiso   1.00
C1299  C     0.66448   0.83069   0.83289   0.00000  Uiso   1.00
C1300  C     0.83549   0.83571   0.83372   0.00000  Uiso   1.00
C1301  C     0.91426   0.88481   0.85816   0.00000  Uiso   1.00
C1302  C     0.58566   0.78134   0.80840   0.00000  Uiso   1.00
C1303  C     0.88405   0.83729   0.83389   0.00000  Uiso   1.00
C1304  C     0.61588   0.82895   0.83263   0.00000  Uiso   1.00
C1305  C     0.89999   0.78953   0.81000   0.00000  Uiso   1.00
C1306  C     0.59990   0.87673   0.85634   0.00000  Uiso   1.00
C1307  C     0.94596   0.78722   0.81179   0.00000  Uiso   1.00
C1308  C     0.55392   0.87903   0.85466   0.00000  Uiso   1.00
C1309  C     0.97670   0.83426   0.83376   0.00000  Uiso   1.00
C1310  C     0.52321   0.83196   0.83281   0.00000  Uiso   1.00
C1311  C     0.96100   0.88355   0.85624   0.00000  Uiso   1.00
C1312  C     0.53891   0.78264   0.81043   0.00000  Uiso   1.00
C1313  C     0.96156   0.73832   0.79216   0.00000  Uiso   1.00
C1314  C     0.53830   0.92792   0.87444   0.00000  Uiso   1.00
Cu1315 Cu    0.75501   0.83913   0.89479   0.00000  Uiso   1.00
Cu1316 Cu    0.74500   0.82754   0.77187   0.00000  Uiso   1.00
H1317  H     0.87632   0.75387   0.79036   0.00000  Uiso   1.00
H1318  H     0.62355   0.91247   0.87575   0.00000  Uiso   1.00
H1319  H     0.93827   0.70167   0.77746   0.00000  Uiso   1.00
H1320  H     0.56159   0.96457   0.88913   0.00000  Uiso   1.00
H1321  H     0.51766   0.69691   0.77737   0.00000  Uiso   1.00
H1322  H     0.98214   0.96920   0.89003   0.00000  Uiso   1.00
H1323  H     0.74428   0.98568   0.76319   0.00000  Uiso   1.00
H1324  H     0.75561   0.68098   0.90361   0.00000  Uiso   1.00
N1325  N     0.73745   0.81881   0.67951   0.00000  Uiso   1.00
N1326  N     0.76256   0.84786   0.98716   0.00000  Uiso   1.00
O1327  O     0.75326   0.76204   0.87326   0.00000  Uiso   1.00
O1328  O     0.74675   0.90462   0.79341   0.00000  Uiso   1.00
O1329  O     0.74480   0.75226   0.76945   0.00000  Uiso   1.00
O1330  O     0.75520   0.91441   0.89721   0.00000  Uiso   1.00
O1331  O     0.68936   0.83821   0.88524   0.00000  Uiso   1.00
O1332  O     0.81065   0.82845   0.78143   0.00000  Uiso   1.00
O1333  O     0.68090   0.82843   0.78143   0.00000  Uiso   1.00
O1334  O     0.81910   0.83824   0.88523   0.00000  Uiso   1.00
C1335  C     0.89712   0.93585   0.88235   0.00000  Uiso   1.00
C1336  C     0.87342   0.95960   0.84273   0.00000  Uiso   1.00
C1337  C     0.85983   0.67603   0.86417   0.00000  Uiso   1.00
C1338  C     0.86986   0.70261   0.92531   0.00000  Uiso   1.00
C1339  C     0.89381   0.67942   0.96510   0.00000  Uiso   1.00
C1340  C     0.90747   0.96281   0.94385   0.00000  Uiso   1.00
H1341  H     0.86635   0.93986   0.79518   0.00000  Uiso   1.00
H1342  H     0.84133   0.69383   0.83334   0.00000  Uiso   1.00
H1343  H     0.85914   0.74115   0.94176   0.00000  Uiso   1.00
H1344  H     0.90156   0.70008   0.67904   0.00000  Uiso   1.00
H1345  H     0.92626   0.94532   0.97502   0.00000  Uiso   1.00
C1346  C     0.60267   0.73020   0.78396   0.00000  Uiso   1.00
C1347  C     0.59083   0.70233   0.72295   0.00000  Uiso   1.00
C1348  C     0.60413   0.98552   0.70171   0.00000  Uiso   1.00
C1349  C     0.62892   0.96277   0.74113   0.00000  Uiso   1.00
C1350  C     0.64032   0.99012   0.80182   0.00000  Uiso   1.00
C1351  C     0.62741   0.70695   0.82310   0.00000  Uiso   1.00
H1352  H     0.57113   0.71930   0.69212   0.00000  Uiso   1.00
H1353  H     0.59524   0.96423   0.98814   0.00000  Uiso   1.00
H1354  H     0.63916   0.92395   0.72476   0.00000  Uiso   1.00
H1355  H     0.65927   0.97254   0.83246   0.00000  Uiso   1.00
H1356  H     0.63571   0.72735   0.87023   0.00000  Uiso   1.00
N1357  N     0.70996   0.77488   0.97573   0.00000  Uiso   1.00
H1358  H     0.70109   0.77678   0.93285   0.00000  Uiso   1.00
C1359  C     0.67013   0.75657   0.99932   0.00000  Uiso   1.00
H1360  H     0.65169   0.72059   0.96639   0.00000  Uiso   1.00
H1361  H     0.64747   0.78776   0.67304   0.00000  Uiso   1.00
H1362  H     0.67840   0.74389   0.70761   0.00000  Uiso   1.00
N1363  N     0.79895   0.88177   0.68919   0.00000  Uiso   1.00
H1364  H     0.79891   0.89014   0.73438   0.00000  Uiso   1.00
C1365  C     0.81170   0.93017   0.67134   0.00000  Uiso   1.00
H1366  H     0.83994   0.95508   0.70384   0.00000  Uiso   1.00
H1367  H     0.78312   0.95372   0.67185   0.00000  Uiso   1.00
H1368  H     0.82408   0.92135   0.96017   0.00000  Uiso   1.00
loop_
_geom_bond_atom_site_label_1
_geom_bond_atom_site_label_2
_geom_bond_distance
_geom_bond_site_symmetry_2
_ccdc_geom_bond_type
C1     C5      1.435   .     S
C1     O37     1.311   .     A
C1     O35     1.304   .     A
C2     C6      1.435   .     S
C2     O38     1.311   .     A
C2     O36     1.304   .     A
C3     H29     1.081   .     S
C3     C20     1.411   .     A
C3     C97     1.389   1_455 S
C4     C19     1.411   .     A
C4     H30     1.081   .     S
C4     C98     1.390   .     S
C5     C310    1.340   1_545 S
C5     H335    1.086   1_545 S
C6     C157    1.340   .     S
C6     H184    1.087   .     S
C7     C12     1.458   .     S
C7     O41     1.312   .     A
C7     O39     1.313   .     A
C8     O42     1.312   .     A
C8     C11     1.458   .     S
C8     O40     1.313   .     A
C9     C19     1.416   .     A
C9     C43     1.484   .     S
C9     C11     1.416   .     A
C10    C20     1.416   .     A
C10    C12     1.417   .     A
C10    C54     1.486   .     S
C11    C13     1.393   .     A
C12    C14     1.393   .     A
C13    H25     1.082   .     S
C13    C15     1.389   .     A
C14    H26     1.083   .     S
C14    C16     1.389   .     A
C15    C17     1.409   .     A
C15    C21     1.397   .     A
C16    C22     1.397   .     A
C16    C18     1.409   .     A
C17    C19     1.417   .     A
C17    C94     1.410   .     S
C18    C20     1.417   .     A
C18    C93     1.410   1_455 S
C21    H27     1.084   .     S
C21    C79     1.389   .     S
C22    H28     1.084   .     S
C22    C80     1.390   1_455 S
Cu23   O42     1.964   .     S
Cu23   Cu24    2.744   .     S
Cu23   N34     2.062   .     S
Cu23   O35     1.947   .     S
Cu23   O38     1.951   .     S
Cu23   O39     1.965   .     S
Cu24   O36     1.947   .     S
Cu24   O40     1.965   .     S
Cu24   O41     1.964   .     S
Cu24   O37     1.951   .     S
Cu24   N33     2.062   .     S
H31    C157    1.086   .     S
H32    C310    1.087   1_545 S
N33    N946    1.289   1_554 S
N33    N977    1.385   1_554 S
N34    N489    1.289   .     S
N34    N527    1.386   .     S
C43    C48     1.406   .     A
C43    C44     1.399   .     A
C44    H49     1.079   .     S
C44    C197    1.395   .     S
C45    C46     1.396   .     A
C45    H50     1.078   .     S
C45    C348    1.395   1_545 S
C46    C47     1.396   .     A
C46    H51     1.083   .     S
C47    C352    1.400   1_545 S
C47    H508    1.080   .     S
C48    H53     1.083   .     S
C48    C199    1.400   .     S
H52    C959    1.080   1_554 S
C54    C59     1.399   .     A
C54    C55     1.406   .     A
C55    H60     1.083   .     S
C55    C360    1.400   1_545 S
C56    C57     1.396   .     A
C56    C207    1.400   .     S
C56    H973    1.080   1_554 S
C57    H62     1.083   .     S
C57    C58     1.395   .     A
C58    H63     1.078   .     S
C58    C211    1.396   .     S
C59    H64     1.077   .     S
C59    C362    1.396   1_545 S
H61    C512    1.080   .     S
N65    C67     1.441   .     S
N65    H66     1.008   .     S
N65    N489    1.385   .     S
C67    H68     1.109   .     S
C67    H525    1.111   .     S
C67    H526    1.097   .     S
H69    C979    1.111   1_554 S
H70    C979    1.097   1_554 S
N71    C73     1.441   .     S
N71    H72     1.006   .     S
N71    N946    1.386   1_554 S
C73    H74     1.109   .     S
C73    H75     1.110   .     S
C73    H988    1.100   1_554 S
H76    C529    1.100   .     S
C77    C81     1.435   .     S
C77    O113    1.311   .     A
C77    O111    1.304   .     A
C78    C82     1.435   .     S
C78    O114    1.311   .     A
C78    O112    1.304   .     A
C79    H105    1.081   .     S
C79    C96     1.411   .     A
C80    C95     1.411   .     A
C80    H106    1.081   .     S
C80    C22     1.390   1_655 S
C81    C386    1.340   1_545 S
C81    H411    1.086   1_545 S
C82    C233    1.340   .     S
C82    H260    1.087   .     S
C83    C88     1.458   .     S
C83    O117    1.312   .     A
C83    O115    1.313   .     A
C84    O118    1.312   .     A
C84    C87     1.458   .     S
C84    O116    1.313   .     A
C85    C95     1.416   .     A
C85    C119    1.484   .     S
C85    C87     1.416   .     A
C86    C96     1.416   .     A
C86    C88     1.417   .     A
C86    C130    1.486   .     S
C87    C89     1.393   .     A
C88    C90     1.393   .     A
C89    H101    1.082   .     S
C89    C91     1.389   .     A
C90    H102    1.083   .     S
C90    C92     1.389   .     A
C91    C93     1.409   .     A
C91    C97     1.397   .     A
C92    C98     1.397   .     A
C92    C94     1.409   .     A
C93    C95     1.417   .     A
C93    C18     1.410   1_655 S
C94    C96     1.417   .     A
C97    H103    1.084   .     S
C97    C3      1.389   1_655 S
C98    H104    1.084   .     S
Cu99   O118    1.964   .     S
Cu99   Cu100   2.744   .     S
Cu99   N110    2.062   .     S
Cu99   O111    1.947   .     S
Cu99   O114    1.951   .     S
Cu99   O115    1.965   .     S
Cu100  O112    1.947   .     S
Cu100  O116    1.965   .     S
Cu100  O117    1.964   .     S
Cu100  O113    1.951   .     S
Cu100  N109    2.062   .     S
H107   C233    1.086   .     S
H108   C386    1.087   1_545 S
N109   N1022   1.289   1_554 S
N109   N1053   1.385   1_554 S
N110   N565    1.289   .     S
N110   N603    1.386   .     S
C119   C124    1.406   .     A
C119   C120    1.399   .     A
C120   H125    1.079   .     S
C120   C273    1.395   .     S
C121   C122    1.396   .     A
C121   H126    1.078   .     S
C121   C424    1.395   1_545 S
C122   C123    1.396   .     A
C122   H127    1.083   .     S
C123   C428    1.400   1_545 S
C123   H584    1.080   .     S
C124   H129    1.083   .     S
C124   C275    1.400   .     S
H128   C1035   1.080   1_554 S
C130   C135    1.399   .     A
C130   C131    1.406   .     A
C131   H136    1.083   .     S
C131   C436    1.400   1_545 S
C132   C133    1.396   .     A
C132   C283    1.400   .     S
C132   H1049   1.080   1_554 S
C133   H138    1.083   .     S
C133   C134    1.395   .     A
C134   H139    1.078   .     S
C134   C287    1.396   .     S
C135   H140    1.077   .     S
C135   C438    1.396   1_545 S
H137   C588    1.080   .     S
N141   C143    1.441   .     S
N141   H142    1.008   .     S
N141   N565    1.385   .     S
C143   H144    1.109   .     S
C143   H601    1.111   .     S
C143   H602    1.097   .     S
H145   C1055   1.111   1_554 S
H146   C1055   1.097   1_554 S
N147   C149    1.441   .     S
N147   H148    1.006   .     S
N147   N1022   1.386   1_554 S
C149   H150    1.109   .     S
C149   H151    1.110   .     S
C149   H1064   1.100   1_554 S
H152   C605    1.100   .     S
C153   C157    1.435   .     S
C153   O189    1.311   .     A
C153   O187    1.304   .     A
C154   C158    1.435   .     S
C154   O190    1.311   .     A
C154   O188    1.304   .     A
C155   H181    1.081   .     S
C155   C172    1.411   .     A
C155   C249    1.389   1_455 S
C156   C171    1.411   .     A
C156   H182    1.081   .     S
C156   C250    1.390   .     S
C158   C309    1.340   .     S
C158   H336    1.087   .     S
C159   C164    1.458   .     S
C159   O193    1.312   .     A
C159   O191    1.313   .     A
C160   O194    1.312   .     A
C160   C163    1.458   .     S
C160   O192    1.313   .     A
C161   C171    1.416   .     A
C161   C195    1.484   .     S
C161   C163    1.416   .     A
C162   C172    1.416   .     A
C162   C164    1.417   .     A
C162   C206    1.486   .     S
C163   C165    1.393   .     A
C164   C166    1.393   .     A
C165   H177    1.082   .     S
C165   C167    1.389   .     A
C166   H178    1.083   .     S
C166   C168    1.389   .     A
C167   C169    1.409   .     A
C167   C173    1.397   .     A
C168   C174    1.397   .     A
C168   C170    1.409   .     A
C169   C171    1.417   .     A
C169   C246    1.410   .     S
C170   C172    1.417   .     A
C170   C245    1.410   1_455 S
C173   H179    1.084   .     S
C173   C231    1.389   .     S
C174   H180    1.084   .     S
C174   C232    1.390   1_455 S
Cu175  O194    1.964   .     S
Cu175  Cu176   2.744   .     S
Cu175  N186    2.062   .     S
Cu175  O187    1.947   .     S
Cu175  O190    1.951   .     S
Cu175  O191    1.965   .     S
Cu176  O188    1.947   .     S
Cu176  O192    1.965   .     S
Cu176  O193    1.964   .     S
Cu176  O189    1.951   .     S
Cu176  N185    2.062   .     S
H183   C309    1.086   .     S
N185   N1098   1.289   1_554 S
N185   N1129   1.385   1_554 S
N186   N641    1.289   .     S
N186   N679    1.386   .     S
C195   C200    1.406   .     A
C195   C196    1.399   .     A
C196   H201    1.079   .     S
C196   C349    1.395   .     S
C197   C198    1.396   .     A
C197   H202    1.078   .     S
C198   C199    1.396   .     A
C198   H203    1.083   .     S
C199   H660    1.080   .     S
C200   H205    1.083   .     S
C200   C351    1.400   .     S
H204   C1111   1.080   1_554 S
C206   C211    1.399   .     A
C206   C207    1.406   .     A
C207   H212    1.083   .     S
C208   C209    1.396   .     A
C208   C359    1.400   .     S
C208   H1125   1.080   1_554 S
C209   H214    1.083   .     S
C209   C210    1.395   .     A
C210   H215    1.078   .     S
C210   C363    1.396   .     S
C211   H216    1.077   .     S
H213   C664    1.080   .     S
N217   C219    1.441   .     S
N217   H218    1.008   .     S
N217   N641    1.385   .     S
C219   H220    1.109   .     S
C219   H677    1.111   .     S
C219   H678    1.097   .     S
H221   C1131   1.111   1_554 S
H222   C1131   1.097   1_554 S
N223   C225    1.441   .     S
N223   H224    1.006   .     S
N223   N1098   1.386   1_554 S
C225   H226    1.109   .     S
C225   H227    1.110   .     S
C225   H1140   1.100   1_554 S
H228   C681    1.100   .     S
C229   C233    1.435   .     S
C229   O265    1.311   .     A
C229   O263    1.304   .     A
C230   C234    1.435   .     S
C230   O266    1.311   .     A
C230   O264    1.304   .     A
C231   H257    1.081   .     S
C231   C248    1.411   .     A
C232   C247    1.411   .     A
C232   H258    1.081   .     S
C232   C174    1.390   1_655 S
C234   C385    1.340   .     S
C234   H412    1.087   .     S
C235   C240    1.458   .     S
C235   O269    1.312   .     A
C235   O267    1.313   .     A
C236   O270    1.312   .     A
C236   C239    1.458   .     S
C236   O268    1.313   .     A
C237   C247    1.416   .     A
C237   C271    1.484   .     S
C237   C239    1.416   .     A
C238   C248    1.416   .     A
C238   C240    1.417   .     A
C238   C282    1.486   .     S
C239   C241    1.393   .     A
C240   C242    1.393   .     A
C241   H253    1.082   .     S
C241   C243    1.389   .     A
C242   H254    1.083   .     S
C242   C244    1.389   .     A
C243   C245    1.409   .     A
C243   C249    1.397   .     A
C244   C250    1.397   .     A
C244   C246    1.409   .     A
C245   C247    1.417   .     A
C245   C170    1.410   1_655 S
C246   C248    1.417   .     A
C249   H255    1.084   .     S
C249   C155    1.389   1_655 S
C250   H256    1.084   .     S
Cu251  O270    1.964   .     S
Cu251  Cu252   2.744   .     S
Cu251  N262    2.062   .     S
Cu251  O263    1.947   .     S
Cu251  O266    1.951   .     S
Cu251  O267    1.965   .     S
Cu252  O264    1.947   .     S
Cu252  O268    1.965   .     S
Cu252  O269    1.964   .     S
Cu252  O265    1.951   .     S
Cu252  N261    2.062   .     S
H259   C385    1.086   .     S
N261   N1174   1.289   1_554 S
N261   N1205   1.385   1_554 S
N262   N717    1.289   .     S
N262   N755    1.386   .     S
C271   C276    1.406   .     A
C271   C272    1.399   .     A
C272   H277    1.079   .     S
C272   C425    1.395   .     S
C273   C274    1.396   .     A
C273   H278    1.078   .     S
C274   C275    1.396   .     A
C274   H279    1.083   .     S
C275   H736    1.080   .     S
C276   H281    1.083   .     S
C276   C427    1.400   .     S
H280   C1187   1.080   1_554 S
C282   C287    1.399   .     A
C282   C283    1.406   .     A
C283   H288    1.083   .     S
C284   C285    1.396   .     A
C284   C435    1.400   .     S
C284   H1201   1.080   1_554 S
C285   H290    1.083   .     S
C285   C286    1.395   .     A
C286   H291    1.078   .     S
C286   C439    1.396   .     S
C287   H292    1.077   .     S
H289   C740    1.080   .     S
N293   C295    1.441   .     S
N293   H294    1.008   .     S
N293   N717    1.385   .     S
C295   H296    1.109   .     S
C295   H753    1.111   .     S
C295   H754    1.097   .     S
H297   C1207   1.111   1_554 S
H298   C1207   1.097   1_554 S
N299   C301    1.441   .     S
N299   H300    1.006   .     S
N299   N1174   1.386   1_554 S
C301   H302    1.109   .     S
C301   H303    1.110   .     S
C301   H1216   1.100   1_554 S
H304   C757    1.100   .     S
C305   C309    1.435   .     S
C305   O341    1.311   .     A
C305   O339    1.304   .     A
C306   C310    1.435   .     S
C306   O342    1.311   .     A
C306   O340    1.304   .     A
C307   H333    1.081   .     S
C307   C324    1.411   .     A
C307   C401    1.389   1_455 S
C308   C323    1.411   .     A
C308   H334    1.081   .     S
C308   C402    1.390   .     S
C310   C5      1.340   1_565 S
C310   H32     1.087   1_565 S
C311   C316    1.458   .     S
C311   O345    1.312   .     A
C311   O343    1.313   .     A
C312   O346    1.312   .     A
C312   C315    1.458   .     S
C312   O344    1.313   .     A
C313   C323    1.416   .     A
C313   C347    1.484   .     S
C313   C315    1.416   .     A
C314   C324    1.416   .     A
C314   C316    1.417   .     A
C314   C358    1.486   .     S
C315   C317    1.393   .     A
C316   C318    1.393   .     A
C317   H329    1.082   .     S
C317   C319    1.389   .     A
C318   H330    1.083   .     S
C318   C320    1.389   .     A
C319   C321    1.409   .     A
C319   C325    1.397   .     A
C320   C326    1.397   .     A
C320   C322    1.409   .     A
C321   C323    1.417   .     A
C321   C398    1.410   .     S
C322   C324    1.417   .     A
C322   C397    1.410   1_455 S
C325   H331    1.084   .     S
C325   C383    1.389   .     S
C326   H332    1.084   .     S
C326   C384    1.390   1_455 S
Cu327  O346    1.964   .     S
Cu327  Cu328   2.744   .     S
Cu327  N338    2.062   .     S
Cu327  O339    1.947   .     S
Cu327  O342    1.951   .     S
Cu327  O343    1.965   .     S
Cu328  O340    1.947   .     S
Cu328  O344    1.965   .     S
Cu328  O345    1.964   .     S
Cu328  O341    1.951   .     S
Cu328  N337    2.062   .     S
H335   C5      1.086   1_565 S
N337   N1250   1.289   1_554 S
N337   N1281   1.385   1_554 S
N338   N793    1.289   .     S
N338   N831    1.386   .     S
C347   C352    1.406   .     A
C347   C348    1.399   .     A
C348   H353    1.079   .     S
C348   C45     1.395   1_565 S
C349   C350    1.396   .     A
C349   H354    1.078   .     S
C350   C351    1.396   .     A
C350   H355    1.083   .     S
C351   H812    1.080   .     S
C352   H357    1.083   .     S
C352   C47     1.400   1_565 S
H356   C1263   1.080   1_554 S
C358   C363    1.399   .     A
C358   C359    1.406   .     A
C359   H364    1.083   .     S
C360   C361    1.396   .     A
C360   C55     1.400   1_565 S
C360   H1277   1.080   1_554 S
C361   H366    1.083   .     S
C361   C362    1.395   .     A
C362   H367    1.078   .     S
C362   C59     1.396   1_565 S
C363   H368    1.077   .     S
H365   C816    1.080   .     S
N369   C371    1.441   .     S
N369   H370    1.008   .     S
N369   N793    1.385   .     S
C371   H372    1.109   .     S
C371   H829    1.111   .     S
C371   H830    1.097   .     S
H373   C1283   1.111   1_554 S
H374   C1283   1.097   1_554 S
N375   C377    1.441   .     S
N375   H376    1.006   .     S
N375   N1250   1.386   1_554 S
C377   H378    1.109   .     S
C377   H379    1.110   .     S
C377   H1292   1.100   1_554 S
H380   C833    1.100   .     S
C381   C385    1.435   .     S
C381   O417    1.311   .     A
C381   O415    1.304   .     A
C382   C386    1.435   .     S
C382   O418    1.311   .     A
C382   O416    1.304   .     A
C383   H409    1.081   .     S
C383   C400    1.411   .     A
C384   C399    1.411   .     A
C384   H410    1.081   .     S
C384   C326    1.390   1_655 S
C386   C81     1.340   1_565 S
C386   H108    1.087   1_565 S
C387   C392    1.458   .     S
C387   O421    1.312   .     A
C387   O419    1.313   .     A
C388   O422    1.312   .     A
C388   C391    1.458   .     S
C388   O420    1.313   .     A
C389   C399    1.416   .     A
C389   C423    1.484   .     S
C389   C391    1.416   .     A
C390   C400    1.416   .     A
C390   C392    1.417   .     A
C390   C434    1.486   .     S
C391   C393    1.393   .     A
C392   C394    1.393   .     A
C393   H405    1.082   .     S
C393   C395    1.389   .     A
C394   H406    1.083   .     S
C394   C396    1.389   .     A
C395   C397    1.409   .     A
C395   C401    1.397   .     A
C396   C402    1.397   .     A
C396   C398    1.409   .     A
C397   C399    1.417   .     A
C397   C322    1.410   1_655 S
C398   C400    1.417   .     A
C401   H407    1.084   .     S
C401   C307    1.389   1_655 S
C402   H408    1.084   .     S
Cu403  O422    1.964   .     S
Cu403  Cu404   2.744   .     S
Cu403  N414    2.062   .     S
Cu403  O415    1.947   .     S
Cu403  O418    1.951   .     S
Cu403  O419    1.965   .     S
Cu404  O416    1.947   .     S
Cu404  O420    1.965   .     S
Cu404  O421    1.964   .     S
Cu404  O417    1.951   .     S
Cu404  N413    2.062   .     S
H411   C81     1.086   1_565 S
N413   N1326   1.289   1_554 S
N413   N1357   1.385   1_554 S
N414   N869    1.289   .     S
N414   N907    1.386   .     S
C423   C428    1.406   .     A
C423   C424    1.399   .     A
C424   H429    1.079   .     S
C424   C121    1.395   1_565 S
C425   C426    1.396   .     A
C425   H430    1.078   .     S
C426   C427    1.396   .     A
C426   H431    1.083   .     S
C427   H888    1.080   .     S
C428   H433    1.083   .     S
C428   C123    1.400   1_565 S
H432   C1339   1.080   1_554 S
C434   C439    1.399   .     A
C434   C435    1.406   .     A
C435   H440    1.083   .     S
C436   C437    1.396   .     A
C436   C131    1.400   1_565 S
C436   H1353   1.080   1_554 S
C437   H442    1.083   .     S
C437   C438    1.395   .     A
C438   H443    1.078   .     S
C438   C135    1.396   1_565 S
C439   H444    1.077   .     S
H441   C892    1.080   .     S
N445   C447    1.441   .     S
N445   H446    1.008   .     S
N445   N869    1.385   .     S
C447   H448    1.109   .     S
C447   H905    1.111   .     S
C447   H906    1.097   .     S
H449   C1359   1.111   1_554 S
H450   C1359   1.097   1_554 S
N451   C453    1.441   .     S
N451   H452    1.006   .     S
N451   N1326   1.386   1_554 S
C453   H454    1.109   .     S
C453   H455    1.110   .     S
C453   H1368   1.100   1_554 S
H456   C909    1.100   .     S
C457   C461    1.435   .     S
C457   O493    1.311   .     A
C457   O491    1.304   .     A
C458   C462    1.435   .     S
C458   O494    1.311   .     A
C458   O492    1.304   .     A
C459   H485    1.081   .     S
C459   C476    1.411   .     A
C459   C553    1.389   1_455 S
C460   C475    1.411   .     A
C460   H486    1.081   .     S
C460   C554    1.390   .     S
C461   C766    1.340   1_545 S
C461   H791    1.086   1_545 S
C462   C613    1.340   .     S
C462   H640    1.087   .     S
C463   C468    1.458   .     S
C463   O497    1.312   .     A
C463   O495    1.313   .     A
C464   O498    1.312   .     A
C464   C467    1.458   .     S
C464   O496    1.313   .     A
C465   C475    1.416   .     A
C465   C499    1.484   .     S
C465   C467    1.416   .     A
C466   C476    1.416   .     A
C466   C468    1.417   .     A
C466   C510    1.486   .     S
C467   C469    1.393   .     A
C468   C470    1.393   .     A
C469   H481    1.082   .     S
C469   C471    1.389   .     A
C470   H482    1.083   .     S
C470   C472    1.389   .     A
C471   C473    1.409   .     A
C471   C477    1.397   .     A
C472   C478    1.397   .     A
C472   C474    1.409   .     A
C473   C475    1.417   .     A
C473   C550    1.410   .     S
C474   C476    1.417   .     A
C474   C549    1.410   1_455 S
C477   H483    1.084   .     S
C477   C535    1.389   .     S
C478   H484    1.084   .     S
C478   C536    1.390   1_455 S
Cu479  O498    1.964   .     S
Cu479  Cu480   2.744   .     S
Cu479  N490    2.062   .     S
Cu479  O491    1.947   .     S
Cu479  O494    1.951   .     S
Cu479  O495    1.965   .     S
Cu480  O492    1.947   .     S
Cu480  O496    1.965   .     S
Cu480  O497    1.964   .     S
Cu480  O493    1.951   .     S
Cu480  N489    2.062   .     S
H487   C613    1.086   .     S
H488   C766    1.087   1_545 S
N490   N945    1.289   .     S
N490   N983    1.386   .     S
C499   C504    1.406   .     A
C499   C500    1.399   .     A
C500   H505    1.079   .     S
C500   C653    1.395   .     S
C501   C502    1.396   .     A
C501   H506    1.078   .     S
C501   C804    1.395   1_545 S
C502   C503    1.396   .     A
C502   H507    1.083   .     S
C503   C808    1.400   1_545 S
C503   H964    1.080   .     S
C504   H509    1.083   .     S
C504   C655    1.400   .     S
C510   C515    1.399   .     A
C510   C511    1.406   .     A
C511   H516    1.083   .     S
C511   C816    1.400   1_545 S
C512   C513    1.396   .     A
C512   C663    1.400   .     S
C513   H518    1.083   .     S
C513   C514    1.395   .     A
C514   H519    1.078   .     S
C514   C667    1.396   .     S
C515   H520    1.077   .     S
C515   C818    1.396   1_545 S
H517   C968    1.080   .     S
N521   C523    1.441   .     S
N521   H522    1.008   .     S
N521   N945    1.385   .     S
C523   H524    1.109   .     S
C523   H981    1.111   .     S
C523   H982    1.097   .     S
N527   C529    1.441   .     S
N527   H528    1.006   .     S
C529   H530    1.109   .     S
C529   H531    1.110   .     S
H532   C985    1.100   .     S
C533   C537    1.435   .     S
C533   O569    1.311   .     A
C533   O567    1.304   .     A
C534   C538    1.435   .     S
C534   O570    1.311   .     A
C534   O568    1.304   .     A
C535   H561    1.081   .     S
C535   C552    1.411   .     A
C536   C551    1.411   .     A
C536   H562    1.081   .     S
C536   C478    1.390   1_655 S
C537   C842    1.340   1_545 S
C537   H867    1.086   1_545 S
C538   C689    1.340   .     S
C538   H716    1.087   .     S
C539   C544    1.458   .     S
C539   O573    1.312   .     A
C539   O571    1.313   .     A
C540   O574    1.312   .     A
C540   C543    1.458   .     S
C540   O572    1.313   .     A
C541   C551    1.416   .     A
C541   C575    1.484   .     S
C541   C543    1.416   .     A
C542   C552    1.416   .     A
C542   C544    1.417   .     A
C542   C586    1.486   .     S
C543   C545    1.393   .     A
C544   C546    1.393   .     A
C545   H557    1.082   .     S
C545   C547    1.389   .     A
C546   H558    1.083   .     S
C546   C548    1.389   .     A
C547   C549    1.409   .     A
C547   C553    1.397   .     A
C548   C554    1.397   .     A
C548   C550    1.409   .     A
C549   C551    1.417   .     A
C549   C474    1.410   1_655 S
C550   C552    1.417   .     A
C553   H559    1.084   .     S
C553   C459    1.389   1_655 S
C554   H560    1.084   .     S
Cu555  O574    1.964   .     S
Cu555  Cu556   2.744   .     S
Cu555  N566    2.062   .     S
Cu555  O567    1.947   .     S
Cu555  O570    1.951   .     S
Cu555  O571    1.965   .     S
Cu556  O568    1.947   .     S
Cu556  O572    1.965   .     S
Cu556  O573    1.964   .     S
Cu556  O569    1.951   .     S
Cu556  N565    2.062   .     S
H563   C689    1.086   .     S
H564   C842    1.087   1_545 S
N566   N1021   1.289   .     S
N566   N1059   1.386   .     S
C575   C580    1.406   .     A
C575   C576    1.399   .     A
C576   H581    1.079   .     S
C576   C729    1.395   .     S
C577   C578    1.396   .     A
C577   H582    1.078   .     S
C577   C880    1.395   1_545 S
C578   C579    1.396   .     A
C578   H583    1.083   .     S
C579   C884    1.400   1_545 S
C579   H1040   1.080   .     S
C580   H585    1.083   .     S
C580   C731    1.400   .     S
C586   C591    1.399   .     A
C586   C587    1.406   .     A
C587   H592    1.083   .     S
C587   C892    1.400   1_545 S
C588   C589    1.396   .     A
C588   C739    1.400   .     S
C589   H594    1.083   .     S
C589   C590    1.395   .     A
C590   H595    1.078   .     S
C590   C743    1.396   .     S
C591   H596    1.077   .     S
C591   C894    1.396   1_545 S
H593   C1044   1.080   .     S
N597   C599    1.441   .     S
N597   H598    1.008   .     S
N597   N1021   1.385   .     S
C599   H600    1.109   .     S
C599   H1057   1.111   .     S
C599   H1058   1.097   .     S
N603   C605    1.441   .     S
N603   H604    1.006   .     S
C605   H606    1.109   .     S
C605   H607    1.110   .     S
H608   C1061   1.100   .     S
C609   C613    1.435   .     S
C609   O645    1.311   .     A
C609   O643    1.304   .     A
C610   C614    1.435   .     S
C610   O646    1.311   .     A
C610   O644    1.304   .     A
C611   H637    1.081   .     S
C611   C628    1.411   .     A
C611   C705    1.389   1_455 S
C612   C627    1.411   .     A
C612   H638    1.081   .     S
C612   C706    1.390   .     S
C614   C765    1.340   .     S
C614   H792    1.087   .     S
C615   C620    1.458   .     S
C615   O649    1.312   .     A
C615   O647    1.313   .     A
C616   O650    1.312   .     A
C616   C619    1.458   .     S
C616   O648    1.313   .     A
C617   C627    1.416   .     A
C617   C651    1.484   .     S
C617   C619    1.416   .     A
C618   C628    1.416   .     A
C618   C620    1.417   .     A
C618   C662    1.486   .     S
C619   C621    1.393   .     A
C620   C622    1.393   .     A
C621   H633    1.082   .     S
C621   C623    1.389   .     A
C622   H634    1.083   .     S
C622   C624    1.389   .     A
C623   C625    1.409   .     A
C623   C629    1.397   .     A
C624   C630    1.397   .     A
C624   C626    1.409   .     A
C625   C627    1.417   .     A
C625   C702    1.410   .     S
C626   C628    1.417   .     A
C626   C701    1.410   1_455 S
C629   H635    1.084   .     S
C629   C687    1.389   .     S
C630   H636    1.084   .     S
C630   C688    1.390   1_455 S
Cu631  O650    1.964   .     S
Cu631  Cu632   2.744   .     S
Cu631  N642    2.062   .     S
Cu631  O643    1.947   .     S
Cu631  O646    1.951   .     S
Cu631  O647    1.965   .     S
Cu632  O644    1.947   .     S
Cu632  O648    1.965   .     S
Cu632  O649    1.964   .     S
Cu632  O645    1.951   .     S
Cu632  N641    2.062   .     S
H639   C765    1.086   .     S
N642   N1097   1.289   .     S
N642   N1135   1.386   .     S
C651   C656    1.406   .     A
C651   C652    1.399   .     A
C652   H657    1.079   .     S
C652   C805    1.395   .     S
C653   C654    1.396   .     A
C653   H658    1.078   .     S
C654   C655    1.396   .     A
C654   H659    1.083   .     S
C655   H1116   1.080   .     S
C656   H661    1.083   .     S
C656   C807    1.400   .     S
C662   C667    1.399   .     A
C662   C663    1.406   .     A
C663   H668    1.083   .     S
C664   C665    1.396   .     A
C664   C815    1.400   .     S
C665   H670    1.083   .     S
C665   C666    1.395   .     A
C666   H671    1.078   .     S
C666   C819    1.396   .     S
C667   H672    1.077   .     S
H669   C1120   1.080   .     S
N673   C675    1.441   .     S
N673   H674    1.008   .     S
N673   N1097   1.385   .     S
C675   H676    1.109   .     S
C675   H1133   1.111   .     S
C675   H1134   1.097   .     S
N679   C681    1.441   .     S
N679   H680    1.006   .     S
C681   H682    1.109   .     S
C681   H683    1.110   .     S
H684   C1137   1.100   .     S
C685   C689    1.435   .     S
C685   O721    1.311   .     A
C685   O719    1.304   .     A
C686   C690    1.435   .     S
C686   O722    1.311   .     A
C686   O720    1.304   .     A
C687   H713    1.081   .     S
C687   C704    1.411   .     A
C688   C703    1.411   .     A
C688   H714    1.081   .     S
C688   C630    1.390   1_655 S
C690   C841    1.340   .     S
C690   H868    1.087   .     S
C691   C696    1.458   .     S
C691   O725    1.312   .     A
C691   O723    1.313   .     A
C692   O726    1.312   .     A
C692   C695    1.458   .     S
C692   O724    1.313   .     A
C693   C703    1.416   .     A
C693   C727    1.484   .     S
C693   C695    1.416   .     A
C694   C704    1.416   .     A
C694   C696    1.417   .     A
C694   C738    1.486   .     S
C695   C697    1.393   .     A
C696   C698    1.393   .     A
C697   H709    1.082   .     S
C697   C699    1.389   .     A
C698   H710    1.083   .     S
C698   C700    1.389   .     A
C699   C701    1.409   .     A
C699   C705    1.397   .     A
C700   C706    1.397   .     A
C700   C702    1.409   .     A
C701   C703    1.417   .     A
C701   C626    1.410   1_655 S
C702   C704    1.417   .     A
C705   H711    1.084   .     S
C705   C611    1.389   1_655 S
C706   H712    1.084   .     S
Cu707  O726    1.964   .     S
Cu707  Cu708   2.744   .     S
Cu707  N718    2.062   .     S
Cu707  O719    1.947   .     S
Cu707  O722    1.951   .     S
Cu707  O723    1.965   .     S
Cu708  O720    1.947   .     S
Cu708  O724    1.965   .     S
Cu708  O725    1.964   .     S
Cu708  O721    1.951   .     S
Cu708  N717    2.062   .     S
H715   C841    1.086   .     S
N718   N1173   1.289   .     S
N718   N1211   1.386   .     S
C727   C732    1.406   .     A
C727   C728    1.399   .     A
C728   H733    1.079   .     S
C728   C881    1.395   .     S
C729   C730    1.396   .     A
C729   H734    1.078   .     S
C730   C731    1.396   .     A
C730   H735    1.083   .     S
C731   H1192   1.080   .     S
C732   H737    1.083   .     S
C732   C883    1.400   .     S
C738   C743    1.399   .     A
C738   C739    1.406   .     A
C739   H744    1.083   .     S
C740   C741    1.396   .     A
C740   C891    1.400   .     S
C741   H746    1.083   .     S
C741   C742    1.395   .     A
C742   H747    1.078   .     S
C742   C895    1.396   .     S
C743   H748    1.077   .     S
H745   C1196   1.080   .     S
N749   C751    1.441   .     S
N749   H750    1.008   .     S
N749   N1173   1.385   .     S
C751   H752    1.109   .     S
C751   H1209   1.111   .     S
C751   H1210   1.097   .     S
N755   C757    1.441   .     S
N755   H756    1.006   .     S
C757   H758    1.109   .     S
C757   H759    1.110   .     S
H760   C1213   1.100   .     S
C761   C765    1.435   .     S
C761   O797    1.311   .     A
C761   O795    1.304   .     A
C762   C766    1.435   .     S
C762   O798    1.311   .     A
C762   O796    1.304   .     A
C763   H789    1.081   .     S
C763   C780    1.411   .     A
C763   C857    1.389   1_455 S
C764   C779    1.411   .     A
C764   H790    1.081   .     S
C764   C858    1.390   .     S
C766   C461    1.340   1_565 S
C766   H488    1.087   1_565 S
C767   C772    1.458   .     S
C767   O801    1.312   .     A
C767   O799    1.313   .     A
C768   O802    1.312   .     A
C768   C771    1.458   .     S
C768   O800    1.313   .     A
C769   C779    1.416   .     A
C769   C803    1.484   .     S
C769   C771    1.416   .     A
C770   C780    1.416   .     A
C770   C772    1.417   .     A
C770   C814    1.486   .     S
C771   C773    1.393   .     A
C772   C774    1.393   .     A
C773   H785    1.082   .     S
C773   C775    1.389   .     A
C774   H786    1.083   .     S
C774   C776    1.389   .     A
C775   C777    1.409   .     A
C775   C781    1.397   .     A
C776   C782    1.397   .     A
C776   C778    1.409   .     A
C777   C779    1.417   .     A
C777   C854    1.410   .     S
C778   C780    1.417   .     A
C778   C853    1.410   1_455 S
C781   H787    1.084   .     S
C781   C839    1.389   .     S
C782   H788    1.084   .     S
C782   C840    1.390   1_455 S
Cu783  O802    1.964   .     S
Cu783  Cu784   2.744   .     S
Cu783  N794    2.062   .     S
Cu783  O795    1.947   .     S
Cu783  O798    1.951   .     S
Cu783  O799    1.965   .     S
Cu784  O796    1.947   .     S
Cu784  O800    1.965   .     S
Cu784  O801    1.964   .     S
Cu784  O797    1.951   .     S
Cu784  N793    2.062   .     S
H791   C461    1.086   1_565 S
N794   N1249   1.289   .     S
N794   N1287   1.386   .     S
C803   C808    1.406   .     A
C803   C804    1.399   .     A
C804   H809    1.079   .     S
C804   C501    1.395   1_565 S
C805   C806    1.396   .     A
C805   H810    1.078   .     S
C806   C807    1.396   .     A
C806   H811    1.083   .     S
C807   H1268   1.080   .     S
C808   H813    1.083   .     S
C808   C503    1.400   1_565 S
C814   C819    1.399   .     A
C814   C815    1.406   .     A
C815   H820    1.083   .     S
C816   C817    1.396   .     A
C816   C511    1.400   1_565 S
C817   H822    1.083   .     S
C817   C818    1.395   .     A
C818   H823    1.078   .     S
C818   C515    1.396   1_565 S
C819   H824    1.077   .     S
H821   C1272   1.080   .     S
N825   C827    1.441   .     S
N825   H826    1.008   .     S
N825   N1249   1.385   .     S
C827   H828    1.109   .     S
C827   H1285   1.111   .     S
C827   H1286   1.097   .     S
N831   C833    1.441   .     S
N831   H832    1.006   .     S
C833   H834    1.109   .     S
C833   H835    1.110   .     S
H836   C1289   1.100   .     S
C837   C841    1.435   .     S
C837   O873    1.311   .     A
C837   O871    1.304   .     A
C838   C842    1.435   .     S
C838   O874    1.311   .     A
C838   O872    1.304   .     A
C839   H865    1.081   .     S
C839   C856    1.411   .     A
C840   C855    1.411   .     A
C840   H866    1.081   .     S
C840   C782    1.390   1_655 S
C842   C537    1.340   1_565 S
C842   H564    1.087   1_565 S
C843   C848    1.458   .     S
C843   O877    1.312   .     A
C843   O875    1.313   .     A
C844   O878    1.312   .     A
C844   C847    1.458   .     S
C844   O876    1.313   .     A
C845   C855    1.416   .     A
C845   C879    1.484   .     S
C845   C847    1.416   .     A
C846   C856    1.416   .     A
C846   C848    1.417   .     A
C846   C890    1.486   .     S
C847   C849    1.393   .     A
C848   C850    1.393   .     A
C849   H861    1.082   .     S
C849   C851    1.389   .     A
C850   H862    1.083   .     S
C850   C852    1.389   .     A
C851   C853    1.409   .     A
C851   C857    1.397   .     A
C852   C858    1.397   .     A
C852   C854    1.409   .     A
C853   C855    1.417   .     A
C853   C778    1.410   1_655 S
C854   C856    1.417   .     A
C857   H863    1.084   .     S
C857   C763    1.389   1_655 S
C858   H864    1.084   .     S
Cu859  O878    1.964   .     S
Cu859  Cu860   2.744   .     S
Cu859  N870    2.062   .     S
Cu859  O871    1.947   .     S
Cu859  O874    1.951   .     S
Cu859  O875    1.965   .     S
Cu860  O872    1.947   .     S
Cu860  O876    1.965   .     S
Cu860  O877    1.964   .     S
Cu860  O873    1.951   .     S
Cu860  N869    2.062   .     S
H867   C537    1.086   1_565 S
N870   N1325   1.289   .     S
N870   N1363   1.386   .     S
C879   C884    1.406   .     A
C879   C880    1.399   .     A
C880   H885    1.079   .     S
C880   C577    1.395   1_565 S
C881   C882    1.396   .     A
C881   H886    1.078   .     S
C882   C883    1.396   .     A
C882   H887    1.083   .     S
C883   H1344   1.080   .     S
C884   H889    1.083   .     S
C884   C579    1.400   1_565 S
C890   C895    1.399   .     A
C890   C891    1.406   .     A
C891   H896    1.083   .     S
C892   C893    1.396   .     A
C892   C587    1.400   1_565 S
C893   H898    1.083   .     S
C893   C894    1.395   .     A
C894   H899    1.078   .     S
C894   C591    1.396   1_565 S
C895   H900    1.077   .     S
H897   C1348   1.080   .     S
N901   C903    1.441   .     S
N901   H902    1.008   .     S
N901   N1325   1.385   .     S
C903   H904    1.109   .     S
C903   H1361   1.111   .     S
C903   H1362   1.097   .     S
N907   C909    1.441   .     S
N907   H908    1.006   .     S
C909   H910    1.109   .     S
C909   H911    1.110   .     S
H912   C1365   1.100   .     S
C913   C917    1.435   .     S
C913   O949    1.311   .     A
C913   O947    1.304   .     A
C914   C918    1.435   .     S
C914   O950    1.311   .     A
C914   O948    1.304   .     A
C915   H941    1.081   .     S
C915   C932    1.411   .     A
C915   C1009   1.389   1_455 S
C916   C931    1.411   .     A
C916   H942    1.081   .     S
C916   C1010   1.390   .     S
C917   C1222   1.340   1_545 S
C917   H1247   1.086   1_545 S
C918   C1069   1.340   .     S
C918   H1096   1.087   .     S
C919   C924    1.458   .     S
C919   O953    1.312   .     A
C919   O951    1.313   .     A
C920   O954    1.312   .     A
C920   C923    1.458   .     S
C920   O952    1.313   .     A
C921   C931    1.416   .     A
C921   C955    1.484   .     S
C921   C923    1.416   .     A
C922   C932    1.416   .     A
C922   C924    1.417   .     A
C922   C966    1.486   .     S
C923   C925    1.393   .     A
C924   C926    1.393   .     A
C925   H937    1.082   .     S
C925   C927    1.389   .     A
C926   H938    1.083   .     S
C926   C928    1.389   .     A
C927   C929    1.409   .     A
C927   C933    1.397   .     A
C928   C934    1.397   .     A
C928   C930    1.409   .     A
C929   C931    1.417   .     A
C929   C1006   1.410   .     S
C930   C932    1.417   .     A
C930   C1005   1.410   1_455 S
C933   H939    1.084   .     S
C933   C991    1.389   .     S
C934   H940    1.084   .     S
C934   C992    1.390   1_455 S
Cu935  O954    1.964   .     S
Cu935  Cu936   2.744   .     S
Cu935  N946    2.062   .     S
Cu935  O947    1.947   .     S
Cu935  O950    1.951   .     S
Cu935  O951    1.965   .     S
Cu936  O948    1.947   .     S
Cu936  O952    1.965   .     S
Cu936  O953    1.964   .     S
Cu936  O949    1.951   .     S
Cu936  N945    2.062   .     S
H943   C1069   1.086   .     S
H944   C1222   1.087   1_545 S
N946   N33     1.289   1_556 S
N946   N71     1.386   1_556 S
C955   C960    1.406   .     A
C955   C956    1.399   .     A
C956   H961    1.079   .     S
C956   C1109   1.395   .     S
C957   C958    1.396   .     A
C957   H962    1.078   .     S
C957   C1260   1.395   1_545 S
C958   C959    1.396   .     A
C958   H963    1.083   .     S
C959   C1264   1.400   1_545 S
C959   H52     1.080   1_556 S
C960   H965    1.083   .     S
C960   C1111   1.400   .     S
C966   C971    1.399   .     A
C966   C967    1.406   .     A
C967   H972    1.083   .     S
C967   C1272   1.400   1_545 S
C968   C969    1.396   .     A
C968   C1119   1.400   .     S
C969   H974    1.083   .     S
C969   C970    1.395   .     A
C970   H975    1.078   .     S
C970   C1123   1.396   .     S
C971   H976    1.077   .     S
C971   C1274   1.396   1_545 S
H973   C56     1.080   1_556 S
N977   C979    1.441   .     S
N977   H978    1.008   .     S
N977   N33     1.385   1_556 S
C979   H980    1.109   .     S
C979   H69     1.111   1_556 S
C979   H70     1.097   1_556 S
N983   C985    1.441   .     S
N983   H984    1.006   .     S
C985   H986    1.109   .     S
C985   H987    1.110   .     S
H988   C73     1.100   1_556 S
C989   C993    1.435   .     S
C989   O1025   1.311   .     A
C989   O1023   1.304   .     A
C990   C994    1.435   .     S
C990   O1026   1.311   .     A
C990   O1024   1.304   .     A
C991   H1017   1.081   .     S
C991   C1008   1.411   .     A
C992   C1007   1.411   .     A
C992   H1018   1.081   .     S
C992   C934    1.390   1_655 S
C993   C1298   1.340   1_545 S
C993   H1323   1.086   1_545 S
C994   C1145   1.340   .     S
C994   H1172   1.087   .     S
C995   C1000   1.458   .     S
C995   O1029   1.312   .     A
C995   O1027   1.313   .     A
C996   O1030   1.312   .     A
C996   C999    1.458   .     S
C996   O1028   1.313   .     A
C997   C1007   1.416   .     A
C997   C1031   1.484   .     S
C997   C999    1.416   .     A
C998   C1008   1.416   .     A
C998   C1000   1.417   .     A
C998   C1042   1.486   .     S
C999   C1001   1.393   .     A
C1000  C1002   1.393   .     A
C1001  H1013   1.082   .     S
C1001  C1003   1.389   .     A
C1002  H1014   1.083   .     S
C1002  C1004   1.389   .     A
C1003  C1005   1.409   .     A
C1003  C1009   1.397   .     A
C1004  C1010   1.397   .     A
C1004  C1006   1.409   .     A
C1005  C1007   1.417   .     A
C1005  C930    1.410   1_655 S
C1006  C1008   1.417   .     A
C1009  H1015   1.084   .     S
C1009  C915    1.389   1_655 S
C1010  H1016   1.084   .     S
Cu1011 O1030   1.964   .     S
Cu1011 Cu1012  2.744   .     S
Cu1011 N1022   2.062   .     S
Cu1011 O1023   1.947   .     S
Cu1011 O1026   1.951   .     S
Cu1011 O1027   1.965   .     S
Cu1012 O1024   1.947   .     S
Cu1012 O1028   1.965   .     S
Cu1012 O1029   1.964   .     S
Cu1012 O1025   1.951   .     S
Cu1012 N1021   2.062   .     S
H1019  C1145   1.086   .     S
H1020  C1298   1.087   1_545 S
N1022  N109    1.289   1_556 S
N1022  N147    1.386   1_556 S
C1031  C1036   1.406   .     A
C1031  C1032   1.399   .     A
C1032  H1037   1.079   .     S
C1032  C1185   1.395   .     S
C1033  C1034   1.396   .     A
C1033  H1038   1.078   .     S
C1033  C1336   1.395   1_545 S
C1034  C1035   1.396   .     A
C1034  H1039   1.083   .     S
C1035  C1340   1.400   1_545 S
C1035  H128    1.080   1_556 S
C1036  H1041   1.083   .     S
C1036  C1187   1.400   .     S
C1042  C1047   1.399   .     A
C1042  C1043   1.406   .     A
C1043  H1048   1.083   .     S
C1043  C1348   1.400   1_545 S
C1044  C1045   1.396   .     A
C1044  C1195   1.400   .     S
C1045  H1050   1.083   .     S
C1045  C1046   1.395   .     A
C1046  H1051   1.078   .     S
C1046  C1199   1.396   .     S
C1047  H1052   1.077   .     S
C1047  C1350   1.396   1_545 S
H1049  C132    1.080   1_556 S
N1053  C1055   1.441   .     S
N1053  H1054   1.008   .     S
N1053  N109    1.385   1_556 S
C1055  H1056   1.109   .     S
C1055  H145    1.111   1_556 S
C1055  H146    1.097   1_556 S
N1059  C1061   1.441   .     S
N1059  H1060   1.006   .     S
C1061  H1062   1.109   .     S
C1061  H1063   1.110   .     S
H1064  C149    1.100   1_556 S
C1065  C1069   1.435   .     S
C1065  O1101   1.311   .     A
C1065  O1099   1.304   .     A
C1066  C1070   1.435   .     S
C1066  O1102   1.311   .     A
C1066  O1100   1.304   .     A
C1067  H1093   1.081   .     S
C1067  C1084   1.411   .     A
C1067  C1161   1.389   1_455 S
C1068  C1083   1.411   .     A
C1068  H1094   1.081   .     S
C1068  C1162   1.390   .     S
C1070  C1221   1.340   .     S
C1070  H1248   1.087   .     S
C1071  C1076   1.458   .     S
C1071  O1105   1.312   .     A
C1071  O1103   1.313   .     A
C1072  O1106   1.312   .     A
C1072  C1075   1.458   .     S
C1072  O1104   1.313   .     A
C1073  C1083   1.416   .     A
C1073  C1107   1.484   .     S
C1073  C1075   1.416   .     A
C1074  C1084   1.416   .     A
C1074  C1076   1.417   .     A
C1074  C1118   1.486   .     S
C1075  C1077   1.393   .     A
C1076  C1078   1.393   .     A
C1077  H1089   1.082   .     S
C1077  C1079   1.389   .     A
C1078  H1090   1.083   .     S
C1078  C1080   1.389   .     A
C1079  C1081   1.409   .     A
C1079  C1085   1.397   .     A
C1080  C1086   1.397   .     A
C1080  C1082   1.409   .     A
C1081  C1083   1.417   .     A
C1081  C1158   1.410   .     S
C1082  C1084   1.417   .     A
C1082  C1157   1.410   1_455 S
C1085  H1091   1.084   .     S
C1085  C1143   1.389   .     S
C1086  H1092   1.084   .     S
C1086  C1144   1.390   1_455 S
Cu1087 O1106   1.964   .     S
Cu1087 Cu1088  2.744   .     S
Cu1087 N1098   2.062   .     S
Cu1087 O1099   1.947   .     S
Cu1087 O1102   1.951   .     S
Cu1087 O1103   1.965   .     S
Cu1088 O1100   1.947   .     S
Cu1088 O1104   1.965   .     S
Cu1088 O1105   1.964   .     S
Cu1088 O1101   1.951   .     S
Cu1088 N1097   2.062   .     S
H1095  C1221   1.086   .     S
N1098  N185    1.289   1_556 S
N1098  N223    1.386   1_556 S
C1107  C1112   1.406   .     A
C1107  C1108   1.399   .     A
C1108  H1113   1.079   .     S
C1108  C1261   1.395   .     S
C1109  C1110   1.396   .     A
C1109  H1114   1.078   .     S
C1110  C1111   1.396   .     A
C1110  H1115   1.083   .     S
C1111  H204    1.080   1_556 S
C1112  H1117   1.083   .     S
C1112  C1263   1.400   .     S
C1118  C1123   1.399   .     A
C1118  C1119   1.406   .     A
C1119  H1124   1.083   .     S
C1120  C1121   1.396   .     A
C1120  C1271   1.400   .     S
C1121  H1126   1.083   .     S
C1121  C1122   1.395   .     A
C1122  H1127   1.078   .     S
C1122  C1275   1.396   .     S
C1123  H1128   1.077   .     S
H1125  C208    1.080   1_556 S
N1129  C1131   1.441   .     S
N1129  H1130   1.008   .     S
N1129  N185    1.385   1_556 S
C1131  H1132   1.109   .     S
C1131  H221    1.111   1_556 S
C1131  H222    1.097   1_556 S
N1135  C1137   1.441   .     S
N1135  H1136   1.006   .     S
C1137  H1138   1.109   .     S
C1137  H1139   1.110   .     S
H1140  C225    1.100   1_556 S
C1141  C1145   1.435   .     S
C1141  O1177   1.311   .     A
C1141  O1175   1.304   .     A
C1142  C1146   1.435   .     S
C1142  O1178   1.311   .     A
C1142  O1176   1.304   .     A
C1143  H1169   1.081   .     S
C1143  C1160   1.411   .     A
C1144  C1159   1.411   .     A
C1144  H1170   1.081   .     S
C1144  C1086   1.390   1_655 S
C1146  C1297   1.340   .     S
C1146  H1324   1.087   .     S
C1147  C1152   1.458   .     S
C1147  O1181   1.312   .     A
C1147  O1179   1.313   .     A
C1148  O1182   1.312   .     A
C1148  C1151   1.458   .     S
C1148  O1180   1.313   .     A
C1149  C1159   1.416   .     A
C1149  C1183   1.484   .     S
C1149  C1151   1.416   .     A
C1150  C1160   1.416   .     A
C1150  C1152   1.417   .     A
C1150  C1194   1.486   .     S
C1151  C1153   1.393   .     A
C1152  C1154   1.393   .     A
C1153  H1165   1.082   .     S
C1153  C1155   1.389   .     A
C1154  H1166   1.083   .     S
C1154  C1156   1.389   .     A
C1155  C1157   1.409   .     A
C1155  C1161   1.397   .     A
C1156  C1162   1.397   .     A
C1156  C1158   1.409   .     A
C1157  C1159   1.417   .     A
C1157  C1082   1.410   1_655 S
C1158  C1160   1.417   .     A
C1161  H1167   1.084   .     S
C1161  C1067   1.389   1_655 S
C1162  H1168   1.084   .     S
Cu1163 O1182   1.964   .     S
Cu1163 Cu1164  2.744   .     S
Cu1163 N1174   2.062   .     S
Cu1163 O1175   1.947   .     S
Cu1163 O1178   1.951   .     S
Cu1163 O1179   1.965   .     S
Cu1164 O1176   1.947   .     S
Cu1164 O1180   1.965   .     S
Cu1164 O1181   1.964   .     S
Cu1164 O1177   1.951   .     S
Cu1164 N1173   2.062   .     S
H1171  C1297   1.086   .     S
N1174  N261    1.289   1_556 S
N1174  N299    1.386   1_556 S
C1183  C1188   1.406   .     A
C1183  C1184   1.399   .     A
C1184  H1189   1.079   .     S
C1184  C1337   1.395   .     S
C1185  C1186   1.396   .     A
C1185  H1190   1.078   .     S
C1186  C1187   1.396   .     A
C1186  H1191   1.083   .     S
C1187  H280    1.080   1_556 S
C1188  H1193   1.083   .     S
C1188  C1339   1.400   .     S
C1194  C1199   1.399   .     A
C1194  C1195   1.406   .     A
C1195  H1200   1.083   .     S
C1196  C1197   1.396   .     A
C1196  C1347   1.400   .     S
C1197  H1202   1.083   .     S
C1197  C1198   1.395   .     A
C1198  H1203   1.078   .     S
C1198  C1351   1.396   .     S
C1199  H1204   1.077   .     S
H1201  C284    1.080   1_556 S
N1205  C1207   1.441   .     S
N1205  H1206   1.008   .     S
N1205  N261    1.385   1_556 S
C1207  H1208   1.109   .     S
C1207  H297    1.111   1_556 S
C1207  H298    1.097   1_556 S
N1211  C1213   1.441   .     S
N1211  H1212   1.006   .     S
C1213  H1214   1.109   .     S
C1213  H1215   1.110   .     S
H1216  C301    1.100   1_556 S
C1217  C1221   1.435   .     S
C1217  O1253   1.311   .     A
C1217  O1251   1.304   .     A
C1218  C1222   1.435   .     S
C1218  O1254   1.311   .     A
C1218  O1252   1.304   .     A
C1219  H1245   1.081   .     S
C1219  C1236   1.411   .     A
C1219  C1313   1.389   1_455 S
C1220  C1235   1.411   .     A
C1220  H1246   1.081   .     S
C1220  C1314   1.390   .     S
C1222  C917    1.340   1_565 S
C1222  H944    1.087   1_565 S
C1223  C1228   1.458   .     S
C1223  O1257   1.312   .     A
C1223  O1255   1.313   .     A
C1224  O1258   1.312   .     A
C1224  C1227   1.458   .     S
C1224  O1256   1.313   .     A
C1225  C1235   1.416   .     A
C1225  C1259   1.484   .     S
C1225  C1227   1.416   .     A
C1226  C1236   1.416   .     A
C1226  C1228   1.417   .     A
C1226  C1270   1.486   .     S
C1227  C1229   1.393   .     A
C1228  C1230   1.393   .     A
C1229  H1241   1.082   .     S
C1229  C1231   1.389   .     A
C1230  H1242   1.083   .     S
C1230  C1232   1.389   .     A
C1231  C1233   1.409   .     A
C1231  C1237   1.397   .     A
C1232  C1238   1.397   .     A
C1232  C1234   1.409   .     A
C1233  C1235   1.417   .     A
C1233  C1310   1.410   .     S
C1234  C1236   1.417   .     A
C1234  C1309   1.410   1_455 S
C1237  H1243   1.084   .     S
C1237  C1295   1.389   .     S
C1238  H1244   1.084   .     S
C1238  C1296   1.390   1_455 S
Cu1239 O1258   1.964   .     S
Cu1239 Cu1240  2.744   .     S
Cu1239 N1250   2.062   .     S
Cu1239 O1251   1.947   .     S
Cu1239 O1254   1.951   .     S
Cu1239 O1255   1.965   .     S
Cu1240 O1252   1.947   .     S
Cu1240 O1256   1.965   .     S
Cu1240 O1257   1.964   .     S
Cu1240 O1253   1.951   .     S
Cu1240 N1249   2.062   .     S
H1247  C917    1.086   1_565 S
N1250  N337    1.289   1_556 S
N1250  N375    1.386   1_556 S
C1259  C1264   1.406   .     A
C1259  C1260   1.399   .     A
C1260  H1265   1.079   .     S
C1260  C957    1.395   1_565 S
C1261  C1262   1.396   .     A
C1261  H1266   1.078   .     S
C1262  C1263   1.396   .     A
C1262  H1267   1.083   .     S
C1263  H356    1.080   1_556 S
C1264  H1269   1.083   .     S
C1264  C959    1.400   1_565 S
C1270  C1275   1.399   .     A
C1270  C1271   1.406   .     A
C1271  H1276   1.083   .     S
C1272  C1273   1.396   .     A
C1272  C967    1.400   1_565 S
C1273  H1278   1.083   .     S
C1273  C1274   1.395   .     A
C1274  H1279   1.078   .     S
C1274  C971    1.396   1_565 S
C1275  H1280   1.077   .     S
H1277  C360    1.080   1_556 S
N1281  C1283   1.441   .     S
N1281  H1282   1.008   .     S
N1281  N337    1.385   1_556 S
C1283  H1284   1.109   .     S
C1283  H373    1.111   1_556 S
C1283  H374    1.097   1_556 S
N1287  C1289   1.441   .     S
N1287  H1288   1.006   .     S
C1289  H1290   1.109   .     S
C1289  H1291   1.110   .     S
H1292  C377    1.100   1_556 S
C1293  C1297   1.435   .     S
C1293  O1329   1.311   .     A
C1293  O1327   1.304   .     A
C1294  C1298   1.435   .     S
C1294  O1330   1.311   .     A
C1294  O1328   1.304   .     A
C1295  H1321   1.081   .     S
C1295  C1312   1.411   .     A
C1296  C1311   1.411   .     A
C1296  H1322   1.081   .     S
C1296  C1238   1.390   1_655 S
C1298  C993    1.340   1_565 S
C1298  H1020   1.087   1_565 S
C1299  C1304   1.458   .     S
C1299  O1333   1.312   .     A
C1299  O1331   1.313   .     A
C1300  O1334   1.312   .     A
C1300  C1303   1.458   .     S
C1300  O1332   1.313   .     A
C1301  C1311   1.416   .     A
C1301  C1335   1.484   .     S
C1301  C1303   1.416   .     A
C1302  C1312   1.416   .     A
C1302  C1304   1.417   .     A
C1302  C1346   1.486   .     S
C1303  C1305   1.393   .     A
C1304  C1306   1.393   .     A
C1305  H1317   1.082   .     S
C1305  C1307   1.389   .     A
C1306  H1318   1.083   .     S
C1306  C1308   1.389   .     A
C1307  C1309   1.409   .     A
C1307  C1313   1.397   .     A
C1308  C1314   1.397   .     A
C1308  C1310   1.409   .     A
C1309  C1311   1.417   .     A
C1309  C1234   1.410   1_655 S
C1310  C1312   1.417   .     A
C1313  H1319   1.084   .     S
C1313  C1219   1.389   1_655 S
C1314  H1320   1.084   .     S
Cu1315 O1334   1.964   .     S
Cu1315 Cu1316  2.744   .     S
Cu1315 N1326   2.062   .     S
Cu1315 O1327   1.947   .     S
Cu1315 O1330   1.951   .     S
Cu1315 O1331   1.965   .     S
Cu1316 O1328   1.947   .     S
Cu1316 O1332   1.965   .     S
Cu1316 O1333   1.964   .     S
Cu1316 O1329   1.951   .     S
Cu1316 N1325   2.062   .     S
H1323  C993    1.086   1_565 S
N1326  N413    1.289   1_556 S
N1326  N451    1.386   1_556 S
C1335  C1340   1.406   .     A
C1335  C1336   1.399   .     A
C1336  H1341   1.079   .     S
C1336  C1033   1.395   1_565 S
C1337  C1338   1.396   .     A
C1337  H1342   1.078   .     S
C1338  C1339   1.396   .     A
C1338  H1343   1.083   .     S
C1339  H432    1.080   1_556 S
C1340  H1345   1.083   .     S
C1340  C1035   1.400   1_565 S
C1346  C1351   1.399   .     A
C1346  C1347   1.406   .     A
C1347  H1352   1.083   .     S
C1348  C1349   1.396   .     A
C1348  C1043   1.400   1_565 S
C1349  H1354   1.083   .     S
C1349  C1350   1.395   .     A
C1350  H1355   1.078   .     S
C1350  C1047   1.396   1_565 S
C1351  H1356   1.077   .     S
H1353  C436    1.080   1_556 S
N1357  C1359   1.441   .     S
N1357  H1358   1.008   .     S
N1357  N413    1.385   1_556 S
C1359  H1360   1.109   .     S
C1359  H449    1.111   1_556 S
C1359  H450    1.097   1_556 S
N1363  C1365   1.441   .     S
N1363  H1364   1.006   .     S
C1365  H1366   1.109   .     S
C1365  H1367   1.110   .     S
H1368  C453    1.100   1_556 S
