data_str_m2_o10_o16_pcu_sym.1\(2)
_audit_creation_date              2020-01-03
_audit_creation_method            'Materials Studio'
_symmetry_space_group_name_H-M    'P1'
_symmetry_Int_Tables_number       1
_symmetry_cell_setting            triclinic
loop_
_symmetry_equiv_pos_as_xyz
  x,y,z
_cell_length_a                    22.6064
_cell_length_b                    26.0922
_cell_length_c                    26.8535
_cell_angle_alpha                 95.8119
_cell_angle_beta                  78.5011
_cell_angle_gamma                 102.6612
loop_
_atom_site_label
_atom_site_type_symbol
_atom_site_fract_x
_atom_site_fract_y
_atom_site_fract_z
_atom_site_U_iso_or_equiv
_atom_site_adp_type
_atom_site_occupancy
C1     C     0.18129   0.26654   0.25228   0.00000  Uiso   1.00
C2     C     0.11443   0.16503   0.40264   0.00000  Uiso   1.00
C3     C     0.18860   0.32249   0.25503   0.00000  Uiso   1.00
C4     C     0.13393   0.16599   0.34695   0.00000  Uiso   1.00
C5     C     0.14356   0.01071   0.24693   0.00000  Uiso   1.00
C6     C     0.15169   0.06675   0.24845   0.00000  Uiso   1.00
C7     C     0.19991   0.17043   0.15334   0.00000  Uiso   1.00
C8     C     0.29044   0.22651   0.03092   0.00000  Uiso   1.00
C9     C     0.21974   0.17940   0.09906   0.00000  Uiso   1.00
C10    C     0.05409   0.13938   0.42214   0.00000  Uiso   1.00
C11    C     0.03655   0.12978   0.47337   0.00000  Uiso   1.00
C12    C     0.14096   0.16907   0.48725   0.00000  Uiso   1.00
C13    C     0.07948   0.14331   0.00548   0.00000  Uiso   1.00
C14    C     0.32489   0.10522   0.20734   0.00000  Uiso   1.00
C15    C     0.03276   0.09371   0.15723   0.00000  Uiso   1.00
C16    C     0.15664   0.18426   0.43627   0.00000  Uiso   1.00
C17    C     0.18698   0.18132   0.01829   0.00000  Uiso   1.00
C18    C     0.24528   0.21323   0.00009   0.00000  Uiso   1.00
C19    C     0.25732   0.23258   0.45186   0.00000  Uiso   1.00
C20    C     0.21351   0.21888   0.42065   0.00000  Uiso   1.00
C21    C     0.17685   0.16263   0.06700   0.00000  Uiso   1.00
C22    C     0.27747   0.21019   0.08046   0.00000  Uiso   1.00
Cu23   Cu    0.10710   0.16105   0.24436   0.00000  Uiso   1.00
Cu24   Cu    0.22623   0.17228   0.25565   0.00000  Uiso   1.00
H25    H     0.31150   0.22332   0.10472   0.00000  Uiso   1.00
H26    H     0.22432   0.23728   0.38478   0.00000  Uiso   1.00
H27    H     0.23129   0.01266   0.26425   0.00000  Uiso   1.00
H28    H     0.04550   0.12927   0.13498   0.00000  Uiso   1.00
H29    H     0.07366   0.07976   0.16260   0.00000  Uiso   1.00
H30    H     0.00675   0.06161   0.13471   0.00000  Uiso   1.00
H31    H     0.31513   0.07100   0.23109   0.00000  Uiso   1.00
H32    H     0.28472   0.10923   0.19345   0.00000  Uiso   1.00
H33    H     0.10027   0.32038   0.23863   0.00000  Uiso   1.00
H34    H     0.00492   0.21091   0.28559   0.00000  Uiso   1.00
H35    H     0.30080   0.25857   0.43819   0.00000  Uiso   1.00
H36    H     0.00173   0.25087   0.01724   0.00000  Uiso   1.00
H37    H     0.13572   0.13498   0.08113   0.00000  Uiso   1.00
H38    H     0.02064   0.12537   0.39748   0.00000  Uiso   1.00
H39    H     0.06255   0.13442   0.04466   0.00000  Uiso   1.00
H40    H     0.32304   0.11036   0.48809   0.00000  Uiso   1.00
N41    N     0.31574   0.18074   0.26416   0.00000  Uiso   1.00
N42    N     0.01759   0.15259   0.23584   0.00000  Uiso   1.00
O43    O     0.12797   0.23807   0.24633   0.00000  Uiso   1.00
O44    O     0.22858   0.24755   0.25587   0.00000  Uiso   1.00
O45    O     0.09181   0.15960   0.31840   0.00000  Uiso   1.00
O46    O     0.19242   0.16908   0.32793   0.00000  Uiso   1.00
O47    O     0.10476   0.08578   0.24414   0.00000  Uiso   1.00
O48    O     0.20536   0.09526   0.25367   0.00000  Uiso   1.00
O49    O     0.14092   0.16425   0.17207   0.00000  Uiso   1.00
O50    O     0.24152   0.17373   0.18161   0.00000  Uiso   1.00
C51    C     0.51463   0.26654   0.25228   0.00000  Uiso   1.00
C52    C     0.44776   0.16503   0.40264   0.00000  Uiso   1.00
C53    C     0.52194   0.32249   0.25503   0.00000  Uiso   1.00
C54    C     0.46726   0.16599   0.34695   0.00000  Uiso   1.00
C55    C     0.47690   0.01071   0.24693   0.00000  Uiso   1.00
C56    C     0.48502   0.06675   0.24845   0.00000  Uiso   1.00
C57    C     0.53324   0.17043   0.15334   0.00000  Uiso   1.00
C58    C     0.62377   0.22651   0.03092   0.00000  Uiso   1.00
C59    C     0.55307   0.17940   0.09906   0.00000  Uiso   1.00
C60    C     0.38742   0.13938   0.42214   0.00000  Uiso   1.00
C61    C     0.36989   0.12978   0.47337   0.00000  Uiso   1.00
C62    C     0.47429   0.16907   0.48725   0.00000  Uiso   1.00
C63    C     0.41282   0.14331   0.00548   0.00000  Uiso   1.00
C64    C     0.65822   0.10522   0.20734   0.00000  Uiso   1.00
C65    C     0.36609   0.09371   0.15723   0.00000  Uiso   1.00
C66    C     0.48998   0.18426   0.43627   0.00000  Uiso   1.00
C67    C     0.52031   0.18132   0.01829   0.00000  Uiso   1.00
C68    C     0.57861   0.21323   0.00009   0.00000  Uiso   1.00
C69    C     0.59065   0.23258   0.45186   0.00000  Uiso   1.00
C70    C     0.54685   0.21888   0.42065   0.00000  Uiso   1.00
C71    C     0.51018   0.16263   0.06700   0.00000  Uiso   1.00
C72    C     0.61080   0.21019   0.08046   0.00000  Uiso   1.00
Cu73   Cu    0.44043   0.16105   0.24436   0.00000  Uiso   1.00
Cu74   Cu    0.55957   0.17228   0.25565   0.00000  Uiso   1.00
H75    H     0.64484   0.22332   0.10472   0.00000  Uiso   1.00
H76    H     0.55766   0.23728   0.38478   0.00000  Uiso   1.00
H77    H     0.56463   0.01266   0.26425   0.00000  Uiso   1.00
H78    H     0.37883   0.12927   0.13498   0.00000  Uiso   1.00
H79    H     0.40700   0.07976   0.16260   0.00000  Uiso   1.00
H80    H     0.34008   0.06161   0.13471   0.00000  Uiso   1.00
H81    H     0.64846   0.07100   0.23109   0.00000  Uiso   1.00
H82    H     0.61806   0.10923   0.19345   0.00000  Uiso   1.00
H83    H     0.43361   0.32038   0.23863   0.00000  Uiso   1.00
H84    H     0.33826   0.21091   0.28559   0.00000  Uiso   1.00
H85    H     0.63413   0.25857   0.43819   0.00000  Uiso   1.00
H86    H     0.33506   0.25087   0.01724   0.00000  Uiso   1.00
H87    H     0.46905   0.13498   0.08113   0.00000  Uiso   1.00
H88    H     0.35397   0.12537   0.39748   0.00000  Uiso   1.00
H89    H     0.39588   0.13442   0.04466   0.00000  Uiso   1.00
H90    H     0.65637   0.11036   0.48809   0.00000  Uiso   1.00
N91    N     0.64908   0.18074   0.26416   0.00000  Uiso   1.00
N92    N     0.35092   0.15259   0.23584   0.00000  Uiso   1.00
O93    O     0.46131   0.23807   0.24633   0.00000  Uiso   1.00
O94    O     0.56191   0.24755   0.25587   0.00000  Uiso   1.00
O95    O     0.42515   0.15960   0.31840   0.00000  Uiso   1.00
O96    O     0.52575   0.16908   0.32793   0.00000  Uiso   1.00
O97    O     0.43809   0.08578   0.24414   0.00000  Uiso   1.00
O98    O     0.53869   0.09526   0.25367   0.00000  Uiso   1.00
O99    O     0.47425   0.16425   0.17207   0.00000  Uiso   1.00
O100   O     0.57485   0.17373   0.18161   0.00000  Uiso   1.00
C101   C     0.84796   0.26654   0.25228   0.00000  Uiso   1.00
C102   C     0.78110   0.16503   0.40264   0.00000  Uiso   1.00
C103   C     0.85527   0.32249   0.25503   0.00000  Uiso   1.00
C104   C     0.80060   0.16599   0.34695   0.00000  Uiso   1.00
C105   C     0.81023   0.01071   0.24693   0.00000  Uiso   1.00
C106   C     0.81836   0.06675   0.24845   0.00000  Uiso   1.00
C107   C     0.86657   0.17043   0.15334   0.00000  Uiso   1.00
C108   C     0.95711   0.22651   0.03092   0.00000  Uiso   1.00
C109   C     0.88641   0.17940   0.09906   0.00000  Uiso   1.00
C110   C     0.72076   0.13938   0.42214   0.00000  Uiso   1.00
C111   C     0.70322   0.12978   0.47337   0.00000  Uiso   1.00
C112   C     0.80763   0.16907   0.48725   0.00000  Uiso   1.00
C113   C     0.74615   0.14331   0.00548   0.00000  Uiso   1.00
C114   C     0.99155   0.10522   0.20734   0.00000  Uiso   1.00
C115   C     0.69943   0.09371   0.15723   0.00000  Uiso   1.00
C116   C     0.82331   0.18426   0.43627   0.00000  Uiso   1.00
C117   C     0.85364   0.18132   0.01829   0.00000  Uiso   1.00
C118   C     0.91195   0.21323   0.00009   0.00000  Uiso   1.00
C119   C     0.92398   0.23258   0.45186   0.00000  Uiso   1.00
C120   C     0.88018   0.21888   0.42065   0.00000  Uiso   1.00
C121   C     0.84351   0.16263   0.06700   0.00000  Uiso   1.00
C122   C     0.94413   0.21019   0.08046   0.00000  Uiso   1.00
Cu123  Cu    0.77377   0.16105   0.24436   0.00000  Uiso   1.00
Cu124  Cu    0.89290   0.17228   0.25565   0.00000  Uiso   1.00
H125   H     0.97817   0.22332   0.10472   0.00000  Uiso   1.00
H126   H     0.89099   0.23728   0.38478   0.00000  Uiso   1.00
H127   H     0.89796   0.01266   0.26425   0.00000  Uiso   1.00
H128   H     0.71217   0.12927   0.13498   0.00000  Uiso   1.00
H129   H     0.74033   0.07976   0.16260   0.00000  Uiso   1.00
H130   H     0.67342   0.06161   0.13471   0.00000  Uiso   1.00
H131   H     0.98180   0.07100   0.23109   0.00000  Uiso   1.00
H132   H     0.95139   0.10923   0.19345   0.00000  Uiso   1.00
H133   H     0.76694   0.32038   0.23863   0.00000  Uiso   1.00
H134   H     0.67159   0.21091   0.28559   0.00000  Uiso   1.00
H135   H     0.96747   0.25857   0.43819   0.00000  Uiso   1.00
H136   H     0.66839   0.25087   0.01724   0.00000  Uiso   1.00
H137   H     0.80238   0.13498   0.08113   0.00000  Uiso   1.00
H138   H     0.68730   0.12537   0.39748   0.00000  Uiso   1.00
H139   H     0.72922   0.13442   0.04466   0.00000  Uiso   1.00
H140   H     0.98971   0.11036   0.48809   0.00000  Uiso   1.00
N141   N     0.98241   0.18074   0.26416   0.00000  Uiso   1.00
N142   N     0.68426   0.15259   0.23584   0.00000  Uiso   1.00
O143   O     0.79464   0.23807   0.24633   0.00000  Uiso   1.00
O144   O     0.89524   0.24755   0.25587   0.00000  Uiso   1.00
O145   O     0.75848   0.15960   0.31840   0.00000  Uiso   1.00
O146   O     0.85908   0.16908   0.32793   0.00000  Uiso   1.00
O147   O     0.77142   0.08578   0.24414   0.00000  Uiso   1.00
O148   O     0.87203   0.09526   0.25367   0.00000  Uiso   1.00
O149   O     0.80758   0.16425   0.17207   0.00000  Uiso   1.00
O150   O     0.90819   0.17373   0.18161   0.00000  Uiso   1.00
C151   C     0.18129   0.59988   0.25228   0.00000  Uiso   1.00
C152   C     0.11443   0.49837   0.40264   0.00000  Uiso   1.00
C153   C     0.18860   0.65582   0.25503   0.00000  Uiso   1.00
C154   C     0.13393   0.49933   0.34695   0.00000  Uiso   1.00
C155   C     0.14356   0.34405   0.24693   0.00000  Uiso   1.00
C156   C     0.15169   0.40009   0.24845   0.00000  Uiso   1.00
C157   C     0.19991   0.50376   0.15334   0.00000  Uiso   1.00
C158   C     0.29044   0.55985   0.03092   0.00000  Uiso   1.00
C159   C     0.21974   0.51273   0.09906   0.00000  Uiso   1.00
C160   C     0.05409   0.47271   0.42214   0.00000  Uiso   1.00
C161   C     0.03655   0.46312   0.47337   0.00000  Uiso   1.00
C162   C     0.14096   0.50240   0.48725   0.00000  Uiso   1.00
C163   C     0.07948   0.47664   0.00548   0.00000  Uiso   1.00
C164   C     0.32489   0.43855   0.20734   0.00000  Uiso   1.00
C165   C     0.03276   0.42705   0.15723   0.00000  Uiso   1.00
C166   C     0.15664   0.51759   0.43627   0.00000  Uiso   1.00
C167   C     0.18698   0.51465   0.01829   0.00000  Uiso   1.00
C168   C     0.24528   0.54656   0.00009   0.00000  Uiso   1.00
C169   C     0.25732   0.56591   0.45186   0.00000  Uiso   1.00
C170   C     0.21351   0.55221   0.42065   0.00000  Uiso   1.00
C171   C     0.17685   0.49596   0.06700   0.00000  Uiso   1.00
C172   C     0.27747   0.54352   0.08046   0.00000  Uiso   1.00
Cu173  Cu    0.10710   0.49439   0.24436   0.00000  Uiso   1.00
Cu174  Cu    0.22623   0.50561   0.25565   0.00000  Uiso   1.00
H175   H     0.31150   0.55665   0.10472   0.00000  Uiso   1.00
H176   H     0.22432   0.57061   0.38478   0.00000  Uiso   1.00
H177   H     0.23129   0.34599   0.26425   0.00000  Uiso   1.00
H178   H     0.04550   0.46260   0.13498   0.00000  Uiso   1.00
H179   H     0.07366   0.41310   0.16260   0.00000  Uiso   1.00
H180   H     0.00675   0.39494   0.13471   0.00000  Uiso   1.00
H181   H     0.31513   0.40433   0.23109   0.00000  Uiso   1.00
H182   H     0.28472   0.44257   0.19345   0.00000  Uiso   1.00
H183   H     0.10027   0.65372   0.23863   0.00000  Uiso   1.00
H184   H     0.00492   0.54424   0.28559   0.00000  Uiso   1.00
H185   H     0.30080   0.59191   0.43819   0.00000  Uiso   1.00
H186   H     0.00173   0.58421   0.01724   0.00000  Uiso   1.00
H187   H     0.13572   0.46832   0.08113   0.00000  Uiso   1.00
H188   H     0.02064   0.45870   0.39748   0.00000  Uiso   1.00
H189   H     0.06255   0.46775   0.04466   0.00000  Uiso   1.00
H190   H     0.32304   0.44370   0.48809   0.00000  Uiso   1.00
N191   N     0.31574   0.51407   0.26416   0.00000  Uiso   1.00
N192   N     0.01759   0.48593   0.23584   0.00000  Uiso   1.00
O193   O     0.12797   0.57141   0.24633   0.00000  Uiso   1.00
O194   O     0.22858   0.58089   0.25587   0.00000  Uiso   1.00
O195   O     0.09181   0.49293   0.31840   0.00000  Uiso   1.00
O196   O     0.19242   0.50241   0.32793   0.00000  Uiso   1.00
O197   O     0.10476   0.41911   0.24414   0.00000  Uiso   1.00
O198   O     0.20536   0.42859   0.25367   0.00000  Uiso   1.00
O199   O     0.14092   0.49759   0.17207   0.00000  Uiso   1.00
O200   O     0.24152   0.50707   0.18161   0.00000  Uiso   1.00
C201   C     0.51463   0.59988   0.25228   0.00000  Uiso   1.00
C202   C     0.44776   0.49837   0.40264   0.00000  Uiso   1.00
C203   C     0.52194   0.65582   0.25503   0.00000  Uiso   1.00
C204   C     0.46726   0.49933   0.34695   0.00000  Uiso   1.00
C205   C     0.47690   0.34405   0.24693   0.00000  Uiso   1.00
C206   C     0.48502   0.40009   0.24845   0.00000  Uiso   1.00
C207   C     0.53324   0.50376   0.15334   0.00000  Uiso   1.00
C208   C     0.62377   0.55985   0.03092   0.00000  Uiso   1.00
C209   C     0.55307   0.51273   0.09906   0.00000  Uiso   1.00
C210   C     0.38742   0.47271   0.42214   0.00000  Uiso   1.00
C211   C     0.36989   0.46312   0.47337   0.00000  Uiso   1.00
C212   C     0.47429   0.50240   0.48725   0.00000  Uiso   1.00
C213   C     0.41282   0.47664   0.00548   0.00000  Uiso   1.00
C214   C     0.65822   0.43855   0.20734   0.00000  Uiso   1.00
C215   C     0.36609   0.42705   0.15723   0.00000  Uiso   1.00
C216   C     0.48998   0.51759   0.43627   0.00000  Uiso   1.00
C217   C     0.52031   0.51465   0.01829   0.00000  Uiso   1.00
C218   C     0.57861   0.54656   0.00009   0.00000  Uiso   1.00
C219   C     0.59065   0.56591   0.45186   0.00000  Uiso   1.00
C220   C     0.54685   0.55221   0.42065   0.00000  Uiso   1.00
C221   C     0.51018   0.49596   0.06700   0.00000  Uiso   1.00
C222   C     0.61080   0.54352   0.08046   0.00000  Uiso   1.00
Cu223  Cu    0.44043   0.49439   0.24436   0.00000  Uiso   1.00
Cu224  Cu    0.55957   0.50561   0.25565   0.00000  Uiso   1.00
H225   H     0.64484   0.55665   0.10472   0.00000  Uiso   1.00
H226   H     0.55766   0.57061   0.38478   0.00000  Uiso   1.00
H227   H     0.56463   0.34599   0.26425   0.00000  Uiso   1.00
H228   H     0.37883   0.46260   0.13498   0.00000  Uiso   1.00
H229   H     0.40700   0.41310   0.16260   0.00000  Uiso   1.00
H230   H     0.34008   0.39494   0.13471   0.00000  Uiso   1.00
H231   H     0.64846   0.40433   0.23109   0.00000  Uiso   1.00
H232   H     0.61806   0.44257   0.19345   0.00000  Uiso   1.00
H233   H     0.43361   0.65372   0.23863   0.00000  Uiso   1.00
H234   H     0.33826   0.54424   0.28559   0.00000  Uiso   1.00
H235   H     0.63413   0.59191   0.43819   0.00000  Uiso   1.00
H236   H     0.33506   0.58421   0.01724   0.00000  Uiso   1.00
H237   H     0.46905   0.46832   0.08113   0.00000  Uiso   1.00
H238   H     0.35397   0.45870   0.39748   0.00000  Uiso   1.00
H239   H     0.39588   0.46775   0.04466   0.00000  Uiso   1.00
H240   H     0.65637   0.44370   0.48809   0.00000  Uiso   1.00
N241   N     0.64908   0.51407   0.26416   0.00000  Uiso   1.00
N242   N     0.35092   0.48593   0.23584   0.00000  Uiso   1.00
O243   O     0.46131   0.57141   0.24633   0.00000  Uiso   1.00
O244   O     0.56191   0.58089   0.25587   0.00000  Uiso   1.00
O245   O     0.42515   0.49293   0.31840   0.00000  Uiso   1.00
O246   O     0.52575   0.50241   0.32793   0.00000  Uiso   1.00
O247   O     0.43809   0.41911   0.24414   0.00000  Uiso   1.00
O248   O     0.53869   0.42859   0.25367   0.00000  Uiso   1.00
O249   O     0.47425   0.49759   0.17207   0.00000  Uiso   1.00
O250   O     0.57485   0.50707   0.18161   0.00000  Uiso   1.00
C251   C     0.84796   0.59988   0.25228   0.00000  Uiso   1.00
C252   C     0.78110   0.49837   0.40264   0.00000  Uiso   1.00
C253   C     0.85527   0.65582   0.25503   0.00000  Uiso   1.00
C254   C     0.80060   0.49933   0.34695   0.00000  Uiso   1.00
C255   C     0.81023   0.34405   0.24693   0.00000  Uiso   1.00
C256   C     0.81836   0.40009   0.24845   0.00000  Uiso   1.00
C257   C     0.86657   0.50376   0.15334   0.00000  Uiso   1.00
C258   C     0.95711   0.55985   0.03092   0.00000  Uiso   1.00
C259   C     0.88641   0.51273   0.09906   0.00000  Uiso   1.00
C260   C     0.72076   0.47271   0.42214   0.00000  Uiso   1.00
C261   C     0.70322   0.46312   0.47337   0.00000  Uiso   1.00
C262   C     0.80763   0.50240   0.48725   0.00000  Uiso   1.00
C263   C     0.74615   0.47664   0.00548   0.00000  Uiso   1.00
C264   C     0.99155   0.43855   0.20734   0.00000  Uiso   1.00
C265   C     0.69943   0.42705   0.15723   0.00000  Uiso   1.00
C266   C     0.82331   0.51759   0.43627   0.00000  Uiso   1.00
C267   C     0.85364   0.51465   0.01829   0.00000  Uiso   1.00
C268   C     0.91195   0.54656   0.00009   0.00000  Uiso   1.00
C269   C     0.92398   0.56591   0.45186   0.00000  Uiso   1.00
C270   C     0.88018   0.55221   0.42065   0.00000  Uiso   1.00
C271   C     0.84351   0.49596   0.06700   0.00000  Uiso   1.00
C272   C     0.94413   0.54352   0.08046   0.00000  Uiso   1.00
Cu273  Cu    0.77377   0.49439   0.24436   0.00000  Uiso   1.00
Cu274  Cu    0.89290   0.50561   0.25565   0.00000  Uiso   1.00
H275   H     0.97817   0.55665   0.10472   0.00000  Uiso   1.00
H276   H     0.89099   0.57061   0.38478   0.00000  Uiso   1.00
H277   H     0.89796   0.34599   0.26425   0.00000  Uiso   1.00
H278   H     0.71217   0.46260   0.13498   0.00000  Uiso   1.00
H279   H     0.74033   0.41310   0.16260   0.00000  Uiso   1.00
H280   H     0.67342   0.39494   0.13471   0.00000  Uiso   1.00
H281   H     0.98180   0.40433   0.23109   0.00000  Uiso   1.00
H282   H     0.95139   0.44257   0.19345   0.00000  Uiso   1.00
H283   H     0.76694   0.65372   0.23863   0.00000  Uiso   1.00
H284   H     0.67159   0.54424   0.28559   0.00000  Uiso   1.00
H285   H     0.96747   0.59191   0.43819   0.00000  Uiso   1.00
H286   H     0.66839   0.58421   0.01724   0.00000  Uiso   1.00
H287   H     0.80238   0.46832   0.08113   0.00000  Uiso   1.00
H288   H     0.68730   0.45870   0.39748   0.00000  Uiso   1.00
H289   H     0.72922   0.46775   0.04466   0.00000  Uiso   1.00
H290   H     0.98971   0.44370   0.48809   0.00000  Uiso   1.00
N291   N     0.98241   0.51407   0.26416   0.00000  Uiso   1.00
N292   N     0.68426   0.48593   0.23584   0.00000  Uiso   1.00
O293   O     0.79464   0.57141   0.24633   0.00000  Uiso   1.00
O294   O     0.89524   0.58089   0.25587   0.00000  Uiso   1.00
O295   O     0.75848   0.49293   0.31840   0.00000  Uiso   1.00
O296   O     0.85908   0.50241   0.32793   0.00000  Uiso   1.00
O297   O     0.77142   0.41911   0.24414   0.00000  Uiso   1.00
O298   O     0.87203   0.42859   0.25367   0.00000  Uiso   1.00
O299   O     0.80758   0.49759   0.17207   0.00000  Uiso   1.00
O300   O     0.90819   0.50707   0.18161   0.00000  Uiso   1.00
C301   C     0.18129   0.93321   0.25228   0.00000  Uiso   1.00
C302   C     0.11443   0.83170   0.40264   0.00000  Uiso   1.00
C303   C     0.18860   0.98915   0.25503   0.00000  Uiso   1.00
C304   C     0.13393   0.83266   0.34695   0.00000  Uiso   1.00
C305   C     0.14356   0.67738   0.24693   0.00000  Uiso   1.00
C306   C     0.15169   0.73342   0.24845   0.00000  Uiso   1.00
C307   C     0.19991   0.83709   0.15334   0.00000  Uiso   1.00
C308   C     0.29044   0.89318   0.03092   0.00000  Uiso   1.00
C309   C     0.21974   0.84607   0.09906   0.00000  Uiso   1.00
C310   C     0.05409   0.80604   0.42214   0.00000  Uiso   1.00
C311   C     0.03655   0.79645   0.47337   0.00000  Uiso   1.00
C312   C     0.14096   0.83574   0.48725   0.00000  Uiso   1.00
C313   C     0.07948   0.80997   0.00548   0.00000  Uiso   1.00
C314   C     0.32489   0.77188   0.20734   0.00000  Uiso   1.00
C315   C     0.03276   0.76038   0.15723   0.00000  Uiso   1.00
C316   C     0.15664   0.85092   0.43627   0.00000  Uiso   1.00
C317   C     0.18698   0.84798   0.01829   0.00000  Uiso   1.00
C318   C     0.24528   0.87990   0.00009   0.00000  Uiso   1.00
C319   C     0.25732   0.89924   0.45186   0.00000  Uiso   1.00
C320   C     0.21351   0.88554   0.42065   0.00000  Uiso   1.00
C321   C     0.17685   0.82930   0.06700   0.00000  Uiso   1.00
C322   C     0.27747   0.87686   0.08046   0.00000  Uiso   1.00
Cu323  Cu    0.10710   0.82772   0.24436   0.00000  Uiso   1.00
Cu324  Cu    0.22623   0.83895   0.25565   0.00000  Uiso   1.00
H325   H     0.31150   0.88998   0.10472   0.00000  Uiso   1.00
H326   H     0.22432   0.90394   0.38478   0.00000  Uiso   1.00
H327   H     0.23129   0.67932   0.26425   0.00000  Uiso   1.00
H328   H     0.04550   0.79594   0.13498   0.00000  Uiso   1.00
H329   H     0.07366   0.74643   0.16260   0.00000  Uiso   1.00
H330   H     0.00675   0.72828   0.13471   0.00000  Uiso   1.00
H331   H     0.31513   0.73767   0.23109   0.00000  Uiso   1.00
H332   H     0.28472   0.77590   0.19345   0.00000  Uiso   1.00
H333   H     0.10027   0.98705   0.23863   0.00000  Uiso   1.00
H334   H     0.00492   0.87758   0.28559   0.00000  Uiso   1.00
H335   H     0.30080   0.92524   0.43819   0.00000  Uiso   1.00
H336   H     0.00173   0.91754   0.01724   0.00000  Uiso   1.00
H337   H     0.13572   0.80165   0.08113   0.00000  Uiso   1.00
H338   H     0.02064   0.79203   0.39748   0.00000  Uiso   1.00
H339   H     0.06255   0.80108   0.04466   0.00000  Uiso   1.00
H340   H     0.32304   0.77703   0.48809   0.00000  Uiso   1.00
N341   N     0.31574   0.84741   0.26416   0.00000  Uiso   1.00
N342   N     0.01759   0.81926   0.23584   0.00000  Uiso   1.00
O343   O     0.12797   0.90474   0.24633   0.00000  Uiso   1.00
O344   O     0.22858   0.91422   0.25587   0.00000  Uiso   1.00
O345   O     0.09181   0.82627   0.31840   0.00000  Uiso   1.00
O346   O     0.19242   0.83575   0.32793   0.00000  Uiso   1.00
O347   O     0.10476   0.75245   0.24414   0.00000  Uiso   1.00
O348   O     0.20536   0.76193   0.25367   0.00000  Uiso   1.00
O349   O     0.14092   0.83092   0.17207   0.00000  Uiso   1.00
O350   O     0.24152   0.84040   0.18161   0.00000  Uiso   1.00
C351   C     0.51463   0.93321   0.25228   0.00000  Uiso   1.00
C352   C     0.44776   0.83170   0.40264   0.00000  Uiso   1.00
C353   C     0.52194   0.98915   0.25503   0.00000  Uiso   1.00
C354   C     0.46726   0.83266   0.34695   0.00000  Uiso   1.00
C355   C     0.47690   0.67738   0.24693   0.00000  Uiso   1.00
C356   C     0.48502   0.73342   0.24845   0.00000  Uiso   1.00
C357   C     0.53324   0.83709   0.15334   0.00000  Uiso   1.00
C358   C     0.62377   0.89318   0.03092   0.00000  Uiso   1.00
C359   C     0.55307   0.84607   0.09906   0.00000  Uiso   1.00
C360   C     0.38742   0.80604   0.42214   0.00000  Uiso   1.00
C361   C     0.36989   0.79645   0.47337   0.00000  Uiso   1.00
C362   C     0.47429   0.83574   0.48725   0.00000  Uiso   1.00
C363   C     0.41282   0.80997   0.00548   0.00000  Uiso   1.00
C364   C     0.65822   0.77188   0.20734   0.00000  Uiso   1.00
C365   C     0.36609   0.76038   0.15723   0.00000  Uiso   1.00
C366   C     0.48998   0.85092   0.43627   0.00000  Uiso   1.00
C367   C     0.52031   0.84798   0.01829   0.00000  Uiso   1.00
C368   C     0.57861   0.87990   0.00009   0.00000  Uiso   1.00
C369   C     0.59065   0.89924   0.45186   0.00000  Uiso   1.00
C370   C     0.54685   0.88554   0.42065   0.00000  Uiso   1.00
C371   C     0.51018   0.82930   0.06700   0.00000  Uiso   1.00
C372   C     0.61080   0.87686   0.08046   0.00000  Uiso   1.00
Cu373  Cu    0.44043   0.82772   0.24436   0.00000  Uiso   1.00
Cu374  Cu    0.55957   0.83895   0.25565   0.00000  Uiso   1.00
H375   H     0.64484   0.88998   0.10472   0.00000  Uiso   1.00
H376   H     0.55766   0.90394   0.38478   0.00000  Uiso   1.00
H377   H     0.56463   0.67932   0.26425   0.00000  Uiso   1.00
H378   H     0.37883   0.79594   0.13498   0.00000  Uiso   1.00
H379   H     0.40700   0.74643   0.16260   0.00000  Uiso   1.00
H380   H     0.34008   0.72828   0.13471   0.00000  Uiso   1.00
H381   H     0.64846   0.73767   0.23109   0.00000  Uiso   1.00
H382   H     0.61806   0.77590   0.19345   0.00000  Uiso   1.00
H383   H     0.43361   0.98705   0.23863   0.00000  Uiso   1.00
H384   H     0.33826   0.87758   0.28559   0.00000  Uiso   1.00
H385   H     0.63413   0.92524   0.43819   0.00000  Uiso   1.00
H386   H     0.33506   0.91754   0.01724   0.00000  Uiso   1.00
H387   H     0.46905   0.80165   0.08113   0.00000  Uiso   1.00
H388   H     0.35397   0.79203   0.39748   0.00000  Uiso   1.00
H389   H     0.39588   0.80108   0.04466   0.00000  Uiso   1.00
H390   H     0.65637   0.77703   0.48809   0.00000  Uiso   1.00
N391   N     0.64908   0.84741   0.26416   0.00000  Uiso   1.00
N392   N     0.35092   0.81926   0.23584   0.00000  Uiso   1.00
O393   O     0.46131   0.90474   0.24633   0.00000  Uiso   1.00
O394   O     0.56191   0.91422   0.25587   0.00000  Uiso   1.00
O395   O     0.42515   0.82627   0.31840   0.00000  Uiso   1.00
O396   O     0.52575   0.83575   0.32793   0.00000  Uiso   1.00
O397   O     0.43809   0.75245   0.24414   0.00000  Uiso   1.00
O398   O     0.53869   0.76193   0.25367   0.00000  Uiso   1.00
O399   O     0.47425   0.83092   0.17207   0.00000  Uiso   1.00
O400   O     0.57485   0.84040   0.18161   0.00000  Uiso   1.00
C401   C     0.84796   0.93321   0.25228   0.00000  Uiso   1.00
C402   C     0.78110   0.83170   0.40264   0.00000  Uiso   1.00
C403   C     0.85527   0.98915   0.25503   0.00000  Uiso   1.00
C404   C     0.80060   0.83266   0.34695   0.00000  Uiso   1.00
C405   C     0.81023   0.67738   0.24693   0.00000  Uiso   1.00
C406   C     0.81836   0.73342   0.24845   0.00000  Uiso   1.00
C407   C     0.86657   0.83709   0.15334   0.00000  Uiso   1.00
C408   C     0.95711   0.89318   0.03092   0.00000  Uiso   1.00
C409   C     0.88641   0.84607   0.09906   0.00000  Uiso   1.00
C410   C     0.72076   0.80604   0.42214   0.00000  Uiso   1.00
C411   C     0.70322   0.79645   0.47337   0.00000  Uiso   1.00
C412   C     0.80763   0.83574   0.48725   0.00000  Uiso   1.00
C413   C     0.74615   0.80997   0.00548   0.00000  Uiso   1.00
C414   C     0.99155   0.77188   0.20734   0.00000  Uiso   1.00
C415   C     0.69943   0.76038   0.15723   0.00000  Uiso   1.00
C416   C     0.82331   0.85092   0.43627   0.00000  Uiso   1.00
C417   C     0.85364   0.84798   0.01829   0.00000  Uiso   1.00
C418   C     0.91195   0.87990   0.00009   0.00000  Uiso   1.00
C419   C     0.92398   0.89924   0.45186   0.00000  Uiso   1.00
C420   C     0.88018   0.88554   0.42065   0.00000  Uiso   1.00
C421   C     0.84351   0.82930   0.06700   0.00000  Uiso   1.00
C422   C     0.94413   0.87686   0.08046   0.00000  Uiso   1.00
Cu423  Cu    0.77377   0.82772   0.24436   0.00000  Uiso   1.00
Cu424  Cu    0.89290   0.83895   0.25565   0.00000  Uiso   1.00
H425   H     0.97817   0.88998   0.10472   0.00000  Uiso   1.00
H426   H     0.89099   0.90394   0.38478   0.00000  Uiso   1.00
H427   H     0.89796   0.67932   0.26425   0.00000  Uiso   1.00
H428   H     0.71217   0.79594   0.13498   0.00000  Uiso   1.00
H429   H     0.74033   0.74643   0.16260   0.00000  Uiso   1.00
H430   H     0.67342   0.72828   0.13471   0.00000  Uiso   1.00
H431   H     0.98180   0.73767   0.23109   0.00000  Uiso   1.00
H432   H     0.95139   0.77590   0.19345   0.00000  Uiso   1.00
H433   H     0.76694   0.98705   0.23863   0.00000  Uiso   1.00
H434   H     0.67159   0.87758   0.28559   0.00000  Uiso   1.00
H435   H     0.96747   0.92524   0.43819   0.00000  Uiso   1.00
H436   H     0.66839   0.91754   0.01724   0.00000  Uiso   1.00
H437   H     0.80238   0.80165   0.08113   0.00000  Uiso   1.00
H438   H     0.68730   0.79203   0.39748   0.00000  Uiso   1.00
H439   H     0.72922   0.80108   0.04466   0.00000  Uiso   1.00
H440   H     0.98971   0.77703   0.48809   0.00000  Uiso   1.00
N441   N     0.98241   0.84741   0.26416   0.00000  Uiso   1.00
N442   N     0.68426   0.81926   0.23584   0.00000  Uiso   1.00
O443   O     0.79464   0.90474   0.24633   0.00000  Uiso   1.00
O444   O     0.89524   0.91422   0.25587   0.00000  Uiso   1.00
O445   O     0.75848   0.82627   0.31840   0.00000  Uiso   1.00
O446   O     0.85908   0.83575   0.32793   0.00000  Uiso   1.00
O447   O     0.77142   0.75245   0.24414   0.00000  Uiso   1.00
O448   O     0.87203   0.76193   0.25367   0.00000  Uiso   1.00
O449   O     0.80758   0.83092   0.17207   0.00000  Uiso   1.00
O450   O     0.90819   0.84040   0.18161   0.00000  Uiso   1.00
C451   C     0.18129   0.26654   0.75228   0.00000  Uiso   1.00
C452   C     0.11443   0.16503   0.90264   0.00000  Uiso   1.00
C453   C     0.18860   0.32249   0.75503   0.00000  Uiso   1.00
C454   C     0.13393   0.16599   0.84695   0.00000  Uiso   1.00
C455   C     0.14356   0.01071   0.74693   0.00000  Uiso   1.00
C456   C     0.15169   0.06675   0.74845   0.00000  Uiso   1.00
C457   C     0.19991   0.17043   0.65334   0.00000  Uiso   1.00
C458   C     0.29044   0.22651   0.53092   0.00000  Uiso   1.00
C459   C     0.21974   0.17940   0.59906   0.00000  Uiso   1.00
C460   C     0.05409   0.13938   0.92214   0.00000  Uiso   1.00
C461   C     0.03655   0.12978   0.97337   0.00000  Uiso   1.00
C462   C     0.14096   0.16907   0.98725   0.00000  Uiso   1.00
C463   C     0.07948   0.14331   0.50548   0.00000  Uiso   1.00
C464   C     0.32489   0.10522   0.70734   0.00000  Uiso   1.00
C465   C     0.03276   0.09371   0.65723   0.00000  Uiso   1.00
C466   C     0.15664   0.18426   0.93627   0.00000  Uiso   1.00
C467   C     0.18698   0.18132   0.51829   0.00000  Uiso   1.00
C468   C     0.24528   0.21323   0.50009   0.00000  Uiso   1.00
C469   C     0.25732   0.23258   0.95186   0.00000  Uiso   1.00
C470   C     0.21351   0.21888   0.92065   0.00000  Uiso   1.00
C471   C     0.17685   0.16263   0.56700   0.00000  Uiso   1.00
C472   C     0.27747   0.21019   0.58046   0.00000  Uiso   1.00
Cu473  Cu    0.10710   0.16105   0.74436   0.00000  Uiso   1.00
Cu474  Cu    0.22623   0.17228   0.75565   0.00000  Uiso   1.00
H475   H     0.31150   0.22332   0.60472   0.00000  Uiso   1.00
H476   H     0.22432   0.23728   0.88478   0.00000  Uiso   1.00
H477   H     0.23129   0.01266   0.76425   0.00000  Uiso   1.00
H478   H     0.04550   0.12927   0.63498   0.00000  Uiso   1.00
H479   H     0.07366   0.07976   0.66260   0.00000  Uiso   1.00
H480   H     0.00675   0.06161   0.63471   0.00000  Uiso   1.00
H481   H     0.31513   0.07100   0.73109   0.00000  Uiso   1.00
H482   H     0.28472   0.10923   0.69345   0.00000  Uiso   1.00
H483   H     0.10027   0.32038   0.73863   0.00000  Uiso   1.00
H484   H     0.00492   0.21091   0.78559   0.00000  Uiso   1.00
H485   H     0.30080   0.25857   0.93819   0.00000  Uiso   1.00
H486   H     0.00173   0.25087   0.51724   0.00000  Uiso   1.00
H487   H     0.13572   0.13498   0.58113   0.00000  Uiso   1.00
H488   H     0.02064   0.12537   0.89748   0.00000  Uiso   1.00
H489   H     0.06255   0.13442   0.54466   0.00000  Uiso   1.00
H490   H     0.32304   0.11036   0.98809   0.00000  Uiso   1.00
N491   N     0.31574   0.18074   0.76416   0.00000  Uiso   1.00
N492   N     0.01759   0.15259   0.73584   0.00000  Uiso   1.00
O493   O     0.12797   0.23807   0.74633   0.00000  Uiso   1.00
O494   O     0.22858   0.24755   0.75587   0.00000  Uiso   1.00
O495   O     0.09181   0.15960   0.81840   0.00000  Uiso   1.00
O496   O     0.19242   0.16908   0.82793   0.00000  Uiso   1.00
O497   O     0.10476   0.08578   0.74414   0.00000  Uiso   1.00
O498   O     0.20536   0.09526   0.75367   0.00000  Uiso   1.00
O499   O     0.14092   0.16425   0.67207   0.00000  Uiso   1.00
O500   O     0.24152   0.17373   0.68161   0.00000  Uiso   1.00
C501   C     0.51463   0.26654   0.75228   0.00000  Uiso   1.00
C502   C     0.44776   0.16503   0.90264   0.00000  Uiso   1.00
C503   C     0.52194   0.32249   0.75503   0.00000  Uiso   1.00
C504   C     0.46726   0.16599   0.84695   0.00000  Uiso   1.00
C505   C     0.47690   0.01071   0.74693   0.00000  Uiso   1.00
C506   C     0.48502   0.06675   0.74845   0.00000  Uiso   1.00
C507   C     0.53324   0.17043   0.65334   0.00000  Uiso   1.00
C508   C     0.62377   0.22651   0.53092   0.00000  Uiso   1.00
C509   C     0.55307   0.17940   0.59906   0.00000  Uiso   1.00
C510   C     0.38742   0.13938   0.92214   0.00000  Uiso   1.00
C511   C     0.36989   0.12978   0.97337   0.00000  Uiso   1.00
C512   C     0.47429   0.16907   0.98725   0.00000  Uiso   1.00
C513   C     0.41282   0.14331   0.50548   0.00000  Uiso   1.00
C514   C     0.65822   0.10522   0.70734   0.00000  Uiso   1.00
C515   C     0.36609   0.09371   0.65723   0.00000  Uiso   1.00
C516   C     0.48998   0.18426   0.93627   0.00000  Uiso   1.00
C517   C     0.52031   0.18132   0.51829   0.00000  Uiso   1.00
C518   C     0.57861   0.21323   0.50009   0.00000  Uiso   1.00
C519   C     0.59065   0.23258   0.95186   0.00000  Uiso   1.00
C520   C     0.54685   0.21888   0.92065   0.00000  Uiso   1.00
C521   C     0.51018   0.16263   0.56700   0.00000  Uiso   1.00
C522   C     0.61080   0.21019   0.58046   0.00000  Uiso   1.00
Cu523  Cu    0.44043   0.16105   0.74436   0.00000  Uiso   1.00
Cu524  Cu    0.55957   0.17228   0.75565   0.00000  Uiso   1.00
H525   H     0.64484   0.22332   0.60472   0.00000  Uiso   1.00
H526   H     0.55766   0.23728   0.88478   0.00000  Uiso   1.00
H527   H     0.56463   0.01266   0.76425   0.00000  Uiso   1.00
H528   H     0.37883   0.12927   0.63498   0.00000  Uiso   1.00
H529   H     0.40700   0.07976   0.66260   0.00000  Uiso   1.00
H530   H     0.34008   0.06161   0.63471   0.00000  Uiso   1.00
H531   H     0.64846   0.07100   0.73109   0.00000  Uiso   1.00
H532   H     0.61806   0.10923   0.69345   0.00000  Uiso   1.00
H533   H     0.43361   0.32038   0.73863   0.00000  Uiso   1.00
H534   H     0.33826   0.21091   0.78559   0.00000  Uiso   1.00
H535   H     0.63413   0.25857   0.93819   0.00000  Uiso   1.00
H536   H     0.33506   0.25087   0.51724   0.00000  Uiso   1.00
H537   H     0.46905   0.13498   0.58113   0.00000  Uiso   1.00
H538   H     0.35397   0.12537   0.89748   0.00000  Uiso   1.00
H539   H     0.39588   0.13442   0.54466   0.00000  Uiso   1.00
H540   H     0.65637   0.11036   0.98809   0.00000  Uiso   1.00
N541   N     0.64908   0.18074   0.76416   0.00000  Uiso   1.00
N542   N     0.35092   0.15259   0.73584   0.00000  Uiso   1.00
O543   O     0.46131   0.23807   0.74633   0.00000  Uiso   1.00
O544   O     0.56191   0.24755   0.75587   0.00000  Uiso   1.00
O545   O     0.42515   0.15960   0.81840   0.00000  Uiso   1.00
O546   O     0.52575   0.16908   0.82793   0.00000  Uiso   1.00
O547   O     0.43809   0.08578   0.74414   0.00000  Uiso   1.00
O548   O     0.53869   0.09526   0.75367   0.00000  Uiso   1.00
O549   O     0.47425   0.16425   0.67207   0.00000  Uiso   1.00
O550   O     0.57485   0.17373   0.68161   0.00000  Uiso   1.00
C551   C     0.84796   0.26654   0.75228   0.00000  Uiso   1.00
C552   C     0.78110   0.16503   0.90264   0.00000  Uiso   1.00
C553   C     0.85527   0.32249   0.75503   0.00000  Uiso   1.00
C554   C     0.80060   0.16599   0.84695   0.00000  Uiso   1.00
C555   C     0.81023   0.01071   0.74693   0.00000  Uiso   1.00
C556   C     0.81836   0.06675   0.74845   0.00000  Uiso   1.00
C557   C     0.86657   0.17043   0.65334   0.00000  Uiso   1.00
C558   C     0.95711   0.22651   0.53092   0.00000  Uiso   1.00
C559   C     0.88641   0.17940   0.59906   0.00000  Uiso   1.00
C560   C     0.72076   0.13938   0.92214   0.00000  Uiso   1.00
C561   C     0.70322   0.12978   0.97337   0.00000  Uiso   1.00
C562   C     0.80763   0.16907   0.98725   0.00000  Uiso   1.00
C563   C     0.74615   0.14331   0.50548   0.00000  Uiso   1.00
C564   C     0.99155   0.10522   0.70734   0.00000  Uiso   1.00
C565   C     0.69943   0.09371   0.65723   0.00000  Uiso   1.00
C566   C     0.82331   0.18426   0.93627   0.00000  Uiso   1.00
C567   C     0.85364   0.18132   0.51829   0.00000  Uiso   1.00
C568   C     0.91195   0.21323   0.50009   0.00000  Uiso   1.00
C569   C     0.92398   0.23258   0.95186   0.00000  Uiso   1.00
C570   C     0.88018   0.21888   0.92065   0.00000  Uiso   1.00
C571   C     0.84351   0.16263   0.56700   0.00000  Uiso   1.00
C572   C     0.94413   0.21019   0.58046   0.00000  Uiso   1.00
Cu573  Cu    0.77377   0.16105   0.74436   0.00000  Uiso   1.00
Cu574  Cu    0.89290   0.17228   0.75565   0.00000  Uiso   1.00
H575   H     0.97817   0.22332   0.60472   0.00000  Uiso   1.00
H576   H     0.89099   0.23728   0.88478   0.00000  Uiso   1.00
H577   H     0.89796   0.01266   0.76425   0.00000  Uiso   1.00
H578   H     0.71217   0.12927   0.63498   0.00000  Uiso   1.00
H579   H     0.74033   0.07976   0.66260   0.00000  Uiso   1.00
H580   H     0.67342   0.06161   0.63471   0.00000  Uiso   1.00
H581   H     0.98180   0.07100   0.73109   0.00000  Uiso   1.00
H582   H     0.95139   0.10923   0.69345   0.00000  Uiso   1.00
H583   H     0.76694   0.32038   0.73863   0.00000  Uiso   1.00
H584   H     0.67159   0.21091   0.78559   0.00000  Uiso   1.00
H585   H     0.96747   0.25857   0.93819   0.00000  Uiso   1.00
H586   H     0.66839   0.25087   0.51724   0.00000  Uiso   1.00
H587   H     0.80238   0.13498   0.58113   0.00000  Uiso   1.00
H588   H     0.68730   0.12537   0.89748   0.00000  Uiso   1.00
H589   H     0.72922   0.13442   0.54466   0.00000  Uiso   1.00
H590   H     0.98971   0.11036   0.98809   0.00000  Uiso   1.00
N591   N     0.98241   0.18074   0.76416   0.00000  Uiso   1.00
N592   N     0.68426   0.15259   0.73584   0.00000  Uiso   1.00
O593   O     0.79464   0.23807   0.74633   0.00000  Uiso   1.00
O594   O     0.89524   0.24755   0.75587   0.00000  Uiso   1.00
O595   O     0.75848   0.15960   0.81840   0.00000  Uiso   1.00
O596   O     0.85908   0.16908   0.82793   0.00000  Uiso   1.00
O597   O     0.77142   0.08578   0.74414   0.00000  Uiso   1.00
O598   O     0.87203   0.09526   0.75367   0.00000  Uiso   1.00
O599   O     0.80758   0.16425   0.67207   0.00000  Uiso   1.00
O600   O     0.90819   0.17373   0.68161   0.00000  Uiso   1.00
C601   C     0.18129   0.59988   0.75228   0.00000  Uiso   1.00
C602   C     0.11443   0.49837   0.90264   0.00000  Uiso   1.00
C603   C     0.18860   0.65582   0.75503   0.00000  Uiso   1.00
C604   C     0.13393   0.49933   0.84695   0.00000  Uiso   1.00
C605   C     0.14356   0.34405   0.74693   0.00000  Uiso   1.00
C606   C     0.15169   0.40009   0.74845   0.00000  Uiso   1.00
C607   C     0.19991   0.50376   0.65334   0.00000  Uiso   1.00
C608   C     0.29044   0.55985   0.53092   0.00000  Uiso   1.00
C609   C     0.21974   0.51273   0.59906   0.00000  Uiso   1.00
C610   C     0.05409   0.47271   0.92214   0.00000  Uiso   1.00
C611   C     0.03655   0.46312   0.97337   0.00000  Uiso   1.00
C612   C     0.14096   0.50240   0.98725   0.00000  Uiso   1.00
C613   C     0.07948   0.47664   0.50548   0.00000  Uiso   1.00
C614   C     0.32489   0.43855   0.70734   0.00000  Uiso   1.00
C615   C     0.03276   0.42705   0.65723   0.00000  Uiso   1.00
C616   C     0.15664   0.51759   0.93627   0.00000  Uiso   1.00
C617   C     0.18698   0.51465   0.51829   0.00000  Uiso   1.00
C618   C     0.24528   0.54656   0.50009   0.00000  Uiso   1.00
C619   C     0.25732   0.56591   0.95186   0.00000  Uiso   1.00
C620   C     0.21351   0.55221   0.92065   0.00000  Uiso   1.00
C621   C     0.17685   0.49596   0.56700   0.00000  Uiso   1.00
C622   C     0.27747   0.54352   0.58046   0.00000  Uiso   1.00
Cu623  Cu    0.10710   0.49439   0.74436   0.00000  Uiso   1.00
Cu624  Cu    0.22623   0.50561   0.75565   0.00000  Uiso   1.00
H625   H     0.31150   0.55665   0.60472   0.00000  Uiso   1.00
H626   H     0.22432   0.57061   0.88478   0.00000  Uiso   1.00
H627   H     0.23129   0.34599   0.76425   0.00000  Uiso   1.00
H628   H     0.04550   0.46260   0.63498   0.00000  Uiso   1.00
H629   H     0.07366   0.41310   0.66260   0.00000  Uiso   1.00
H630   H     0.00675   0.39494   0.63471   0.00000  Uiso   1.00
H631   H     0.31513   0.40433   0.73109   0.00000  Uiso   1.00
H632   H     0.28472   0.44257   0.69345   0.00000  Uiso   1.00
H633   H     0.10027   0.65372   0.73863   0.00000  Uiso   1.00
H634   H     0.00492   0.54424   0.78559   0.00000  Uiso   1.00
H635   H     0.30080   0.59191   0.93819   0.00000  Uiso   1.00
H636   H     0.00173   0.58421   0.51724   0.00000  Uiso   1.00
H637   H     0.13572   0.46832   0.58113   0.00000  Uiso   1.00
H638   H     0.02064   0.45870   0.89748   0.00000  Uiso   1.00
H639   H     0.06255   0.46775   0.54466   0.00000  Uiso   1.00
H640   H     0.32304   0.44370   0.98809   0.00000  Uiso   1.00
N641   N     0.31574   0.51407   0.76416   0.00000  Uiso   1.00
N642   N     0.01759   0.48593   0.73584   0.00000  Uiso   1.00
O643   O     0.12797   0.57141   0.74633   0.00000  Uiso   1.00
O644   O     0.22858   0.58089   0.75587   0.00000  Uiso   1.00
O645   O     0.09181   0.49293   0.81840   0.00000  Uiso   1.00
O646   O     0.19242   0.50241   0.82793   0.00000  Uiso   1.00
O647   O     0.10476   0.41911   0.74414   0.00000  Uiso   1.00
O648   O     0.20536   0.42859   0.75367   0.00000  Uiso   1.00
O649   O     0.14092   0.49759   0.67207   0.00000  Uiso   1.00
O650   O     0.24152   0.50707   0.68161   0.00000  Uiso   1.00
C651   C     0.51463   0.59988   0.75228   0.00000  Uiso   1.00
C652   C     0.44776   0.49837   0.90264   0.00000  Uiso   1.00
C653   C     0.52194   0.65582   0.75503   0.00000  Uiso   1.00
C654   C     0.46726   0.49933   0.84695   0.00000  Uiso   1.00
C655   C     0.47690   0.34405   0.74693   0.00000  Uiso   1.00
C656   C     0.48502   0.40009   0.74845   0.00000  Uiso   1.00
C657   C     0.53324   0.50376   0.65334   0.00000  Uiso   1.00
C658   C     0.62377   0.55985   0.53092   0.00000  Uiso   1.00
C659   C     0.55307   0.51273   0.59906   0.00000  Uiso   1.00
C660   C     0.38742   0.47271   0.92214   0.00000  Uiso   1.00
C661   C     0.36989   0.46312   0.97337   0.00000  Uiso   1.00
C662   C     0.47429   0.50240   0.98725   0.00000  Uiso   1.00
C663   C     0.41282   0.47664   0.50548   0.00000  Uiso   1.00
C664   C     0.65822   0.43855   0.70734   0.00000  Uiso   1.00
C665   C     0.36609   0.42705   0.65723   0.00000  Uiso   1.00
C666   C     0.48998   0.51759   0.93627   0.00000  Uiso   1.00
C667   C     0.52031   0.51465   0.51829   0.00000  Uiso   1.00
C668   C     0.57861   0.54656   0.50009   0.00000  Uiso   1.00
C669   C     0.59065   0.56591   0.95186   0.00000  Uiso   1.00
C670   C     0.54685   0.55221   0.92065   0.00000  Uiso   1.00
C671   C     0.51018   0.49596   0.56700   0.00000  Uiso   1.00
C672   C     0.61080   0.54352   0.58046   0.00000  Uiso   1.00
Cu673  Cu    0.44043   0.49439   0.74436   0.00000  Uiso   1.00
Cu674  Cu    0.55957   0.50561   0.75565   0.00000  Uiso   1.00
H675   H     0.64484   0.55665   0.60472   0.00000  Uiso   1.00
H676   H     0.55766   0.57061   0.88478   0.00000  Uiso   1.00
H677   H     0.56463   0.34599   0.76425   0.00000  Uiso   1.00
H678   H     0.37883   0.46260   0.63498   0.00000  Uiso   1.00
H679   H     0.40700   0.41310   0.66260   0.00000  Uiso   1.00
H680   H     0.34008   0.39494   0.63471   0.00000  Uiso   1.00
H681   H     0.64846   0.40433   0.73109   0.00000  Uiso   1.00
H682   H     0.61806   0.44257   0.69345   0.00000  Uiso   1.00
H683   H     0.43361   0.65372   0.73863   0.00000  Uiso   1.00
H684   H     0.33826   0.54424   0.78559   0.00000  Uiso   1.00
H685   H     0.63413   0.59191   0.93819   0.00000  Uiso   1.00
H686   H     0.33506   0.58421   0.51724   0.00000  Uiso   1.00
H687   H     0.46905   0.46832   0.58113   0.00000  Uiso   1.00
H688   H     0.35397   0.45870   0.89748   0.00000  Uiso   1.00
H689   H     0.39588   0.46775   0.54466   0.00000  Uiso   1.00
H690   H     0.65637   0.44370   0.98809   0.00000  Uiso   1.00
N691   N     0.64908   0.51407   0.76416   0.00000  Uiso   1.00
N692   N     0.35092   0.48593   0.73584   0.00000  Uiso   1.00
O693   O     0.46131   0.57141   0.74633   0.00000  Uiso   1.00
O694   O     0.56191   0.58089   0.75587   0.00000  Uiso   1.00
O695   O     0.42515   0.49293   0.81840   0.00000  Uiso   1.00
O696   O     0.52575   0.50241   0.82793   0.00000  Uiso   1.00
O697   O     0.43809   0.41911   0.74414   0.00000  Uiso   1.00
O698   O     0.53869   0.42859   0.75367   0.00000  Uiso   1.00
O699   O     0.47425   0.49759   0.67207   0.00000  Uiso   1.00
O700   O     0.57485   0.50707   0.68161   0.00000  Uiso   1.00
C701   C     0.84796   0.59988   0.75228   0.00000  Uiso   1.00
C702   C     0.78110   0.49837   0.90264   0.00000  Uiso   1.00
C703   C     0.85527   0.65582   0.75503   0.00000  Uiso   1.00
C704   C     0.80060   0.49933   0.84695   0.00000  Uiso   1.00
C705   C     0.81023   0.34405   0.74693   0.00000  Uiso   1.00
C706   C     0.81836   0.40009   0.74845   0.00000  Uiso   1.00
C707   C     0.86657   0.50376   0.65334   0.00000  Uiso   1.00
C708   C     0.95711   0.55985   0.53092   0.00000  Uiso   1.00
C709   C     0.88641   0.51273   0.59906   0.00000  Uiso   1.00
C710   C     0.72076   0.47271   0.92214   0.00000  Uiso   1.00
C711   C     0.70322   0.46312   0.97337   0.00000  Uiso   1.00
C712   C     0.80763   0.50240   0.98725   0.00000  Uiso   1.00
C713   C     0.74615   0.47664   0.50548   0.00000  Uiso   1.00
C714   C     0.99155   0.43855   0.70734   0.00000  Uiso   1.00
C715   C     0.69943   0.42705   0.65723   0.00000  Uiso   1.00
C716   C     0.82331   0.51759   0.93627   0.00000  Uiso   1.00
C717   C     0.85364   0.51465   0.51829   0.00000  Uiso   1.00
C718   C     0.91195   0.54656   0.50009   0.00000  Uiso   1.00
C719   C     0.92398   0.56591   0.95186   0.00000  Uiso   1.00
C720   C     0.88018   0.55221   0.92065   0.00000  Uiso   1.00
C721   C     0.84351   0.49596   0.56700   0.00000  Uiso   1.00
C722   C     0.94413   0.54352   0.58046   0.00000  Uiso   1.00
Cu723  Cu    0.77377   0.49439   0.74436   0.00000  Uiso   1.00
Cu724  Cu    0.89290   0.50561   0.75565   0.00000  Uiso   1.00
H725   H     0.97817   0.55665   0.60472   0.00000  Uiso   1.00
H726   H     0.89099   0.57061   0.88478   0.00000  Uiso   1.00
H727   H     0.89796   0.34599   0.76425   0.00000  Uiso   1.00
H728   H     0.71217   0.46260   0.63498   0.00000  Uiso   1.00
H729   H     0.74033   0.41310   0.66260   0.00000  Uiso   1.00
H730   H     0.67342   0.39494   0.63471   0.00000  Uiso   1.00
H731   H     0.98180   0.40433   0.73109   0.00000  Uiso   1.00
H732   H     0.95139   0.44257   0.69345   0.00000  Uiso   1.00
H733   H     0.76694   0.65372   0.73863   0.00000  Uiso   1.00
H734   H     0.67159   0.54424   0.78559   0.00000  Uiso   1.00
H735   H     0.96747   0.59191   0.93819   0.00000  Uiso   1.00
H736   H     0.66839   0.58421   0.51724   0.00000  Uiso   1.00
H737   H     0.80238   0.46832   0.58113   0.00000  Uiso   1.00
H738   H     0.68730   0.45870   0.89748   0.00000  Uiso   1.00
H739   H     0.72922   0.46775   0.54466   0.00000  Uiso   1.00
H740   H     0.98971   0.44370   0.98809   0.00000  Uiso   1.00
N741   N     0.98241   0.51407   0.76416   0.00000  Uiso   1.00
N742   N     0.68426   0.48593   0.73584   0.00000  Uiso   1.00
O743   O     0.79464   0.57141   0.74633   0.00000  Uiso   1.00
O744   O     0.89524   0.58089   0.75587   0.00000  Uiso   1.00
O745   O     0.75848   0.49293   0.81840   0.00000  Uiso   1.00
O746   O     0.85908   0.50241   0.82793   0.00000  Uiso   1.00
O747   O     0.77142   0.41911   0.74414   0.00000  Uiso   1.00
O748   O     0.87203   0.42859   0.75367   0.00000  Uiso   1.00
O749   O     0.80758   0.49759   0.67207   0.00000  Uiso   1.00
O750   O     0.90819   0.50707   0.68161   0.00000  Uiso   1.00
C751   C     0.18129   0.93321   0.75228   0.00000  Uiso   1.00
C752   C     0.11443   0.83170   0.90264   0.00000  Uiso   1.00
C753   C     0.18860   0.98915   0.75503   0.00000  Uiso   1.00
C754   C     0.13393   0.83266   0.84695   0.00000  Uiso   1.00
C755   C     0.14356   0.67738   0.74693   0.00000  Uiso   1.00
C756   C     0.15169   0.73342   0.74845   0.00000  Uiso   1.00
C757   C     0.19991   0.83709   0.65334   0.00000  Uiso   1.00
C758   C     0.29044   0.89318   0.53092   0.00000  Uiso   1.00
C759   C     0.21974   0.84607   0.59906   0.00000  Uiso   1.00
C760   C     0.05409   0.80604   0.92214   0.00000  Uiso   1.00
C761   C     0.03655   0.79645   0.97337   0.00000  Uiso   1.00
C762   C     0.14096   0.83574   0.98725   0.00000  Uiso   1.00
C763   C     0.07948   0.80997   0.50548   0.00000  Uiso   1.00
C764   C     0.32489   0.77188   0.70734   0.00000  Uiso   1.00
C765   C     0.03276   0.76038   0.65723   0.00000  Uiso   1.00
C766   C     0.15664   0.85092   0.93627   0.00000  Uiso   1.00
C767   C     0.18698   0.84798   0.51829   0.00000  Uiso   1.00
C768   C     0.24528   0.87990   0.50009   0.00000  Uiso   1.00
C769   C     0.25732   0.89924   0.95186   0.00000  Uiso   1.00
C770   C     0.21351   0.88554   0.92065   0.00000  Uiso   1.00
C771   C     0.17685   0.82930   0.56700   0.00000  Uiso   1.00
C772   C     0.27747   0.87686   0.58046   0.00000  Uiso   1.00
Cu773  Cu    0.10710   0.82772   0.74436   0.00000  Uiso   1.00
Cu774  Cu    0.22623   0.83895   0.75565   0.00000  Uiso   1.00
H775   H     0.31150   0.88998   0.60472   0.00000  Uiso   1.00
H776   H     0.22432   0.90394   0.88478   0.00000  Uiso   1.00
H777   H     0.23129   0.67932   0.76425   0.00000  Uiso   1.00
H778   H     0.04550   0.79594   0.63498   0.00000  Uiso   1.00
H779   H     0.07366   0.74643   0.66260   0.00000  Uiso   1.00
H780   H     0.00675   0.72828   0.63471   0.00000  Uiso   1.00
H781   H     0.31513   0.73767   0.73109   0.00000  Uiso   1.00
H782   H     0.28472   0.77590   0.69345   0.00000  Uiso   1.00
H783   H     0.10027   0.98705   0.73863   0.00000  Uiso   1.00
H784   H     0.00492   0.87758   0.78559   0.00000  Uiso   1.00
H785   H     0.30080   0.92524   0.93819   0.00000  Uiso   1.00
H786   H     0.00173   0.91754   0.51724   0.00000  Uiso   1.00
H787   H     0.13572   0.80165   0.58113   0.00000  Uiso   1.00
H788   H     0.02064   0.79203   0.89748   0.00000  Uiso   1.00
H789   H     0.06255   0.80108   0.54466   0.00000  Uiso   1.00
H790   H     0.32304   0.77703   0.98809   0.00000  Uiso   1.00
N791   N     0.31574   0.84741   0.76416   0.00000  Uiso   1.00
N792   N     0.01759   0.81926   0.73584   0.00000  Uiso   1.00
O793   O     0.12797   0.90474   0.74633   0.00000  Uiso   1.00
O794   O     0.22858   0.91422   0.75587   0.00000  Uiso   1.00
O795   O     0.09181   0.82627   0.81840   0.00000  Uiso   1.00
O796   O     0.19242   0.83575   0.82793   0.00000  Uiso   1.00
O797   O     0.10476   0.75245   0.74414   0.00000  Uiso   1.00
O798   O     0.20536   0.76193   0.75367   0.00000  Uiso   1.00
O799   O     0.14092   0.83092   0.67207   0.00000  Uiso   1.00
O800   O     0.24152   0.84040   0.68161   0.00000  Uiso   1.00
C801   C     0.51463   0.93321   0.75228   0.00000  Uiso   1.00
C802   C     0.44776   0.83170   0.90264   0.00000  Uiso   1.00
C803   C     0.52194   0.98915   0.75503   0.00000  Uiso   1.00
C804   C     0.46726   0.83266   0.84695   0.00000  Uiso   1.00
C805   C     0.47690   0.67738   0.74693   0.00000  Uiso   1.00
C806   C     0.48502   0.73342   0.74845   0.00000  Uiso   1.00
C807   C     0.53324   0.83709   0.65334   0.00000  Uiso   1.00
C808   C     0.62377   0.89318   0.53092   0.00000  Uiso   1.00
C809   C     0.55307   0.84607   0.59906   0.00000  Uiso   1.00
C810   C     0.38742   0.80604   0.92214   0.00000  Uiso   1.00
C811   C     0.36989   0.79645   0.97337   0.00000  Uiso   1.00
C812   C     0.47429   0.83574   0.98725   0.00000  Uiso   1.00
C813   C     0.41282   0.80997   0.50548   0.00000  Uiso   1.00
C814   C     0.65822   0.77188   0.70734   0.00000  Uiso   1.00
C815   C     0.36609   0.76038   0.65723   0.00000  Uiso   1.00
C816   C     0.48998   0.85092   0.93627   0.00000  Uiso   1.00
C817   C     0.52031   0.84798   0.51829   0.00000  Uiso   1.00
C818   C     0.57861   0.87990   0.50009   0.00000  Uiso   1.00
C819   C     0.59065   0.89924   0.95186   0.00000  Uiso   1.00
C820   C     0.54685   0.88554   0.92065   0.00000  Uiso   1.00
C821   C     0.51018   0.82930   0.56700   0.00000  Uiso   1.00
C822   C     0.61080   0.87686   0.58046   0.00000  Uiso   1.00
Cu823  Cu    0.44043   0.82772   0.74436   0.00000  Uiso   1.00
Cu824  Cu    0.55957   0.83895   0.75565   0.00000  Uiso   1.00
H825   H     0.64484   0.88998   0.60472   0.00000  Uiso   1.00
H826   H     0.55766   0.90394   0.88478   0.00000  Uiso   1.00
H827   H     0.56463   0.67932   0.76425   0.00000  Uiso   1.00
H828   H     0.37883   0.79594   0.63498   0.00000  Uiso   1.00
H829   H     0.40700   0.74643   0.66260   0.00000  Uiso   1.00
H830   H     0.34008   0.72828   0.63471   0.00000  Uiso   1.00
H831   H     0.64846   0.73767   0.73109   0.00000  Uiso   1.00
H832   H     0.61806   0.77590   0.69345   0.00000  Uiso   1.00
H833   H     0.43361   0.98705   0.73863   0.00000  Uiso   1.00
H834   H     0.33826   0.87758   0.78559   0.00000  Uiso   1.00
H835   H     0.63413   0.92524   0.93819   0.00000  Uiso   1.00
H836   H     0.33506   0.91754   0.51724   0.00000  Uiso   1.00
H837   H     0.46905   0.80165   0.58113   0.00000  Uiso   1.00
H838   H     0.35397   0.79203   0.89748   0.00000  Uiso   1.00
H839   H     0.39588   0.80108   0.54466   0.00000  Uiso   1.00
H840   H     0.65637   0.77703   0.98809   0.00000  Uiso   1.00
N841   N     0.64908   0.84741   0.76416   0.00000  Uiso   1.00
N842   N     0.35092   0.81926   0.73584   0.00000  Uiso   1.00
O843   O     0.46131   0.90474   0.74633   0.00000  Uiso   1.00
O844   O     0.56191   0.91422   0.75587   0.00000  Uiso   1.00
O845   O     0.42515   0.82627   0.81840   0.00000  Uiso   1.00
O846   O     0.52575   0.83575   0.82793   0.00000  Uiso   1.00
O847   O     0.43809   0.75245   0.74414   0.00000  Uiso   1.00
O848   O     0.53869   0.76193   0.75367   0.00000  Uiso   1.00
O849   O     0.47425   0.83092   0.67207   0.00000  Uiso   1.00
O850   O     0.57485   0.84040   0.68161   0.00000  Uiso   1.00
C851   C     0.84796   0.93321   0.75228   0.00000  Uiso   1.00
C852   C     0.78110   0.83170   0.90264   0.00000  Uiso   1.00
C853   C     0.85527   0.98915   0.75503   0.00000  Uiso   1.00
C854   C     0.80060   0.83266   0.84695   0.00000  Uiso   1.00
C855   C     0.81023   0.67738   0.74693   0.00000  Uiso   1.00
C856   C     0.81836   0.73342   0.74845   0.00000  Uiso   1.00
C857   C     0.86657   0.83709   0.65334   0.00000  Uiso   1.00
C858   C     0.95711   0.89318   0.53092   0.00000  Uiso   1.00
C859   C     0.88641   0.84607   0.59906   0.00000  Uiso   1.00
C860   C     0.72076   0.80604   0.92214   0.00000  Uiso   1.00
C861   C     0.70322   0.79645   0.97337   0.00000  Uiso   1.00
C862   C     0.80763   0.83574   0.98725   0.00000  Uiso   1.00
C863   C     0.74615   0.80997   0.50548   0.00000  Uiso   1.00
C864   C     0.99155   0.77188   0.70734   0.00000  Uiso   1.00
C865   C     0.69943   0.76038   0.65723   0.00000  Uiso   1.00
C866   C     0.82331   0.85092   0.93627   0.00000  Uiso   1.00
C867   C     0.85364   0.84798   0.51829   0.00000  Uiso   1.00
C868   C     0.91195   0.87990   0.50009   0.00000  Uiso   1.00
C869   C     0.92398   0.89924   0.95186   0.00000  Uiso   1.00
C870   C     0.88018   0.88554   0.92065   0.00000  Uiso   1.00
C871   C     0.84351   0.82930   0.56700   0.00000  Uiso   1.00
C872   C     0.94413   0.87686   0.58046   0.00000  Uiso   1.00
Cu873  Cu    0.77377   0.82772   0.74436   0.00000  Uiso   1.00
Cu874  Cu    0.89290   0.83895   0.75565   0.00000  Uiso   1.00
H875   H     0.97817   0.88998   0.60472   0.00000  Uiso   1.00
H876   H     0.89099   0.90394   0.88478   0.00000  Uiso   1.00
H877   H     0.89796   0.67932   0.76425   0.00000  Uiso   1.00
H878   H     0.71217   0.79594   0.63498   0.00000  Uiso   1.00
H879   H     0.74033   0.74643   0.66260   0.00000  Uiso   1.00
H880   H     0.67342   0.72828   0.63471   0.00000  Uiso   1.00
H881   H     0.98180   0.73767   0.73109   0.00000  Uiso   1.00
H882   H     0.95139   0.77590   0.69345   0.00000  Uiso   1.00
H883   H     0.76694   0.98705   0.73863   0.00000  Uiso   1.00
H884   H     0.67159   0.87758   0.78559   0.00000  Uiso   1.00
H885   H     0.96747   0.92524   0.93819   0.00000  Uiso   1.00
H886   H     0.66839   0.91754   0.51724   0.00000  Uiso   1.00
H887   H     0.80238   0.80165   0.58113   0.00000  Uiso   1.00
H888   H     0.68730   0.79203   0.89748   0.00000  Uiso   1.00
H889   H     0.72922   0.80108   0.54466   0.00000  Uiso   1.00
H890   H     0.98971   0.77703   0.98809   0.00000  Uiso   1.00
N891   N     0.98241   0.84741   0.76416   0.00000  Uiso   1.00
N892   N     0.68426   0.81926   0.73584   0.00000  Uiso   1.00
O893   O     0.79464   0.90474   0.74633   0.00000  Uiso   1.00
O894   O     0.89524   0.91422   0.75587   0.00000  Uiso   1.00
O895   O     0.75848   0.82627   0.81840   0.00000  Uiso   1.00
O896   O     0.85908   0.83575   0.82793   0.00000  Uiso   1.00
O897   O     0.77142   0.75245   0.74414   0.00000  Uiso   1.00
O898   O     0.87203   0.76193   0.75367   0.00000  Uiso   1.00
O899   O     0.80758   0.83092   0.67207   0.00000  Uiso   1.00
O900   O     0.90819   0.84040   0.68161   0.00000  Uiso   1.00
loop_
_geom_bond_atom_site_label_1
_geom_bond_atom_site_label_2
_geom_bond_distance
_geom_bond_site_symmetry_2
_ccdc_geom_bond_type
C1     O44     1.296   .     A
C1     O43     1.300   .     A
C1     C3      1.429   .     S
C2     C16     1.421   .     A
C2     C4      1.473   .     S
C2     C10     1.403   .     A
C3     C155    1.328   .     S
C3     H177    1.083   .     S
C4     O46     1.307   .     A
C4     O45     1.311   .     A
C5     C6      1.431   .     S
C5     C303    1.328   1_545 S
C5     H333    1.088   1_545 S
C6     O48     1.302   .     A
C6     O47     1.295   .     A
C7     O49     1.308   .     A
C7     C9      1.464   .     S
C7     O50     1.306   .     A
C8     C22     1.393   .     A
C8     C18     1.404   .     A
C8     H86     1.084   .     S
C9     C21     1.394   .     A
C9     C22     1.400   .     A
C10    H38     1.083   .     S
C10    C11     1.386   .     A
C11    C463    1.390   .     S
C11    H140    1.083   1_455 S
C12    C16     1.418   .     A
C12    C463    1.417   .     S
C12    C467    1.423   .     S
C13    H39     1.076   .     S
C13    C461    1.390   1_554 S
C13    C462    1.417   1_554 S
C14    H31     1.107   .     S
C14    H32     1.077   .     S
C14    C65     1.520   .     S
C14    N92     1.459   .     S
C15    H28     1.108   .     S
C15    H29     1.104   .     S
C15    H30     1.112   .     S
C15    C114    1.520   1_455 S
C16    C20     1.413   .     A
C17    C18     1.419   .     A
C17    C21     1.401   .     A
C17    C462    1.423   1_554 S
C18    C469    1.392   1_554 S
C19    C20     1.388   .     A
C19    H35     1.084   .     S
C19    C468    1.392   .     S
C20    H26     1.080   .     S
C21    H37     1.072   .     S
C22    H25     1.083   .     S
Cu23   Cu24    2.719   .     S
Cu23   O45     1.952   .     S
Cu23   O47     1.953   .     S
Cu23   O43     1.959   .     S
Cu23   N42     2.043   .     S
Cu23   O49     1.942   .     S
Cu24   O46     1.942   .     S
Cu24   N41     2.043   .     S
Cu24   O50     1.952   .     S
Cu24   O44     1.953   .     S
Cu24   O48     1.959   .     S
H27    C303    1.083   1_545 S
H33    C155    1.088   .     S
H34    N141    1.029   1_455 S
H36    C108    1.084   1_455 S
H40    C61     1.083   .     S
N41    H84     1.029   .     S
N41    N92     1.285   .     S
N42    N141    1.285   1_455 S
N42    C114    1.459   1_455 S
C51    O94     1.296   .     A
C51    O93     1.300   .     A
C51    C53     1.429   .     S
C52    C66     1.421   .     A
C52    C54     1.473   .     S
C52    C60     1.403   .     A
C53    C205    1.328   .     S
C53    H227    1.083   .     S
C54    O96     1.307   .     A
C54    O95     1.311   .     A
C55    C56     1.431   .     S
C55    C353    1.328   1_545 S
C55    H383    1.088   1_545 S
C56    O98     1.302   .     A
C56    O97     1.295   .     A
C57    O99     1.308   .     A
C57    C59     1.464   .     S
C57    O100    1.306   .     A
C58    C72     1.393   .     A
C58    C68     1.404   .     A
C58    H136    1.084   .     S
C59    C71     1.394   .     A
C59    C72     1.400   .     A
C60    H88     1.083   .     S
C60    C61     1.386   .     A
C61    C513    1.390   .     S
C62    C66     1.418   .     A
C62    C513    1.417   .     S
C62    C517    1.423   .     S
C63    H89     1.076   .     S
C63    C511    1.390   1_554 S
C63    C512    1.417   1_554 S
C64    H81     1.107   .     S
C64    H82     1.077   .     S
C64    C115    1.520   .     S
C64    N142    1.459   .     S
C65    H78     1.108   .     S
C65    H79     1.104   .     S
C65    H80     1.112   .     S
C66    C70     1.413   .     A
C67    C68     1.419   .     A
C67    C71     1.401   .     A
C67    C512    1.423   1_554 S
C68    C519    1.392   1_554 S
C69    C70     1.388   .     A
C69    H85     1.084   .     S
C69    C518    1.392   .     S
C70    H76     1.080   .     S
C71    H87     1.072   .     S
C72    H75     1.083   .     S
Cu73   Cu74    2.719   .     S
Cu73   O95     1.952   .     S
Cu73   O97     1.953   .     S
Cu73   O93     1.959   .     S
Cu73   N92     2.043   .     S
Cu73   O99     1.942   .     S
Cu74   O96     1.942   .     S
Cu74   N91     2.043   .     S
Cu74   O100    1.952   .     S
Cu74   O94     1.953   .     S
Cu74   O98     1.959   .     S
H77    C353    1.083   1_545 S
H83    C205    1.088   .     S
H90    C111    1.083   .     S
N91    H134    1.029   .     S
N91    N142    1.285   .     S
C101   O144    1.296   .     A
C101   O143    1.300   .     A
C101   C103    1.429   .     S
C102   C116    1.421   .     A
C102   C104    1.473   .     S
C102   C110    1.403   .     A
C103   C255    1.328   .     S
C103   H277    1.083   .     S
C104   O146    1.307   .     A
C104   O145    1.311   .     A
C105   C106    1.431   .     S
C105   C403    1.328   1_545 S
C105   H433    1.088   1_545 S
C106   O148    1.302   .     A
C106   O147    1.295   .     A
C107   O149    1.308   .     A
C107   C109    1.464   .     S
C107   O150    1.306   .     A
C108   C122    1.393   .     A
C108   C118    1.404   .     A
C108   H36     1.084   1_655 S
C109   C121    1.394   .     A
C109   C122    1.400   .     A
C110   H138    1.083   .     S
C110   C111    1.386   .     A
C111   C563    1.390   .     S
C112   C116    1.418   .     A
C112   C563    1.417   .     S
C112   C567    1.423   .     S
C113   H139    1.076   .     S
C113   C561    1.390   1_554 S
C113   C562    1.417   1_554 S
C114   H131    1.107   .     S
C114   H132    1.077   .     S
C114   C15     1.520   1_655 S
C114   N42     1.459   1_655 S
C115   H128    1.108   .     S
C115   H129    1.104   .     S
C115   H130    1.112   .     S
C116   C120    1.413   .     A
C117   C118    1.419   .     A
C117   C121    1.401   .     A
C117   C562    1.423   1_554 S
C118   C569    1.392   1_554 S
C119   C120    1.388   .     A
C119   H135    1.084   .     S
C119   C568    1.392   .     S
C120   H126    1.080   .     S
C121   H137    1.072   .     S
C122   H125    1.083   .     S
Cu123  Cu124   2.719   .     S
Cu123  O145    1.952   .     S
Cu123  O147    1.953   .     S
Cu123  O143    1.959   .     S
Cu123  N142    2.043   .     S
Cu123  O149    1.942   .     S
Cu124  O146    1.942   .     S
Cu124  N141    2.043   .     S
Cu124  O150    1.952   .     S
Cu124  O144    1.953   .     S
Cu124  O148    1.959   .     S
H127   C403    1.083   1_545 S
H133   C255    1.088   .     S
H140   C11     1.083   1_655 S
N141   H34     1.029   1_655 S
N141   N42     1.285   1_655 S
C151   O194    1.296   .     A
C151   O193    1.300   .     A
C151   C153    1.429   .     S
C152   C166    1.421   .     A
C152   C154    1.473   .     S
C152   C160    1.403   .     A
C153   C305    1.328   .     S
C153   H327    1.083   .     S
C154   O196    1.307   .     A
C154   O195    1.311   .     A
C155   C156    1.431   .     S
C156   O198    1.302   .     A
C156   O197    1.295   .     A
C157   O199    1.308   .     A
C157   C159    1.464   .     S
C157   O200    1.306   .     A
C158   C172    1.393   .     A
C158   C168    1.404   .     A
C158   H236    1.084   .     S
C159   C171    1.394   .     A
C159   C172    1.400   .     A
C160   H188    1.083   .     S
C160   C161    1.386   .     A
C161   C613    1.390   .     S
C161   H290    1.083   1_455 S
C162   C166    1.418   .     A
C162   C613    1.417   .     S
C162   C617    1.423   .     S
C163   H189    1.076   .     S
C163   C611    1.390   1_554 S
C163   C612    1.417   1_554 S
C164   H181    1.107   .     S
C164   H182    1.077   .     S
C164   C215    1.520   .     S
C164   N242    1.459   .     S
C165   H178    1.108   .     S
C165   H179    1.104   .     S
C165   H180    1.112   .     S
C165   C264    1.520   1_455 S
C166   C170    1.413   .     A
C167   C168    1.419   .     A
C167   C171    1.401   .     A
C167   C612    1.423   1_554 S
C168   C619    1.392   1_554 S
C169   C170    1.388   .     A
C169   H185    1.084   .     S
C169   C618    1.392   .     S
C170   H176    1.080   .     S
C171   H187    1.072   .     S
C172   H175    1.083   .     S
Cu173  Cu174   2.719   .     S
Cu173  O195    1.952   .     S
Cu173  O197    1.953   .     S
Cu173  O193    1.959   .     S
Cu173  N192    2.043   .     S
Cu173  O199    1.942   .     S
Cu174  O196    1.942   .     S
Cu174  N191    2.043   .     S
Cu174  O200    1.952   .     S
Cu174  O194    1.953   .     S
Cu174  O198    1.959   .     S
H183   C305    1.088   .     S
H184   N291    1.029   1_455 S
H186   C258    1.084   1_455 S
H190   C211    1.083   .     S
N191   H234    1.029   .     S
N191   N242    1.285   .     S
N192   N291    1.285   1_455 S
N192   C264    1.459   1_455 S
C201   O244    1.296   .     A
C201   O243    1.300   .     A
C201   C203    1.429   .     S
C202   C216    1.421   .     A
C202   C204    1.473   .     S
C202   C210    1.403   .     A
C203   C355    1.328   .     S
C203   H377    1.083   .     S
C204   O246    1.307   .     A
C204   O245    1.311   .     A
C205   C206    1.431   .     S
C206   O248    1.302   .     A
C206   O247    1.295   .     A
C207   O249    1.308   .     A
C207   C209    1.464   .     S
C207   O250    1.306   .     A
C208   C222    1.393   .     A
C208   C218    1.404   .     A
C208   H286    1.084   .     S
C209   C221    1.394   .     A
C209   C222    1.400   .     A
C210   H238    1.083   .     S
C210   C211    1.386   .     A
C211   C663    1.390   .     S
C212   C216    1.418   .     A
C212   C663    1.417   .     S
C212   C667    1.423   .     S
C213   H239    1.076   .     S
C213   C661    1.390   1_554 S
C213   C662    1.417   1_554 S
C214   H231    1.107   .     S
C214   H232    1.077   .     S
C214   C265    1.520   .     S
C214   N292    1.459   .     S
C215   H228    1.108   .     S
C215   H229    1.104   .     S
C215   H230    1.112   .     S
C216   C220    1.413   .     A
C217   C218    1.419   .     A
C217   C221    1.401   .     A
C217   C662    1.423   1_554 S
C218   C669    1.392   1_554 S
C219   C220    1.388   .     A
C219   H235    1.084   .     S
C219   C668    1.392   .     S
C220   H226    1.080   .     S
C221   H237    1.072   .     S
C222   H225    1.083   .     S
Cu223  Cu224   2.719   .     S
Cu223  O245    1.952   .     S
Cu223  O247    1.953   .     S
Cu223  O243    1.959   .     S
Cu223  N242    2.043   .     S
Cu223  O249    1.942   .     S
Cu224  O246    1.942   .     S
Cu224  N241    2.043   .     S
Cu224  O250    1.952   .     S
Cu224  O244    1.953   .     S
Cu224  O248    1.959   .     S
H233   C355    1.088   .     S
H240   C261    1.083   .     S
N241   H284    1.029   .     S
N241   N292    1.285   .     S
C251   O294    1.296   .     A
C251   O293    1.300   .     A
C251   C253    1.429   .     S
C252   C266    1.421   .     A
C252   C254    1.473   .     S
C252   C260    1.403   .     A
C253   C405    1.328   .     S
C253   H427    1.083   .     S
C254   O296    1.307   .     A
C254   O295    1.311   .     A
C255   C256    1.431   .     S
C256   O298    1.302   .     A
C256   O297    1.295   .     A
C257   O299    1.308   .     A
C257   C259    1.464   .     S
C257   O300    1.306   .     A
C258   C272    1.393   .     A
C258   C268    1.404   .     A
C258   H186    1.084   1_655 S
C259   C271    1.394   .     A
C259   C272    1.400   .     A
C260   H288    1.083   .     S
C260   C261    1.386   .     A
C261   C713    1.390   .     S
C262   C266    1.418   .     A
C262   C713    1.417   .     S
C262   C717    1.423   .     S
C263   H289    1.076   .     S
C263   C711    1.390   1_554 S
C263   C712    1.417   1_554 S
C264   H281    1.107   .     S
C264   H282    1.077   .     S
C264   C165    1.520   1_655 S
C264   N192    1.459   1_655 S
C265   H278    1.108   .     S
C265   H279    1.104   .     S
C265   H280    1.112   .     S
C266   C270    1.413   .     A
C267   C268    1.419   .     A
C267   C271    1.401   .     A
C267   C712    1.423   1_554 S
C268   C719    1.392   1_554 S
C269   C270    1.388   .     A
C269   H285    1.084   .     S
C269   C718    1.392   .     S
C270   H276    1.080   .     S
C271   H287    1.072   .     S
C272   H275    1.083   .     S
Cu273  Cu274   2.719   .     S
Cu273  O295    1.952   .     S
Cu273  O297    1.953   .     S
Cu273  O293    1.959   .     S
Cu273  N292    2.043   .     S
Cu273  O299    1.942   .     S
Cu274  O296    1.942   .     S
Cu274  N291    2.043   .     S
Cu274  O300    1.952   .     S
Cu274  O294    1.953   .     S
Cu274  O298    1.959   .     S
H283   C405    1.088   .     S
H290   C161    1.083   1_655 S
N291   H184    1.029   1_655 S
N291   N192    1.285   1_655 S
C301   O344    1.296   .     A
C301   O343    1.300   .     A
C301   C303    1.429   .     S
C302   C316    1.421   .     A
C302   C304    1.473   .     S
C302   C310    1.403   .     A
C303   C5      1.328   1_565 S
C303   H27     1.083   1_565 S
C304   O346    1.307   .     A
C304   O345    1.311   .     A
C305   C306    1.431   .     S
C306   O348    1.302   .     A
C306   O347    1.295   .     A
C307   O349    1.308   .     A
C307   C309    1.464   .     S
C307   O350    1.306   .     A
C308   C322    1.393   .     A
C308   C318    1.404   .     A
C308   H386    1.084   .     S
C309   C321    1.394   .     A
C309   C322    1.400   .     A
C310   H338    1.083   .     S
C310   C311    1.386   .     A
C311   C763    1.390   .     S
C311   H440    1.083   1_455 S
C312   C316    1.418   .     A
C312   C763    1.417   .     S
C312   C767    1.423   .     S
C313   H339    1.076   .     S
C313   C761    1.390   1_554 S
C313   C762    1.417   1_554 S
C314   H331    1.107   .     S
C314   H332    1.077   .     S
C314   C365    1.520   .     S
C314   N392    1.459   .     S
C315   H328    1.108   .     S
C315   H329    1.104   .     S
C315   H330    1.112   .     S
C315   C414    1.520   1_455 S
C316   C320    1.413   .     A
C317   C318    1.419   .     A
C317   C321    1.401   .     A
C317   C762    1.423   1_554 S
C318   C769    1.392   1_554 S
C319   C320    1.388   .     A
C319   H335    1.084   .     S
C319   C768    1.392   .     S
C320   H326    1.080   .     S
C321   H337    1.072   .     S
C322   H325    1.083   .     S
Cu323  Cu324   2.719   .     S
Cu323  O345    1.952   .     S
Cu323  O347    1.953   .     S
Cu323  O343    1.959   .     S
Cu323  N342    2.043   .     S
Cu323  O349    1.942   .     S
Cu324  O346    1.942   .     S
Cu324  N341    2.043   .     S
Cu324  O350    1.952   .     S
Cu324  O344    1.953   .     S
Cu324  O348    1.959   .     S
H333   C5      1.088   1_565 S
H334   N441    1.029   1_455 S
H336   C408    1.084   1_455 S
H340   C361    1.083   .     S
N341   H384    1.029   .     S
N341   N392    1.285   .     S
N342   N441    1.285   1_455 S
N342   C414    1.459   1_455 S
C351   O394    1.296   .     A
C351   O393    1.300   .     A
C351   C353    1.429   .     S
C352   C366    1.421   .     A
C352   C354    1.473   .     S
C352   C360    1.403   .     A
C353   C55     1.328   1_565 S
C353   H77     1.083   1_565 S
C354   O396    1.307   .     A
C354   O395    1.311   .     A
C355   C356    1.431   .     S
C356   O398    1.302   .     A
C356   O397    1.295   .     A
C357   O399    1.308   .     A
C357   C359    1.464   .     S
C357   O400    1.306   .     A
C358   C372    1.393   .     A
C358   C368    1.404   .     A
C358   H436    1.084   .     S
C359   C371    1.394   .     A
C359   C372    1.400   .     A
C360   H388    1.083   .     S
C360   C361    1.386   .     A
C361   C813    1.390   .     S
C362   C366    1.418   .     A
C362   C813    1.417   .     S
C362   C817    1.423   .     S
C363   H389    1.076   .     S
C363   C811    1.390   1_554 S
C363   C812    1.417   1_554 S
C364   H381    1.107   .     S
C364   H382    1.077   .     S
C364   C415    1.520   .     S
C364   N442    1.459   .     S
C365   H378    1.108   .     S
C365   H379    1.104   .     S
C365   H380    1.112   .     S
C366   C370    1.413   .     A
C367   C368    1.419   .     A
C367   C371    1.401   .     A
C367   C812    1.423   1_554 S
C368   C819    1.392   1_554 S
C369   C370    1.388   .     A
C369   H385    1.084   .     S
C369   C818    1.392   .     S
C370   H376    1.080   .     S
C371   H387    1.072   .     S
C372   H375    1.083   .     S
Cu373  Cu374   2.719   .     S
Cu373  O395    1.952   .     S
Cu373  O397    1.953   .     S
Cu373  O393    1.959   .     S
Cu373  N392    2.043   .     S
Cu373  O399    1.942   .     S
Cu374  O396    1.942   .     S
Cu374  N391    2.043   .     S
Cu374  O400    1.952   .     S
Cu374  O394    1.953   .     S
Cu374  O398    1.959   .     S
H383   C55     1.088   1_565 S
H390   C411    1.083   .     S
N391   H434    1.029   .     S
N391   N442    1.285   .     S
C401   O444    1.296   .     A
C401   O443    1.300   .     A
C401   C403    1.429   .     S
C402   C416    1.421   .     A
C402   C404    1.473   .     S
C402   C410    1.403   .     A
C403   C105    1.328   1_565 S
C403   H127    1.083   1_565 S
C404   O446    1.307   .     A
C404   O445    1.311   .     A
C405   C406    1.431   .     S
C406   O448    1.302   .     A
C406   O447    1.295   .     A
C407   O449    1.308   .     A
C407   C409    1.464   .     S
C407   O450    1.306   .     A
C408   C422    1.393   .     A
C408   C418    1.404   .     A
C408   H336    1.084   1_655 S
C409   C421    1.394   .     A
C409   C422    1.400   .     A
C410   H438    1.083   .     S
C410   C411    1.386   .     A
C411   C863    1.390   .     S
C412   C416    1.418   .     A
C412   C863    1.417   .     S
C412   C867    1.423   .     S
C413   H439    1.076   .     S
C413   C861    1.390   1_554 S
C413   C862    1.417   1_554 S
C414   H431    1.107   .     S
C414   H432    1.077   .     S
C414   C315    1.520   1_655 S
C414   N342    1.459   1_655 S
C415   H428    1.108   .     S
C415   H429    1.104   .     S
C415   H430    1.112   .     S
C416   C420    1.413   .     A
C417   C418    1.419   .     A
C417   C421    1.401   .     A
C417   C862    1.423   1_554 S
C418   C869    1.392   1_554 S
C419   C420    1.388   .     A
C419   H435    1.084   .     S
C419   C868    1.392   .     S
C420   H426    1.080   .     S
C421   H437    1.072   .     S
C422   H425    1.083   .     S
Cu423  Cu424   2.719   .     S
Cu423  O445    1.952   .     S
Cu423  O447    1.953   .     S
Cu423  O443    1.959   .     S
Cu423  N442    2.043   .     S
Cu423  O449    1.942   .     S
Cu424  O446    1.942   .     S
Cu424  N441    2.043   .     S
Cu424  O450    1.952   .     S
Cu424  O444    1.953   .     S
Cu424  O448    1.959   .     S
H433   C105    1.088   1_565 S
H440   C311    1.083   1_655 S
N441   H334    1.029   1_655 S
N441   N342    1.285   1_655 S
C451   O494    1.296   .     A
C451   O493    1.300   .     A
C451   C453    1.429   .     S
C452   C466    1.421   .     A
C452   C454    1.473   .     S
C452   C460    1.403   .     A
C453   C605    1.328   .     S
C453   H627    1.083   .     S
C454   O496    1.307   .     A
C454   O495    1.311   .     A
C455   C456    1.431   .     S
C455   C753    1.328   1_545 S
C455   H783    1.088   1_545 S
C456   O498    1.302   .     A
C456   O497    1.295   .     A
C457   O499    1.308   .     A
C457   C459    1.464   .     S
C457   O500    1.306   .     A
C458   C472    1.393   .     A
C458   C468    1.404   .     A
C458   H536    1.084   .     S
C459   C471    1.394   .     A
C459   C472    1.400   .     A
C460   H488    1.083   .     S
C460   C461    1.386   .     A
C461   C13     1.390   1_556 S
C461   H590    1.083   1_455 S
C462   C466    1.418   .     A
C462   C13     1.417   1_556 S
C462   C17     1.423   1_556 S
C463   H489    1.076   .     S
C464   H481    1.107   .     S
C464   H482    1.077   .     S
C464   C515    1.520   .     S
C464   N542    1.459   .     S
C465   H478    1.108   .     S
C465   H479    1.104   .     S
C465   H480    1.112   .     S
C465   C564    1.520   1_455 S
C466   C470    1.413   .     A
C467   C468    1.419   .     A
C467   C471    1.401   .     A
C469   C470    1.388   .     A
C469   H485    1.084   .     S
C469   C18     1.392   1_556 S
C470   H476    1.080   .     S
C471   H487    1.072   .     S
C472   H475    1.083   .     S
Cu473  Cu474   2.719   .     S
Cu473  O495    1.952   .     S
Cu473  O497    1.953   .     S
Cu473  O493    1.959   .     S
Cu473  N492    2.043   .     S
Cu473  O499    1.942   .     S
Cu474  O496    1.942   .     S
Cu474  N491    2.043   .     S
Cu474  O500    1.952   .     S
Cu474  O494    1.953   .     S
Cu474  O498    1.959   .     S
H477   C753    1.083   1_545 S
H483   C605    1.088   .     S
H484   N591    1.029   1_455 S
H486   C558    1.084   1_455 S
H490   C511    1.083   .     S
N491   H534    1.029   .     S
N491   N542    1.285   .     S
N492   N591    1.285   1_455 S
N492   C564    1.459   1_455 S
C501   O544    1.296   .     A
C501   O543    1.300   .     A
C501   C503    1.429   .     S
C502   C516    1.421   .     A
C502   C504    1.473   .     S
C502   C510    1.403   .     A
C503   C655    1.328   .     S
C503   H677    1.083   .     S
C504   O546    1.307   .     A
C504   O545    1.311   .     A
C505   C506    1.431   .     S
C505   C803    1.328   1_545 S
C505   H833    1.088   1_545 S
C506   O548    1.302   .     A
C506   O547    1.295   .     A
C507   O549    1.308   .     A
C507   C509    1.464   .     S
C507   O550    1.306   .     A
C508   C522    1.393   .     A
C508   C518    1.404   .     A
C508   H586    1.084   .     S
C509   C521    1.394   .     A
C509   C522    1.400   .     A
C510   H538    1.083   .     S
C510   C511    1.386   .     A
C511   C63     1.390   1_556 S
C512   C516    1.418   .     A
C512   C63     1.417   1_556 S
C512   C67     1.423   1_556 S
C513   H539    1.076   .     S
C514   H531    1.107   .     S
C514   H532    1.077   .     S
C514   C565    1.520   .     S
C514   N592    1.459   .     S
C515   H528    1.108   .     S
C515   H529    1.104   .     S
C515   H530    1.112   .     S
C516   C520    1.413   .     A
C517   C518    1.419   .     A
C517   C521    1.401   .     A
C519   C520    1.388   .     A
C519   H535    1.084   .     S
C519   C68     1.392   1_556 S
C520   H526    1.080   .     S
C521   H537    1.072   .     S
C522   H525    1.083   .     S
Cu523  Cu524   2.719   .     S
Cu523  O545    1.952   .     S
Cu523  O547    1.953   .     S
Cu523  O543    1.959   .     S
Cu523  N542    2.043   .     S
Cu523  O549    1.942   .     S
Cu524  O546    1.942   .     S
Cu524  N541    2.043   .     S
Cu524  O550    1.952   .     S
Cu524  O544    1.953   .     S
Cu524  O548    1.959   .     S
H527   C803    1.083   1_545 S
H533   C655    1.088   .     S
H540   C561    1.083   .     S
N541   H584    1.029   .     S
N541   N592    1.285   .     S
C551   O594    1.296   .     A
C551   O593    1.300   .     A
C551   C553    1.429   .     S
C552   C566    1.421   .     A
C552   C554    1.473   .     S
C552   C560    1.403   .     A
C553   C705    1.328   .     S
C553   H727    1.083   .     S
C554   O596    1.307   .     A
C554   O595    1.311   .     A
C555   C556    1.431   .     S
C555   C853    1.328   1_545 S
C555   H883    1.088   1_545 S
C556   O598    1.302   .     A
C556   O597    1.295   .     A
C557   O599    1.308   .     A
C557   C559    1.464   .     S
C557   O600    1.306   .     A
C558   C572    1.393   .     A
C558   C568    1.404   .     A
C558   H486    1.084   1_655 S
C559   C571    1.394   .     A
C559   C572    1.400   .     A
C560   H588    1.083   .     S
C560   C561    1.386   .     A
C561   C113    1.390   1_556 S
C562   C566    1.418   .     A
C562   C113    1.417   1_556 S
C562   C117    1.423   1_556 S
C563   H589    1.076   .     S
C564   H581    1.107   .     S
C564   H582    1.077   .     S
C564   C465    1.520   1_655 S
C564   N492    1.459   1_655 S
C565   H578    1.108   .     S
C565   H579    1.104   .     S
C565   H580    1.112   .     S
C566   C570    1.413   .     A
C567   C568    1.419   .     A
C567   C571    1.401   .     A
C569   C570    1.388   .     A
C569   H585    1.084   .     S
C569   C118    1.392   1_556 S
C570   H576    1.080   .     S
C571   H587    1.072   .     S
C572   H575    1.083   .     S
Cu573  Cu574   2.719   .     S
Cu573  O595    1.952   .     S
Cu573  O597    1.953   .     S
Cu573  O593    1.959   .     S
Cu573  N592    2.043   .     S
Cu573  O599    1.942   .     S
Cu574  O596    1.942   .     S
Cu574  N591    2.043   .     S
Cu574  O600    1.952   .     S
Cu574  O594    1.953   .     S
Cu574  O598    1.959   .     S
H577   C853    1.083   1_545 S
H583   C705    1.088   .     S
H590   C461    1.083   1_655 S
N591   H484    1.029   1_655 S
N591   N492    1.285   1_655 S
C601   O644    1.296   .     A
C601   O643    1.300   .     A
C601   C603    1.429   .     S
C602   C616    1.421   .     A
C602   C604    1.473   .     S
C602   C610    1.403   .     A
C603   C755    1.328   .     S
C603   H777    1.083   .     S
C604   O646    1.307   .     A
C604   O645    1.311   .     A
C605   C606    1.431   .     S
C606   O648    1.302   .     A
C606   O647    1.295   .     A
C607   O649    1.308   .     A
C607   C609    1.464   .     S
C607   O650    1.306   .     A
C608   C622    1.393   .     A
C608   C618    1.404   .     A
C608   H686    1.084   .     S
C609   C621    1.394   .     A
C609   C622    1.400   .     A
C610   H638    1.083   .     S
C610   C611    1.386   .     A
C611   C163    1.390   1_556 S
C611   H740    1.083   1_455 S
C612   C616    1.418   .     A
C612   C163    1.417   1_556 S
C612   C167    1.423   1_556 S
C613   H639    1.076   .     S
C614   H631    1.107   .     S
C614   H632    1.077   .     S
C614   C665    1.520   .     S
C614   N692    1.459   .     S
C615   H628    1.108   .     S
C615   H629    1.104   .     S
C615   H630    1.112   .     S
C615   C714    1.520   1_455 S
C616   C620    1.413   .     A
C617   C618    1.419   .     A
C617   C621    1.401   .     A
C619   C620    1.388   .     A
C619   H635    1.084   .     S
C619   C168    1.392   1_556 S
C620   H626    1.080   .     S
C621   H637    1.072   .     S
C622   H625    1.083   .     S
Cu623  Cu624   2.719   .     S
Cu623  O645    1.952   .     S
Cu623  O647    1.953   .     S
Cu623  O643    1.959   .     S
Cu623  N642    2.043   .     S
Cu623  O649    1.942   .     S
Cu624  O646    1.942   .     S
Cu624  N641    2.043   .     S
Cu624  O650    1.952   .     S
Cu624  O644    1.953   .     S
Cu624  O648    1.959   .     S
H633   C755    1.088   .     S
H634   N741    1.029   1_455 S
H636   C708    1.084   1_455 S
H640   C661    1.083   .     S
N641   H684    1.029   .     S
N641   N692    1.285   .     S
N642   N741    1.285   1_455 S
N642   C714    1.459   1_455 S
C651   O694    1.296   .     A
C651   O693    1.300   .     A
C651   C653    1.429   .     S
C652   C666    1.421   .     A
C652   C654    1.473   .     S
C652   C660    1.403   .     A
C653   C805    1.328   .     S
C653   H827    1.083   .     S
C654   O696    1.307   .     A
C654   O695    1.311   .     A
C655   C656    1.431   .     S
C656   O698    1.302   .     A
C656   O697    1.295   .     A
C657   O699    1.308   .     A
C657   C659    1.464   .     S
C657   O700    1.306   .     A
C658   C672    1.393   .     A
C658   C668    1.404   .     A
C658   H736    1.084   .     S
C659   C671    1.394   .     A
C659   C672    1.400   .     A
C660   H688    1.083   .     S
C660   C661    1.386   .     A
C661   C213    1.390   1_556 S
C662   C666    1.418   .     A
C662   C213    1.417   1_556 S
C662   C217    1.423   1_556 S
C663   H689    1.076   .     S
C664   H681    1.107   .     S
C664   H682    1.077   .     S
C664   C715    1.520   .     S
C664   N742    1.459   .     S
C665   H678    1.108   .     S
C665   H679    1.104   .     S
C665   H680    1.112   .     S
C666   C670    1.413   .     A
C667   C668    1.419   .     A
C667   C671    1.401   .     A
C669   C670    1.388   .     A
C669   H685    1.084   .     S
C669   C218    1.392   1_556 S
C670   H676    1.080   .     S
C671   H687    1.072   .     S
C672   H675    1.083   .     S
Cu673  Cu674   2.719   .     S
Cu673  O695    1.952   .     S
Cu673  O697    1.953   .     S
Cu673  O693    1.959   .     S
Cu673  N692    2.043   .     S
Cu673  O699    1.942   .     S
Cu674  O696    1.942   .     S
Cu674  N691    2.043   .     S
Cu674  O700    1.952   .     S
Cu674  O694    1.953   .     S
Cu674  O698    1.959   .     S
H683   C805    1.088   .     S
H690   C711    1.083   .     S
N691   H734    1.029   .     S
N691   N742    1.285   .     S
C701   O744    1.296   .     A
C701   O743    1.300   .     A
C701   C703    1.429   .     S
C702   C716    1.421   .     A
C702   C704    1.473   .     S
C702   C710    1.403   .     A
C703   C855    1.328   .     S
C703   H877    1.083   .     S
C704   O746    1.307   .     A
C704   O745    1.311   .     A
C705   C706    1.431   .     S
C706   O748    1.302   .     A
C706   O747    1.295   .     A
C707   O749    1.308   .     A
C707   C709    1.464   .     S
C707   O750    1.306   .     A
C708   C722    1.393   .     A
C708   C718    1.404   .     A
C708   H636    1.084   1_655 S
C709   C721    1.394   .     A
C709   C722    1.400   .     A
C710   H738    1.083   .     S
C710   C711    1.386   .     A
C711   C263    1.390   1_556 S
C712   C716    1.418   .     A
C712   C263    1.417   1_556 S
C712   C267    1.423   1_556 S
C713   H739    1.076   .     S
C714   H731    1.107   .     S
C714   H732    1.077   .     S
C714   C615    1.520   1_655 S
C714   N642    1.459   1_655 S
C715   H728    1.108   .     S
C715   H729    1.104   .     S
C715   H730    1.112   .     S
C716   C720    1.413   .     A
C717   C718    1.419   .     A
C717   C721    1.401   .     A
C719   C720    1.388   .     A
C719   H735    1.084   .     S
C719   C268    1.392   1_556 S
C720   H726    1.080   .     S
C721   H737    1.072   .     S
C722   H725    1.083   .     S
Cu723  Cu724   2.719   .     S
Cu723  O745    1.952   .     S
Cu723  O747    1.953   .     S
Cu723  O743    1.959   .     S
Cu723  N742    2.043   .     S
Cu723  O749    1.942   .     S
Cu724  O746    1.942   .     S
Cu724  N741    2.043   .     S
Cu724  O750    1.952   .     S
Cu724  O744    1.953   .     S
Cu724  O748    1.959   .     S
H733   C855    1.088   .     S
H740   C611    1.083   1_655 S
N741   H634    1.029   1_655 S
N741   N642    1.285   1_655 S
C751   O794    1.296   .     A
C751   O793    1.300   .     A
C751   C753    1.429   .     S
C752   C766    1.421   .     A
C752   C754    1.473   .     S
C752   C760    1.403   .     A
C753   C455    1.328   1_565 S
C753   H477    1.083   1_565 S
C754   O796    1.307   .     A
C754   O795    1.311   .     A
C755   C756    1.431   .     S
C756   O798    1.302   .     A
C756   O797    1.295   .     A
C757   O799    1.308   .     A
C757   C759    1.464   .     S
C757   O800    1.306   .     A
C758   C772    1.393   .     A
C758   C768    1.404   .     A
C758   H836    1.084   .     S
C759   C771    1.394   .     A
C759   C772    1.400   .     A
C760   H788    1.083   .     S
C760   C761    1.386   .     A
C761   C313    1.390   1_556 S
C761   H890    1.083   1_455 S
C762   C766    1.418   .     A
C762   C313    1.417   1_556 S
C762   C317    1.423   1_556 S
C763   H789    1.076   .     S
C764   H781    1.107   .     S
C764   H782    1.077   .     S
C764   C815    1.520   .     S
C764   N842    1.459   .     S
C765   H778    1.108   .     S
C765   H779    1.104   .     S
C765   H780    1.112   .     S
C765   C864    1.520   1_455 S
C766   C770    1.413   .     A
C767   C768    1.419   .     A
C767   C771    1.401   .     A
C769   C770    1.388   .     A
C769   H785    1.084   .     S
C769   C318    1.392   1_556 S
C770   H776    1.080   .     S
C771   H787    1.072   .     S
C772   H775    1.083   .     S
Cu773  Cu774   2.719   .     S
Cu773  O795    1.952   .     S
Cu773  O797    1.953   .     S
Cu773  O793    1.959   .     S
Cu773  N792    2.043   .     S
Cu773  O799    1.942   .     S
Cu774  O796    1.942   .     S
Cu774  N791    2.043   .     S
Cu774  O800    1.952   .     S
Cu774  O794    1.953   .     S
Cu774  O798    1.959   .     S
H783   C455    1.088   1_565 S
H784   N891    1.029   1_455 S
H786   C858    1.084   1_455 S
H790   C811    1.083   .     S
N791   H834    1.029   .     S
N791   N842    1.285   .     S
N792   N891    1.285   1_455 S
N792   C864    1.459   1_455 S
C801   O844    1.296   .     A
C801   O843    1.300   .     A
C801   C803    1.429   .     S
C802   C816    1.421   .     A
C802   C804    1.473   .     S
C802   C810    1.403   .     A
C803   C505    1.328   1_565 S
C803   H527    1.083   1_565 S
C804   O846    1.307   .     A
C804   O845    1.311   .     A
C805   C806    1.431   .     S
C806   O848    1.302   .     A
C806   O847    1.295   .     A
C807   O849    1.308   .     A
C807   C809    1.464   .     S
C807   O850    1.306   .     A
C808   C822    1.393   .     A
C808   C818    1.404   .     A
C808   H886    1.084   .     S
C809   C821    1.394   .     A
C809   C822    1.400   .     A
C810   H838    1.083   .     S
C810   C811    1.386   .     A
C811   C363    1.390   1_556 S
C812   C816    1.418   .     A
C812   C363    1.417   1_556 S
C812   C367    1.423   1_556 S
C813   H839    1.076   .     S
C814   H831    1.107   .     S
C814   H832    1.077   .     S
C814   C865    1.520   .     S
C814   N892    1.459   .     S
C815   H828    1.108   .     S
C815   H829    1.104   .     S
C815   H830    1.112   .     S
C816   C820    1.413   .     A
C817   C818    1.419   .     A
C817   C821    1.401   .     A
C819   C820    1.388   .     A
C819   H835    1.084   .     S
C819   C368    1.392   1_556 S
C820   H826    1.080   .     S
C821   H837    1.072   .     S
C822   H825    1.083   .     S
Cu823  Cu824   2.719   .     S
Cu823  O845    1.952   .     S
Cu823  O847    1.953   .     S
Cu823  O843    1.959   .     S
Cu823  N842    2.043   .     S
Cu823  O849    1.942   .     S
Cu824  O846    1.942   .     S
Cu824  N841    2.043   .     S
Cu824  O850    1.952   .     S
Cu824  O844    1.953   .     S
Cu824  O848    1.959   .     S
H833   C505    1.088   1_565 S
H840   C861    1.083   .     S
N841   H884    1.029   .     S
N841   N892    1.285   .     S
C851   O894    1.296   .     A
C851   O893    1.300   .     A
C851   C853    1.429   .     S
C852   C866    1.421   .     A
C852   C854    1.473   .     S
C852   C860    1.403   .     A
C853   C555    1.328   1_565 S
C853   H577    1.083   1_565 S
C854   O896    1.307   .     A
C854   O895    1.311   .     A
C855   C856    1.431   .     S
C856   O898    1.302   .     A
C856   O897    1.295   .     A
C857   O899    1.308   .     A
C857   C859    1.464   .     S
C857   O900    1.306   .     A
C858   C872    1.393   .     A
C858   C868    1.404   .     A
C858   H786    1.084   1_655 S
C859   C871    1.394   .     A
C859   C872    1.400   .     A
C860   H888    1.083   .     S
C860   C861    1.386   .     A
C861   C413    1.390   1_556 S
C862   C866    1.418   .     A
C862   C413    1.417   1_556 S
C862   C417    1.423   1_556 S
C863   H889    1.076   .     S
C864   H881    1.107   .     S
C864   H882    1.077   .     S
C864   C765    1.520   1_655 S
C864   N792    1.459   1_655 S
C865   H878    1.108   .     S
C865   H879    1.104   .     S
C865   H880    1.112   .     S
C866   C870    1.413   .     A
C867   C868    1.419   .     A
C867   C871    1.401   .     A
C869   C870    1.388   .     A
C869   H885    1.084   .     S
C869   C418    1.392   1_556 S
C870   H876    1.080   .     S
C871   H887    1.072   .     S
C872   H875    1.083   .     S
Cu873  Cu874   2.719   .     S
Cu873  O895    1.952   .     S
Cu873  O897    1.953   .     S
Cu873  O893    1.959   .     S
Cu873  N892    2.043   .     S
Cu873  O899    1.942   .     S
Cu874  O896    1.942   .     S
Cu874  N891    2.043   .     S
Cu874  O900    1.952   .     S
Cu874  O894    1.953   .     S
Cu874  O898    1.959   .     S
H883   C555    1.088   1_565 S
H890   C761    1.083   1_655 S
N891   H784    1.029   1_655 S
N891   N792    1.285   1_655 S
