data_str_m2_o2_o10_pcu_sym.99
_audit_creation_date              2020-01-03
_audit_creation_method            'Materials Studio'
_symmetry_space_group_name_H-M    'P1'
_symmetry_Int_Tables_number       1
_symmetry_cell_setting            triclinic
loop_
_symmetry_equiv_pos_as_xyz
  x,y,z
_cell_length_a                    26.2898
_cell_length_b                    30.2523
_cell_length_c                    27.7627
_cell_angle_alpha                 89.8845
_cell_angle_beta                  97.8396
_cell_angle_gamma                 90.1274
loop_
_atom_site_label
_atom_site_type_symbol
_atom_site_fract_x
_atom_site_fract_y
_atom_site_fract_z
_atom_site_U_iso_or_equiv
_atom_site_adp_type
_atom_site_occupancy
C1     C     0.16706   0.16514   0.25004   0.00000  Uiso   1.00
C2     C     0.13182   0.27797   0.44103   0.00000  Uiso   1.00
C3     C     0.16520   0.24974   0.02685   0.00000  Uiso   1.00
C4     C     0.16564   0.25083   0.47245   0.00000  Uiso   1.00
C5     C     0.06803   0.25042   0.23766   0.00000  Uiso   1.00
C6     C     0.26529   0.25073   0.26231   0.00000  Uiso   1.00
C7     C     0.01300   0.24979   0.23077   0.00000  Uiso   1.00
C8     C     0.32024   0.25313   0.26904   0.00000  Uiso   1.00
C9     C     0.20826   0.04664   0.26682   0.00000  Uiso   1.00
C10    C     0.13525   0.45266   0.21079   0.00000  Uiso   1.00
C11    C     0.21044   0.09266   0.26799   0.00000  Uiso   1.00
C12    C     0.16528   0.33500   0.24988   0.00000  Uiso   1.00
C13    C     0.13405   0.40656   0.21105   0.00000  Uiso   1.00
C14    C     0.16656   0.11712   0.24977   0.00000  Uiso   1.00
C15    C     0.16223   0.38330   0.24990   0.00000  Uiso   1.00
C16    C     0.12115   0.09539   0.23121   0.00000  Uiso   1.00
C17    C     0.18689   0.40649   0.29004   0.00000  Uiso   1.00
C18    C     0.11836   0.04949   0.23244   0.00000  Uiso   1.00
C19    C     0.18542   0.45236   0.29099   0.00000  Uiso   1.00
C20    C     0.16221   0.02465   0.24999   0.00000  Uiso   1.00
C21    C     0.16082   0.47594   0.25067   0.00000  Uiso   1.00
C22    C     0.25884   0.11400   0.28884   0.00000  Uiso   1.00
C23    C     0.18590   0.28538   0.05562   0.00000  Uiso   1.00
C24    C     0.29381   0.12910   0.25861   0.00000  Uiso   1.00
C25    C     0.00735   0.14743   0.27904   0.00000  Uiso   1.00
C26    C     0.01905   0.15155   0.32947   0.00000  Uiso   1.00
C27    C     0.31746   0.13667   0.35962   0.00000  Uiso   1.00
C28    C     0.27111   0.11738   0.33944   0.00000  Uiso   1.00
C29    C     0.09846   0.38342   0.17380   0.00000  Uiso   1.00
C30    C     0.11230   0.37489   0.12777   0.00000  Uiso   1.00
C31    C     0.08043   0.34892   0.09471   0.00000  Uiso   1.00
C32    C     0.03391   0.33272   0.10676   0.00000  Uiso   1.00
C33    C     0.01921   0.34243   0.15202   0.00000  Uiso   1.00
C34    C     0.20041   0.22434   0.45112   0.00000  Uiso   1.00
C35    C     0.05163   0.36728   0.18573   0.00000  Uiso   1.00
C36    C     0.13848   0.16880   0.02698   0.00000  Uiso   1.00
C37    C     0.10631   0.16393   0.48247   0.00000  Uiso   1.00
C38    C     0.10143   0.12283   0.45925   0.00000  Uiso   1.00
C39    C     0.12751   0.08606   0.48053   0.00000  Uiso   1.00
C40    C     0.15895   0.09029   0.02499   0.00000  Uiso   1.00
C41    C     0.16465   0.13138   0.04799   0.00000  Uiso   1.00
C42    C     0.09355   0.30717   0.45895   0.00000  Uiso   1.00
C43    C     0.04666   0.28988   0.46944   0.00000  Uiso   1.00
C44    C     0.00743   0.31826   0.47920   0.00000  Uiso   1.00
C45    C     0.18829   0.28403   0.10665   0.00000  Uiso   1.00
C46    C     0.01484   0.36402   0.47886   0.00000  Uiso   1.00
C47    C     0.06150   0.38147   0.46869   0.00000  Uiso   1.00
C48    C     0.10068   0.35319   0.45852   0.00000  Uiso   1.00
C49    C     0.20012   0.22426   0.40036   0.00000  Uiso   1.00
C50    C     0.14545   0.21525   0.10202   0.00000  Uiso   1.00
C51    C     0.13349   0.27699   0.39031   0.00000  Uiso   1.00
C52    C     0.14782   0.21252   0.05132   0.00000  Uiso   1.00
Cu53   Cu    0.16667   0.24999   0.29821   0.00000  Uiso   1.00
Cu54   Cu    0.16667   0.25000   0.20178   0.00000  Uiso   1.00
F55    F     0.32246   0.24377   0.18449   0.00000  Uiso   1.00
F56    F     0.10141   0.30336   0.36055   0.00000  Uiso   1.00
F57    F     0.01074   0.25870   0.31538   0.00000  Uiso   1.00
F58    F     0.07248   0.02968   0.21781   0.00000  Uiso   1.00
F59    F     0.20743   0.47354   0.33167   0.00000  Uiso   1.00
F60    F     0.20623   0.32060   0.03455   0.00000  Uiso   1.00
F61    F     0.23469   0.19857   0.47939   0.00000  Uiso   1.00
F62    F     0.21290   0.31709   0.13321   0.00000  Uiso   1.00
F63    F     0.23396   0.19851   0.38094   0.00000  Uiso   1.00
F64    F     0.12180   0.18230   0.12365   0.00000  Uiso   1.00
H65    H     0.24277   0.02800   0.27911   0.00000  Uiso   1.00
H66    H     0.14843   0.38697   0.11823   0.00000  Uiso   1.00
H67    H     0.09231   0.34079   0.06013   0.00000  Uiso   1.00
H68    H     0.00936   0.31245   0.08126   0.00000  Uiso   1.00
H69    H     0.31647   0.33010   0.16132   0.00000  Uiso   1.00
H70    H     0.04062   0.37351   0.22130   0.00000  Uiso   1.00
H71    H     0.08562   0.19175   0.46526   0.00000  Uiso   1.00
H72    H     0.07779   0.11941   0.42450   0.00000  Uiso   1.00
H73    H     0.12355   0.05433   0.46244   0.00000  Uiso   1.00
H74    H     0.17941   0.06183   0.04141   0.00000  Uiso   1.00
H75    H     0.19029   0.13415   0.08187   0.00000  Uiso   1.00
H76    H     0.11551   0.47021   0.17970   0.00000  Uiso   1.00
H77    H     0.03966   0.25468   0.46853   0.00000  Uiso   1.00
H78    H     0.30450   0.30477   0.48676   0.00000  Uiso   1.00
H79    H     0.31778   0.38592   0.48650   0.00000  Uiso   1.00
H80    H     0.06714   0.41691   0.46825   0.00000  Uiso   1.00
H81    H     0.13615   0.36710   0.44939   0.00000  Uiso   1.00
H82    H     0.08745   0.11406   0.21665   0.00000  Uiso   1.00
H83    H     0.20729   0.38902   0.32088   0.00000  Uiso   1.00
H84    H     0.28498   0.12634   0.21947   0.00000  Uiso   1.00
H85    H     0.03429   0.15911   0.25579   0.00000  Uiso   1.00
H86    H     0.05500   0.16647   0.34508   0.00000  Uiso   1.00
H87    H     0.32597   0.14029   0.39864   0.00000  Uiso   1.00
H88    H     0.24451   0.10556   0.36315   0.00000  Uiso   1.00
N89    N     0.16667   0.25001   0.12934   0.00000  Uiso   1.00
N90    N     0.16667   0.24999   0.37065   0.00000  Uiso   1.00
O91    O     0.16667   0.18572   0.29071   0.00000  Uiso   1.00
O92    O     0.16666   0.31427   0.20928   0.00000  Uiso   1.00
O93    O     0.16667   0.18573   0.20928   0.00000  Uiso   1.00
O94    O     0.16666   0.31427   0.29072   0.00000  Uiso   1.00
O95    O     0.09161   0.24999   0.28132   0.00000  Uiso   1.00
O96    O     0.24172   0.25000   0.21868   0.00000  Uiso   1.00
O97    O     0.09161   0.25000   0.19988   0.00000  Uiso   1.00
O98    O     0.24172   0.25000   0.30011   0.00000  Uiso   1.00
C99    C     0.50039   0.16514   0.25004   0.00000  Uiso   1.00
C100   C     0.46515   0.27797   0.44103   0.00000  Uiso   1.00
C101   C     0.49854   0.24974   0.02685   0.00000  Uiso   1.00
C102   C     0.49897   0.25083   0.47245   0.00000  Uiso   1.00
C103   C     0.40136   0.25042   0.23766   0.00000  Uiso   1.00
C104   C     0.59862   0.25073   0.26231   0.00000  Uiso   1.00
C105   C     0.34633   0.24979   0.23077   0.00000  Uiso   1.00
C106   C     0.65357   0.25313   0.26904   0.00000  Uiso   1.00
C107   C     0.54159   0.04664   0.26682   0.00000  Uiso   1.00
C108   C     0.46859   0.45266   0.21079   0.00000  Uiso   1.00
C109   C     0.54377   0.09266   0.26799   0.00000  Uiso   1.00
C110   C     0.49861   0.33500   0.24988   0.00000  Uiso   1.00
C111   C     0.46738   0.40656   0.21105   0.00000  Uiso   1.00
C112   C     0.49990   0.11712   0.24977   0.00000  Uiso   1.00
C113   C     0.49556   0.38330   0.24990   0.00000  Uiso   1.00
C114   C     0.45448   0.09539   0.23121   0.00000  Uiso   1.00
C115   C     0.52022   0.40649   0.29004   0.00000  Uiso   1.00
C116   C     0.45169   0.04949   0.23244   0.00000  Uiso   1.00
C117   C     0.51875   0.45236   0.29099   0.00000  Uiso   1.00
C118   C     0.49554   0.02465   0.24999   0.00000  Uiso   1.00
C119   C     0.49416   0.47594   0.25067   0.00000  Uiso   1.00
C120   C     0.59218   0.11400   0.28884   0.00000  Uiso   1.00
C121   C     0.51923   0.28538   0.05562   0.00000  Uiso   1.00
C122   C     0.62715   0.12910   0.25861   0.00000  Uiso   1.00
C123   C     0.34068   0.14743   0.27904   0.00000  Uiso   1.00
C124   C     0.35238   0.15155   0.32947   0.00000  Uiso   1.00
C125   C     0.65079   0.13667   0.35962   0.00000  Uiso   1.00
C126   C     0.60444   0.11738   0.33944   0.00000  Uiso   1.00
C127   C     0.43179   0.38342   0.17380   0.00000  Uiso   1.00
C128   C     0.44563   0.37489   0.12777   0.00000  Uiso   1.00
C129   C     0.41376   0.34892   0.09471   0.00000  Uiso   1.00
C130   C     0.36725   0.33272   0.10676   0.00000  Uiso   1.00
C131   C     0.35255   0.34243   0.15202   0.00000  Uiso   1.00
C132   C     0.53375   0.22434   0.45112   0.00000  Uiso   1.00
C133   C     0.38497   0.36728   0.18573   0.00000  Uiso   1.00
C134   C     0.47181   0.16880   0.02698   0.00000  Uiso   1.00
C135   C     0.43965   0.16393   0.48247   0.00000  Uiso   1.00
C136   C     0.43476   0.12283   0.45925   0.00000  Uiso   1.00
C137   C     0.46085   0.08606   0.48053   0.00000  Uiso   1.00
C138   C     0.49229   0.09029   0.02499   0.00000  Uiso   1.00
C139   C     0.49798   0.13138   0.04799   0.00000  Uiso   1.00
C140   C     0.42689   0.30717   0.45895   0.00000  Uiso   1.00
C141   C     0.38000   0.28988   0.46944   0.00000  Uiso   1.00
C142   C     0.34077   0.31826   0.47920   0.00000  Uiso   1.00
C143   C     0.52163   0.28403   0.10665   0.00000  Uiso   1.00
C144   C     0.34817   0.36402   0.47886   0.00000  Uiso   1.00
C145   C     0.39483   0.38147   0.46869   0.00000  Uiso   1.00
C146   C     0.43401   0.35319   0.45852   0.00000  Uiso   1.00
C147   C     0.53345   0.22426   0.40036   0.00000  Uiso   1.00
C148   C     0.47878   0.21525   0.10202   0.00000  Uiso   1.00
C149   C     0.46682   0.27699   0.39031   0.00000  Uiso   1.00
C150   C     0.48115   0.21252   0.05132   0.00000  Uiso   1.00
Cu151  Cu    0.50000   0.24999   0.29821   0.00000  Uiso   1.00
Cu152  Cu    0.50000   0.25000   0.20178   0.00000  Uiso   1.00
F153   F     0.65579   0.24377   0.18449   0.00000  Uiso   1.00
F154   F     0.43475   0.30336   0.36055   0.00000  Uiso   1.00
F155   F     0.34408   0.25870   0.31538   0.00000  Uiso   1.00
F156   F     0.40582   0.02968   0.21781   0.00000  Uiso   1.00
F157   F     0.54076   0.47354   0.33167   0.00000  Uiso   1.00
F158   F     0.53956   0.32060   0.03455   0.00000  Uiso   1.00
F159   F     0.56802   0.19857   0.47939   0.00000  Uiso   1.00
F160   F     0.54623   0.31709   0.13321   0.00000  Uiso   1.00
F161   F     0.56730   0.19851   0.38094   0.00000  Uiso   1.00
F162   F     0.45514   0.18230   0.12365   0.00000  Uiso   1.00
H163   H     0.57611   0.02800   0.27911   0.00000  Uiso   1.00
H164   H     0.48176   0.38697   0.11823   0.00000  Uiso   1.00
H165   H     0.42565   0.34079   0.06013   0.00000  Uiso   1.00
H166   H     0.34269   0.31245   0.08126   0.00000  Uiso   1.00
H167   H     0.64980   0.33010   0.16132   0.00000  Uiso   1.00
H168   H     0.37395   0.37351   0.22130   0.00000  Uiso   1.00
H169   H     0.41895   0.19175   0.46526   0.00000  Uiso   1.00
H170   H     0.41113   0.11941   0.42450   0.00000  Uiso   1.00
H171   H     0.45688   0.05433   0.46244   0.00000  Uiso   1.00
H172   H     0.51274   0.06183   0.04141   0.00000  Uiso   1.00
H173   H     0.52363   0.13415   0.08187   0.00000  Uiso   1.00
H174   H     0.44885   0.47021   0.17970   0.00000  Uiso   1.00
H175   H     0.37299   0.25468   0.46853   0.00000  Uiso   1.00
H176   H     0.63783   0.30477   0.48676   0.00000  Uiso   1.00
H177   H     0.65112   0.38592   0.48650   0.00000  Uiso   1.00
H178   H     0.40048   0.41691   0.46825   0.00000  Uiso   1.00
H179   H     0.46949   0.36710   0.44939   0.00000  Uiso   1.00
H180   H     0.42079   0.11406   0.21665   0.00000  Uiso   1.00
H181   H     0.54063   0.38902   0.32088   0.00000  Uiso   1.00
H182   H     0.61832   0.12634   0.21947   0.00000  Uiso   1.00
H183   H     0.36762   0.15911   0.25579   0.00000  Uiso   1.00
H184   H     0.38834   0.16647   0.34508   0.00000  Uiso   1.00
H185   H     0.65930   0.14029   0.39864   0.00000  Uiso   1.00
H186   H     0.57784   0.10556   0.36315   0.00000  Uiso   1.00
N187   N     0.50000   0.25001   0.12934   0.00000  Uiso   1.00
N188   N     0.50000   0.24999   0.37065   0.00000  Uiso   1.00
O189   O     0.50000   0.18572   0.29071   0.00000  Uiso   1.00
O190   O     0.50000   0.31427   0.20928   0.00000  Uiso   1.00
O191   O     0.50000   0.18573   0.20928   0.00000  Uiso   1.00
O192   O     0.50000   0.31427   0.29072   0.00000  Uiso   1.00
O193   O     0.42495   0.24999   0.28132   0.00000  Uiso   1.00
O194   O     0.57505   0.25000   0.21868   0.00000  Uiso   1.00
O195   O     0.42495   0.25000   0.19988   0.00000  Uiso   1.00
O196   O     0.57505   0.25000   0.30011   0.00000  Uiso   1.00
C197   C     0.83372   0.16514   0.25004   0.00000  Uiso   1.00
C198   C     0.79848   0.27797   0.44103   0.00000  Uiso   1.00
C199   C     0.83187   0.24974   0.02685   0.00000  Uiso   1.00
C200   C     0.83230   0.25083   0.47245   0.00000  Uiso   1.00
C201   C     0.73469   0.25042   0.23766   0.00000  Uiso   1.00
C202   C     0.93196   0.25073   0.26231   0.00000  Uiso   1.00
C203   C     0.67967   0.24979   0.23077   0.00000  Uiso   1.00
C204   C     0.98690   0.25313   0.26904   0.00000  Uiso   1.00
C205   C     0.87493   0.04664   0.26682   0.00000  Uiso   1.00
C206   C     0.80192   0.45266   0.21079   0.00000  Uiso   1.00
C207   C     0.87710   0.09266   0.26799   0.00000  Uiso   1.00
C208   C     0.83194   0.33500   0.24988   0.00000  Uiso   1.00
C209   C     0.80071   0.40656   0.21105   0.00000  Uiso   1.00
C210   C     0.83323   0.11712   0.24977   0.00000  Uiso   1.00
C211   C     0.82890   0.38330   0.24990   0.00000  Uiso   1.00
C212   C     0.78781   0.09539   0.23121   0.00000  Uiso   1.00
C213   C     0.85356   0.40649   0.29004   0.00000  Uiso   1.00
C214   C     0.78502   0.04949   0.23244   0.00000  Uiso   1.00
C215   C     0.85209   0.45236   0.29099   0.00000  Uiso   1.00
C216   C     0.82888   0.02465   0.24999   0.00000  Uiso   1.00
C217   C     0.82749   0.47594   0.25067   0.00000  Uiso   1.00
C218   C     0.92551   0.11400   0.28884   0.00000  Uiso   1.00
C219   C     0.85257   0.28538   0.05562   0.00000  Uiso   1.00
C220   C     0.96048   0.12910   0.25861   0.00000  Uiso   1.00
C221   C     0.67402   0.14743   0.27904   0.00000  Uiso   1.00
C222   C     0.68572   0.15155   0.32947   0.00000  Uiso   1.00
C223   C     0.98413   0.13667   0.35962   0.00000  Uiso   1.00
C224   C     0.93777   0.11738   0.33944   0.00000  Uiso   1.00
C225   C     0.76512   0.38342   0.17380   0.00000  Uiso   1.00
C226   C     0.77896   0.37489   0.12777   0.00000  Uiso   1.00
C227   C     0.74710   0.34892   0.09471   0.00000  Uiso   1.00
C228   C     0.70058   0.33272   0.10676   0.00000  Uiso   1.00
C229   C     0.68588   0.34243   0.15202   0.00000  Uiso   1.00
C230   C     0.86708   0.22434   0.45112   0.00000  Uiso   1.00
C231   C     0.71830   0.36728   0.18573   0.00000  Uiso   1.00
C232   C     0.80514   0.16880   0.02698   0.00000  Uiso   1.00
C233   C     0.77298   0.16393   0.48247   0.00000  Uiso   1.00
C234   C     0.76809   0.12283   0.45925   0.00000  Uiso   1.00
C235   C     0.79418   0.08606   0.48053   0.00000  Uiso   1.00
C236   C     0.82562   0.09029   0.02499   0.00000  Uiso   1.00
C237   C     0.83131   0.13138   0.04799   0.00000  Uiso   1.00
C238   C     0.76022   0.30717   0.45895   0.00000  Uiso   1.00
C239   C     0.71333   0.28988   0.46944   0.00000  Uiso   1.00
C240   C     0.67410   0.31826   0.47920   0.00000  Uiso   1.00
C241   C     0.85496   0.28403   0.10665   0.00000  Uiso   1.00
C242   C     0.68150   0.36402   0.47886   0.00000  Uiso   1.00
C243   C     0.72817   0.38147   0.46869   0.00000  Uiso   1.00
C244   C     0.76734   0.35319   0.45852   0.00000  Uiso   1.00
C245   C     0.86679   0.22426   0.40036   0.00000  Uiso   1.00
C246   C     0.81211   0.21525   0.10202   0.00000  Uiso   1.00
C247   C     0.80015   0.27699   0.39031   0.00000  Uiso   1.00
C248   C     0.81449   0.21252   0.05132   0.00000  Uiso   1.00
Cu249  Cu    0.83333   0.24999   0.29821   0.00000  Uiso   1.00
Cu250  Cu    0.83333   0.25000   0.20178   0.00000  Uiso   1.00
F251   F     0.98913   0.24377   0.18449   0.00000  Uiso   1.00
F252   F     0.76808   0.30336   0.36055   0.00000  Uiso   1.00
F253   F     0.67741   0.25870   0.31538   0.00000  Uiso   1.00
F254   F     0.73915   0.02968   0.21781   0.00000  Uiso   1.00
F255   F     0.87410   0.47354   0.33167   0.00000  Uiso   1.00
F256   F     0.87290   0.32060   0.03455   0.00000  Uiso   1.00
F257   F     0.90135   0.19857   0.47939   0.00000  Uiso   1.00
F258   F     0.87957   0.31709   0.13321   0.00000  Uiso   1.00
F259   F     0.90063   0.19851   0.38094   0.00000  Uiso   1.00
F260   F     0.78847   0.18230   0.12365   0.00000  Uiso   1.00
H261   H     0.90944   0.02800   0.27911   0.00000  Uiso   1.00
H262   H     0.81510   0.38697   0.11823   0.00000  Uiso   1.00
H263   H     0.75898   0.34079   0.06013   0.00000  Uiso   1.00
H264   H     0.67603   0.31245   0.08126   0.00000  Uiso   1.00
H265   H     0.98314   0.33010   0.16132   0.00000  Uiso   1.00
H266   H     0.70728   0.37351   0.22130   0.00000  Uiso   1.00
H267   H     0.75228   0.19175   0.46526   0.00000  Uiso   1.00
H268   H     0.74446   0.11941   0.42450   0.00000  Uiso   1.00
H269   H     0.79022   0.05433   0.46244   0.00000  Uiso   1.00
H270   H     0.84607   0.06183   0.04141   0.00000  Uiso   1.00
H271   H     0.85696   0.13415   0.08187   0.00000  Uiso   1.00
H272   H     0.78218   0.47021   0.17970   0.00000  Uiso   1.00
H273   H     0.70633   0.25468   0.46853   0.00000  Uiso   1.00
H274   H     0.97116   0.30477   0.48676   0.00000  Uiso   1.00
H275   H     0.98445   0.38592   0.48650   0.00000  Uiso   1.00
H276   H     0.73381   0.41691   0.46825   0.00000  Uiso   1.00
H277   H     0.80282   0.36710   0.44939   0.00000  Uiso   1.00
H278   H     0.75412   0.11406   0.21665   0.00000  Uiso   1.00
H279   H     0.87396   0.38902   0.32088   0.00000  Uiso   1.00
H280   H     0.95165   0.12634   0.21947   0.00000  Uiso   1.00
H281   H     0.70096   0.15911   0.25579   0.00000  Uiso   1.00
H282   H     0.72167   0.16647   0.34508   0.00000  Uiso   1.00
H283   H     0.99264   0.14029   0.39864   0.00000  Uiso   1.00
H284   H     0.91118   0.10556   0.36315   0.00000  Uiso   1.00
N285   N     0.83333   0.25001   0.12934   0.00000  Uiso   1.00
N286   N     0.83333   0.24999   0.37065   0.00000  Uiso   1.00
O287   O     0.83334   0.18572   0.29071   0.00000  Uiso   1.00
O288   O     0.83333   0.31427   0.20928   0.00000  Uiso   1.00
O289   O     0.83334   0.18573   0.20928   0.00000  Uiso   1.00
O290   O     0.83333   0.31427   0.29072   0.00000  Uiso   1.00
O291   O     0.75828   0.24999   0.28132   0.00000  Uiso   1.00
O292   O     0.90839   0.25000   0.21868   0.00000  Uiso   1.00
O293   O     0.75828   0.25000   0.19988   0.00000  Uiso   1.00
O294   O     0.90839   0.25000   0.30011   0.00000  Uiso   1.00
C295   C     0.16706   0.66514   0.25004   0.00000  Uiso   1.00
C296   C     0.13182   0.77797   0.44103   0.00000  Uiso   1.00
C297   C     0.16520   0.74974   0.02685   0.00000  Uiso   1.00
C298   C     0.16564   0.75083   0.47245   0.00000  Uiso   1.00
C299   C     0.06803   0.75042   0.23766   0.00000  Uiso   1.00
C300   C     0.26529   0.75073   0.26231   0.00000  Uiso   1.00
C301   C     0.01300   0.74979   0.23077   0.00000  Uiso   1.00
C302   C     0.32024   0.75313   0.26904   0.00000  Uiso   1.00
C303   C     0.20826   0.54664   0.26682   0.00000  Uiso   1.00
C304   C     0.13525   0.95266   0.21079   0.00000  Uiso   1.00
C305   C     0.21044   0.59266   0.26799   0.00000  Uiso   1.00
C306   C     0.16528   0.83500   0.24988   0.00000  Uiso   1.00
C307   C     0.13405   0.90656   0.21105   0.00000  Uiso   1.00
C308   C     0.16656   0.61712   0.24977   0.00000  Uiso   1.00
C309   C     0.16223   0.88330   0.24990   0.00000  Uiso   1.00
C310   C     0.12115   0.59539   0.23121   0.00000  Uiso   1.00
C311   C     0.18689   0.90649   0.29004   0.00000  Uiso   1.00
C312   C     0.11836   0.54949   0.23244   0.00000  Uiso   1.00
C313   C     0.18542   0.95236   0.29099   0.00000  Uiso   1.00
C314   C     0.16221   0.52465   0.24999   0.00000  Uiso   1.00
C315   C     0.16082   0.97594   0.25067   0.00000  Uiso   1.00
C316   C     0.25884   0.61400   0.28884   0.00000  Uiso   1.00
C317   C     0.18590   0.78538   0.05562   0.00000  Uiso   1.00
C318   C     0.29381   0.62910   0.25861   0.00000  Uiso   1.00
C319   C     0.00735   0.64743   0.27904   0.00000  Uiso   1.00
C320   C     0.01905   0.65155   0.32947   0.00000  Uiso   1.00
C321   C     0.31746   0.63667   0.35962   0.00000  Uiso   1.00
C322   C     0.27111   0.61738   0.33944   0.00000  Uiso   1.00
C323   C     0.09846   0.88342   0.17380   0.00000  Uiso   1.00
C324   C     0.11230   0.87489   0.12777   0.00000  Uiso   1.00
C325   C     0.08043   0.84892   0.09471   0.00000  Uiso   1.00
C326   C     0.03391   0.83272   0.10676   0.00000  Uiso   1.00
C327   C     0.01921   0.84243   0.15202   0.00000  Uiso   1.00
C328   C     0.20041   0.72434   0.45112   0.00000  Uiso   1.00
C329   C     0.05163   0.86728   0.18573   0.00000  Uiso   1.00
C330   C     0.13848   0.66880   0.02698   0.00000  Uiso   1.00
C331   C     0.10631   0.66393   0.48247   0.00000  Uiso   1.00
C332   C     0.10143   0.62283   0.45925   0.00000  Uiso   1.00
C333   C     0.12751   0.58606   0.48053   0.00000  Uiso   1.00
C334   C     0.15895   0.59029   0.02499   0.00000  Uiso   1.00
C335   C     0.16465   0.63138   0.04799   0.00000  Uiso   1.00
C336   C     0.09355   0.80717   0.45895   0.00000  Uiso   1.00
C337   C     0.04666   0.78988   0.46944   0.00000  Uiso   1.00
C338   C     0.00743   0.81826   0.47920   0.00000  Uiso   1.00
C339   C     0.18829   0.78403   0.10665   0.00000  Uiso   1.00
C340   C     0.01484   0.86402   0.47886   0.00000  Uiso   1.00
C341   C     0.06150   0.88147   0.46869   0.00000  Uiso   1.00
C342   C     0.10068   0.85319   0.45852   0.00000  Uiso   1.00
C343   C     0.20012   0.72426   0.40036   0.00000  Uiso   1.00
C344   C     0.14545   0.71525   0.10202   0.00000  Uiso   1.00
C345   C     0.13349   0.77699   0.39031   0.00000  Uiso   1.00
C346   C     0.14782   0.71252   0.05132   0.00000  Uiso   1.00
Cu347  Cu    0.16667   0.74999   0.29821   0.00000  Uiso   1.00
Cu348  Cu    0.16667   0.75000   0.20178   0.00000  Uiso   1.00
F349   F     0.32246   0.74377   0.18449   0.00000  Uiso   1.00
F350   F     0.10141   0.80336   0.36055   0.00000  Uiso   1.00
F351   F     0.01074   0.75870   0.31538   0.00000  Uiso   1.00
F352   F     0.07248   0.52968   0.21781   0.00000  Uiso   1.00
F353   F     0.20743   0.97354   0.33167   0.00000  Uiso   1.00
F354   F     0.20623   0.82060   0.03455   0.00000  Uiso   1.00
F355   F     0.23469   0.69857   0.47939   0.00000  Uiso   1.00
F356   F     0.21290   0.81709   0.13321   0.00000  Uiso   1.00
F357   F     0.23396   0.69851   0.38094   0.00000  Uiso   1.00
F358   F     0.12180   0.68230   0.12365   0.00000  Uiso   1.00
H359   H     0.24277   0.52800   0.27911   0.00000  Uiso   1.00
H360   H     0.14843   0.88697   0.11823   0.00000  Uiso   1.00
H361   H     0.09231   0.84079   0.06013   0.00000  Uiso   1.00
H362   H     0.00936   0.81245   0.08126   0.00000  Uiso   1.00
H363   H     0.31647   0.83010   0.16132   0.00000  Uiso   1.00
H364   H     0.04062   0.87351   0.22130   0.00000  Uiso   1.00
H365   H     0.08562   0.69175   0.46526   0.00000  Uiso   1.00
H366   H     0.07779   0.61941   0.42450   0.00000  Uiso   1.00
H367   H     0.12355   0.55433   0.46244   0.00000  Uiso   1.00
H368   H     0.17941   0.56183   0.04141   0.00000  Uiso   1.00
H369   H     0.19029   0.63415   0.08187   0.00000  Uiso   1.00
H370   H     0.11551   0.97021   0.17970   0.00000  Uiso   1.00
H371   H     0.03966   0.75468   0.46853   0.00000  Uiso   1.00
H372   H     0.30450   0.80477   0.48676   0.00000  Uiso   1.00
H373   H     0.31778   0.88592   0.48650   0.00000  Uiso   1.00
H374   H     0.06714   0.91691   0.46825   0.00000  Uiso   1.00
H375   H     0.13615   0.86710   0.44939   0.00000  Uiso   1.00
H376   H     0.08745   0.61406   0.21665   0.00000  Uiso   1.00
H377   H     0.20729   0.88902   0.32088   0.00000  Uiso   1.00
H378   H     0.28498   0.62634   0.21947   0.00000  Uiso   1.00
H379   H     0.03429   0.65911   0.25579   0.00000  Uiso   1.00
H380   H     0.05500   0.66647   0.34508   0.00000  Uiso   1.00
H381   H     0.32597   0.64029   0.39864   0.00000  Uiso   1.00
H382   H     0.24451   0.60556   0.36315   0.00000  Uiso   1.00
N383   N     0.16667   0.75001   0.12934   0.00000  Uiso   1.00
N384   N     0.16667   0.74999   0.37065   0.00000  Uiso   1.00
O385   O     0.16667   0.68572   0.29071   0.00000  Uiso   1.00
O386   O     0.16666   0.81427   0.20928   0.00000  Uiso   1.00
O387   O     0.16667   0.68573   0.20928   0.00000  Uiso   1.00
O388   O     0.16666   0.81427   0.29072   0.00000  Uiso   1.00
O389   O     0.09161   0.74999   0.28132   0.00000  Uiso   1.00
O390   O     0.24172   0.75000   0.21868   0.00000  Uiso   1.00
O391   O     0.09161   0.75000   0.19988   0.00000  Uiso   1.00
O392   O     0.24172   0.75000   0.30011   0.00000  Uiso   1.00
C393   C     0.50039   0.66514   0.25004   0.00000  Uiso   1.00
C394   C     0.46515   0.77797   0.44103   0.00000  Uiso   1.00
C395   C     0.49854   0.74974   0.02685   0.00000  Uiso   1.00
C396   C     0.49897   0.75083   0.47245   0.00000  Uiso   1.00
C397   C     0.40136   0.75042   0.23766   0.00000  Uiso   1.00
C398   C     0.59862   0.75073   0.26231   0.00000  Uiso   1.00
C399   C     0.34633   0.74979   0.23077   0.00000  Uiso   1.00
C400   C     0.65357   0.75313   0.26904   0.00000  Uiso   1.00
C401   C     0.54159   0.54664   0.26682   0.00000  Uiso   1.00
C402   C     0.46859   0.95266   0.21079   0.00000  Uiso   1.00
C403   C     0.54377   0.59266   0.26799   0.00000  Uiso   1.00
C404   C     0.49861   0.83500   0.24988   0.00000  Uiso   1.00
C405   C     0.46738   0.90656   0.21105   0.00000  Uiso   1.00
C406   C     0.49990   0.61712   0.24977   0.00000  Uiso   1.00
C407   C     0.49556   0.88330   0.24990   0.00000  Uiso   1.00
C408   C     0.45448   0.59539   0.23121   0.00000  Uiso   1.00
C409   C     0.52022   0.90649   0.29004   0.00000  Uiso   1.00
C410   C     0.45169   0.54949   0.23244   0.00000  Uiso   1.00
C411   C     0.51875   0.95236   0.29099   0.00000  Uiso   1.00
C412   C     0.49554   0.52465   0.24999   0.00000  Uiso   1.00
C413   C     0.49416   0.97594   0.25067   0.00000  Uiso   1.00
C414   C     0.59218   0.61400   0.28884   0.00000  Uiso   1.00
C415   C     0.51923   0.78538   0.05562   0.00000  Uiso   1.00
C416   C     0.62715   0.62910   0.25861   0.00000  Uiso   1.00
C417   C     0.34068   0.64743   0.27904   0.00000  Uiso   1.00
C418   C     0.35238   0.65155   0.32947   0.00000  Uiso   1.00
C419   C     0.65079   0.63667   0.35962   0.00000  Uiso   1.00
C420   C     0.60444   0.61738   0.33944   0.00000  Uiso   1.00
C421   C     0.43179   0.88342   0.17380   0.00000  Uiso   1.00
C422   C     0.44563   0.87489   0.12777   0.00000  Uiso   1.00
C423   C     0.41376   0.84892   0.09471   0.00000  Uiso   1.00
C424   C     0.36725   0.83272   0.10676   0.00000  Uiso   1.00
C425   C     0.35255   0.84243   0.15202   0.00000  Uiso   1.00
C426   C     0.53375   0.72434   0.45112   0.00000  Uiso   1.00
C427   C     0.38497   0.86728   0.18573   0.00000  Uiso   1.00
C428   C     0.47181   0.66880   0.02698   0.00000  Uiso   1.00
C429   C     0.43965   0.66393   0.48247   0.00000  Uiso   1.00
C430   C     0.43476   0.62283   0.45925   0.00000  Uiso   1.00
C431   C     0.46085   0.58606   0.48053   0.00000  Uiso   1.00
C432   C     0.49229   0.59029   0.02499   0.00000  Uiso   1.00
C433   C     0.49798   0.63138   0.04799   0.00000  Uiso   1.00
C434   C     0.42689   0.80717   0.45895   0.00000  Uiso   1.00
C435   C     0.38000   0.78988   0.46944   0.00000  Uiso   1.00
C436   C     0.34077   0.81826   0.47920   0.00000  Uiso   1.00
C437   C     0.52163   0.78403   0.10665   0.00000  Uiso   1.00
C438   C     0.34817   0.86402   0.47886   0.00000  Uiso   1.00
C439   C     0.39483   0.88147   0.46869   0.00000  Uiso   1.00
C440   C     0.43401   0.85319   0.45852   0.00000  Uiso   1.00
C441   C     0.53345   0.72426   0.40036   0.00000  Uiso   1.00
C442   C     0.47878   0.71525   0.10202   0.00000  Uiso   1.00
C443   C     0.46682   0.77699   0.39031   0.00000  Uiso   1.00
C444   C     0.48115   0.71252   0.05132   0.00000  Uiso   1.00
Cu445  Cu    0.50000   0.74999   0.29821   0.00000  Uiso   1.00
Cu446  Cu    0.50000   0.75000   0.20178   0.00000  Uiso   1.00
F447   F     0.65579   0.74377   0.18449   0.00000  Uiso   1.00
F448   F     0.43475   0.80336   0.36055   0.00000  Uiso   1.00
F449   F     0.34408   0.75870   0.31538   0.00000  Uiso   1.00
F450   F     0.40582   0.52968   0.21781   0.00000  Uiso   1.00
F451   F     0.54076   0.97354   0.33167   0.00000  Uiso   1.00
F452   F     0.53956   0.82060   0.03455   0.00000  Uiso   1.00
F453   F     0.56802   0.69857   0.47939   0.00000  Uiso   1.00
F454   F     0.54623   0.81709   0.13321   0.00000  Uiso   1.00
F455   F     0.56730   0.69851   0.38094   0.00000  Uiso   1.00
F456   F     0.45514   0.68230   0.12365   0.00000  Uiso   1.00
H457   H     0.57611   0.52800   0.27911   0.00000  Uiso   1.00
H458   H     0.48176   0.88697   0.11823   0.00000  Uiso   1.00
H459   H     0.42565   0.84079   0.06013   0.00000  Uiso   1.00
H460   H     0.34269   0.81245   0.08126   0.00000  Uiso   1.00
H461   H     0.64980   0.83010   0.16132   0.00000  Uiso   1.00
H462   H     0.37395   0.87351   0.22130   0.00000  Uiso   1.00
H463   H     0.41895   0.69175   0.46526   0.00000  Uiso   1.00
H464   H     0.41113   0.61941   0.42450   0.00000  Uiso   1.00
H465   H     0.45688   0.55433   0.46244   0.00000  Uiso   1.00
H466   H     0.51274   0.56183   0.04141   0.00000  Uiso   1.00
H467   H     0.52363   0.63415   0.08187   0.00000  Uiso   1.00
H468   H     0.44885   0.97021   0.17970   0.00000  Uiso   1.00
H469   H     0.37299   0.75468   0.46853   0.00000  Uiso   1.00
H470   H     0.63783   0.80477   0.48676   0.00000  Uiso   1.00
H471   H     0.65112   0.88592   0.48650   0.00000  Uiso   1.00
H472   H     0.40048   0.91691   0.46825   0.00000  Uiso   1.00
H473   H     0.46949   0.86710   0.44939   0.00000  Uiso   1.00
H474   H     0.42079   0.61406   0.21665   0.00000  Uiso   1.00
H475   H     0.54063   0.88902   0.32088   0.00000  Uiso   1.00
H476   H     0.61832   0.62634   0.21947   0.00000  Uiso   1.00
H477   H     0.36762   0.65911   0.25579   0.00000  Uiso   1.00
H478   H     0.38834   0.66647   0.34508   0.00000  Uiso   1.00
H479   H     0.65930   0.64029   0.39864   0.00000  Uiso   1.00
H480   H     0.57784   0.60556   0.36315   0.00000  Uiso   1.00
N481   N     0.50000   0.75001   0.12934   0.00000  Uiso   1.00
N482   N     0.50000   0.74999   0.37065   0.00000  Uiso   1.00
O483   O     0.50000   0.68572   0.29071   0.00000  Uiso   1.00
O484   O     0.50000   0.81427   0.20928   0.00000  Uiso   1.00
O485   O     0.50000   0.68573   0.20928   0.00000  Uiso   1.00
O486   O     0.50000   0.81427   0.29072   0.00000  Uiso   1.00
O487   O     0.42495   0.74999   0.28132   0.00000  Uiso   1.00
O488   O     0.57505   0.75000   0.21868   0.00000  Uiso   1.00
O489   O     0.42495   0.75000   0.19988   0.00000  Uiso   1.00
O490   O     0.57505   0.75000   0.30011   0.00000  Uiso   1.00
C491   C     0.83372   0.66514   0.25004   0.00000  Uiso   1.00
C492   C     0.79848   0.77797   0.44103   0.00000  Uiso   1.00
C493   C     0.83187   0.74974   0.02685   0.00000  Uiso   1.00
C494   C     0.83230   0.75083   0.47245   0.00000  Uiso   1.00
C495   C     0.73469   0.75042   0.23766   0.00000  Uiso   1.00
C496   C     0.93196   0.75073   0.26231   0.00000  Uiso   1.00
C497   C     0.67967   0.74979   0.23077   0.00000  Uiso   1.00
C498   C     0.98690   0.75313   0.26904   0.00000  Uiso   1.00
C499   C     0.87493   0.54664   0.26682   0.00000  Uiso   1.00
C500   C     0.80192   0.95266   0.21079   0.00000  Uiso   1.00
C501   C     0.87710   0.59266   0.26799   0.00000  Uiso   1.00
C502   C     0.83194   0.83500   0.24988   0.00000  Uiso   1.00
C503   C     0.80071   0.90656   0.21105   0.00000  Uiso   1.00
C504   C     0.83323   0.61712   0.24977   0.00000  Uiso   1.00
C505   C     0.82890   0.88330   0.24990   0.00000  Uiso   1.00
C506   C     0.78781   0.59539   0.23121   0.00000  Uiso   1.00
C507   C     0.85356   0.90649   0.29004   0.00000  Uiso   1.00
C508   C     0.78502   0.54949   0.23244   0.00000  Uiso   1.00
C509   C     0.85209   0.95236   0.29099   0.00000  Uiso   1.00
C510   C     0.82888   0.52465   0.24999   0.00000  Uiso   1.00
C511   C     0.82749   0.97594   0.25067   0.00000  Uiso   1.00
C512   C     0.92551   0.61400   0.28884   0.00000  Uiso   1.00
C513   C     0.85257   0.78538   0.05562   0.00000  Uiso   1.00
C514   C     0.96048   0.62910   0.25861   0.00000  Uiso   1.00
C515   C     0.67402   0.64743   0.27904   0.00000  Uiso   1.00
C516   C     0.68572   0.65155   0.32947   0.00000  Uiso   1.00
C517   C     0.98413   0.63667   0.35962   0.00000  Uiso   1.00
C518   C     0.93777   0.61738   0.33944   0.00000  Uiso   1.00
C519   C     0.76512   0.88342   0.17380   0.00000  Uiso   1.00
C520   C     0.77896   0.87489   0.12777   0.00000  Uiso   1.00
C521   C     0.74710   0.84892   0.09471   0.00000  Uiso   1.00
C522   C     0.70058   0.83272   0.10676   0.00000  Uiso   1.00
C523   C     0.68588   0.84243   0.15202   0.00000  Uiso   1.00
C524   C     0.86708   0.72434   0.45112   0.00000  Uiso   1.00
C525   C     0.71830   0.86728   0.18573   0.00000  Uiso   1.00
C526   C     0.80514   0.66880   0.02698   0.00000  Uiso   1.00
C527   C     0.77298   0.66393   0.48247   0.00000  Uiso   1.00
C528   C     0.76809   0.62283   0.45925   0.00000  Uiso   1.00
C529   C     0.79418   0.58606   0.48053   0.00000  Uiso   1.00
C530   C     0.82562   0.59029   0.02499   0.00000  Uiso   1.00
C531   C     0.83131   0.63138   0.04799   0.00000  Uiso   1.00
C532   C     0.76022   0.80717   0.45895   0.00000  Uiso   1.00
C533   C     0.71333   0.78988   0.46944   0.00000  Uiso   1.00
C534   C     0.67410   0.81826   0.47920   0.00000  Uiso   1.00
C535   C     0.85496   0.78403   0.10665   0.00000  Uiso   1.00
C536   C     0.68150   0.86402   0.47886   0.00000  Uiso   1.00
C537   C     0.72817   0.88147   0.46869   0.00000  Uiso   1.00
C538   C     0.76734   0.85319   0.45852   0.00000  Uiso   1.00
C539   C     0.86679   0.72426   0.40036   0.00000  Uiso   1.00
C540   C     0.81211   0.71525   0.10202   0.00000  Uiso   1.00
C541   C     0.80015   0.77699   0.39031   0.00000  Uiso   1.00
C542   C     0.81449   0.71252   0.05132   0.00000  Uiso   1.00
Cu543  Cu    0.83333   0.74999   0.29821   0.00000  Uiso   1.00
Cu544  Cu    0.83333   0.75000   0.20178   0.00000  Uiso   1.00
F545   F     0.98913   0.74377   0.18449   0.00000  Uiso   1.00
F546   F     0.76808   0.80336   0.36055   0.00000  Uiso   1.00
F547   F     0.67741   0.75870   0.31538   0.00000  Uiso   1.00
F548   F     0.73915   0.52968   0.21781   0.00000  Uiso   1.00
F549   F     0.87410   0.97354   0.33167   0.00000  Uiso   1.00
F550   F     0.87290   0.82060   0.03455   0.00000  Uiso   1.00
F551   F     0.90135   0.69857   0.47939   0.00000  Uiso   1.00
F552   F     0.87957   0.81709   0.13321   0.00000  Uiso   1.00
F553   F     0.90063   0.69851   0.38094   0.00000  Uiso   1.00
F554   F     0.78847   0.68230   0.12365   0.00000  Uiso   1.00
H555   H     0.90944   0.52800   0.27911   0.00000  Uiso   1.00
H556   H     0.81510   0.88697   0.11823   0.00000  Uiso   1.00
H557   H     0.75898   0.84079   0.06013   0.00000  Uiso   1.00
H558   H     0.67603   0.81245   0.08126   0.00000  Uiso   1.00
H559   H     0.98314   0.83010   0.16132   0.00000  Uiso   1.00
H560   H     0.70728   0.87351   0.22130   0.00000  Uiso   1.00
H561   H     0.75228   0.69175   0.46526   0.00000  Uiso   1.00
H562   H     0.74446   0.61941   0.42450   0.00000  Uiso   1.00
H563   H     0.79022   0.55433   0.46244   0.00000  Uiso   1.00
H564   H     0.84607   0.56183   0.04141   0.00000  Uiso   1.00
H565   H     0.85696   0.63415   0.08187   0.00000  Uiso   1.00
H566   H     0.78218   0.97021   0.17970   0.00000  Uiso   1.00
H567   H     0.70633   0.75468   0.46853   0.00000  Uiso   1.00
H568   H     0.97116   0.80477   0.48676   0.00000  Uiso   1.00
H569   H     0.98445   0.88592   0.48650   0.00000  Uiso   1.00
H570   H     0.73381   0.91691   0.46825   0.00000  Uiso   1.00
H571   H     0.80282   0.86710   0.44939   0.00000  Uiso   1.00
H572   H     0.75412   0.61406   0.21665   0.00000  Uiso   1.00
H573   H     0.87396   0.88902   0.32088   0.00000  Uiso   1.00
H574   H     0.95165   0.62634   0.21947   0.00000  Uiso   1.00
H575   H     0.70096   0.65911   0.25579   0.00000  Uiso   1.00
H576   H     0.72167   0.66647   0.34508   0.00000  Uiso   1.00
H577   H     0.99264   0.64029   0.39864   0.00000  Uiso   1.00
H578   H     0.91118   0.60556   0.36315   0.00000  Uiso   1.00
N579   N     0.83333   0.75001   0.12934   0.00000  Uiso   1.00
N580   N     0.83333   0.74999   0.37065   0.00000  Uiso   1.00
O581   O     0.83334   0.68572   0.29071   0.00000  Uiso   1.00
O582   O     0.83333   0.81427   0.20928   0.00000  Uiso   1.00
O583   O     0.83334   0.68573   0.20928   0.00000  Uiso   1.00
O584   O     0.83333   0.81427   0.29072   0.00000  Uiso   1.00
O585   O     0.75828   0.74999   0.28132   0.00000  Uiso   1.00
O586   O     0.90839   0.75000   0.21868   0.00000  Uiso   1.00
O587   O     0.75828   0.75000   0.19988   0.00000  Uiso   1.00
O588   O     0.90839   0.75000   0.30011   0.00000  Uiso   1.00
C589   C     0.16706   0.16514   0.75004   0.00000  Uiso   1.00
C590   C     0.13182   0.27797   0.94103   0.00000  Uiso   1.00
C591   C     0.16520   0.24974   0.52685   0.00000  Uiso   1.00
C592   C     0.16564   0.25083   0.97245   0.00000  Uiso   1.00
C593   C     0.06803   0.25042   0.73766   0.00000  Uiso   1.00
C594   C     0.26529   0.25073   0.76231   0.00000  Uiso   1.00
C595   C     0.01300   0.24979   0.73077   0.00000  Uiso   1.00
C596   C     0.32024   0.25313   0.76904   0.00000  Uiso   1.00
C597   C     0.20826   0.04664   0.76682   0.00000  Uiso   1.00
C598   C     0.13525   0.45266   0.71079   0.00000  Uiso   1.00
C599   C     0.21044   0.09266   0.76799   0.00000  Uiso   1.00
C600   C     0.16528   0.33500   0.74988   0.00000  Uiso   1.00
C601   C     0.13405   0.40656   0.71105   0.00000  Uiso   1.00
C602   C     0.16656   0.11712   0.74977   0.00000  Uiso   1.00
C603   C     0.16223   0.38330   0.74990   0.00000  Uiso   1.00
C604   C     0.12115   0.09539   0.73121   0.00000  Uiso   1.00
C605   C     0.18689   0.40649   0.79004   0.00000  Uiso   1.00
C606   C     0.11836   0.04949   0.73244   0.00000  Uiso   1.00
C607   C     0.18542   0.45236   0.79099   0.00000  Uiso   1.00
C608   C     0.16221   0.02465   0.74999   0.00000  Uiso   1.00
C609   C     0.16082   0.47594   0.75067   0.00000  Uiso   1.00
C610   C     0.25884   0.11400   0.78884   0.00000  Uiso   1.00
C611   C     0.18590   0.28538   0.55562   0.00000  Uiso   1.00
C612   C     0.29381   0.12910   0.75861   0.00000  Uiso   1.00
C613   C     0.00735   0.14743   0.77904   0.00000  Uiso   1.00
C614   C     0.01905   0.15155   0.82947   0.00000  Uiso   1.00
C615   C     0.31746   0.13667   0.85962   0.00000  Uiso   1.00
C616   C     0.27111   0.11738   0.83944   0.00000  Uiso   1.00
C617   C     0.09846   0.38342   0.67380   0.00000  Uiso   1.00
C618   C     0.11230   0.37489   0.62777   0.00000  Uiso   1.00
C619   C     0.08043   0.34892   0.59471   0.00000  Uiso   1.00
C620   C     0.03391   0.33272   0.60676   0.00000  Uiso   1.00
C621   C     0.01921   0.34243   0.65202   0.00000  Uiso   1.00
C622   C     0.20041   0.22434   0.95112   0.00000  Uiso   1.00
C623   C     0.05163   0.36728   0.68573   0.00000  Uiso   1.00
C624   C     0.13848   0.16880   0.52698   0.00000  Uiso   1.00
C625   C     0.10631   0.16393   0.98247   0.00000  Uiso   1.00
C626   C     0.10143   0.12283   0.95925   0.00000  Uiso   1.00
C627   C     0.12751   0.08606   0.98053   0.00000  Uiso   1.00
C628   C     0.15895   0.09029   0.52499   0.00000  Uiso   1.00
C629   C     0.16465   0.13138   0.54799   0.00000  Uiso   1.00
C630   C     0.09355   0.30717   0.95895   0.00000  Uiso   1.00
C631   C     0.04666   0.28988   0.96944   0.00000  Uiso   1.00
C632   C     0.00743   0.31826   0.97920   0.00000  Uiso   1.00
C633   C     0.18829   0.28403   0.60665   0.00000  Uiso   1.00
C634   C     0.01484   0.36402   0.97886   0.00000  Uiso   1.00
C635   C     0.06150   0.38147   0.96869   0.00000  Uiso   1.00
C636   C     0.10068   0.35319   0.95852   0.00000  Uiso   1.00
C637   C     0.20012   0.22426   0.90036   0.00000  Uiso   1.00
C638   C     0.14545   0.21525   0.60202   0.00000  Uiso   1.00
C639   C     0.13349   0.27699   0.89031   0.00000  Uiso   1.00
C640   C     0.14782   0.21252   0.55132   0.00000  Uiso   1.00
Cu641  Cu    0.16667   0.24999   0.79821   0.00000  Uiso   1.00
Cu642  Cu    0.16667   0.25000   0.70178   0.00000  Uiso   1.00
F643   F     0.32246   0.24377   0.68449   0.00000  Uiso   1.00
F644   F     0.10141   0.30336   0.86055   0.00000  Uiso   1.00
F645   F     0.01074   0.25870   0.81538   0.00000  Uiso   1.00
F646   F     0.07248   0.02968   0.71781   0.00000  Uiso   1.00
F647   F     0.20743   0.47354   0.83167   0.00000  Uiso   1.00
F648   F     0.20623   0.32060   0.53455   0.00000  Uiso   1.00
F649   F     0.23469   0.19857   0.97939   0.00000  Uiso   1.00
F650   F     0.21290   0.31709   0.63321   0.00000  Uiso   1.00
F651   F     0.23396   0.19851   0.88094   0.00000  Uiso   1.00
F652   F     0.12180   0.18230   0.62365   0.00000  Uiso   1.00
H653   H     0.24277   0.02800   0.77911   0.00000  Uiso   1.00
H654   H     0.14843   0.38697   0.61823   0.00000  Uiso   1.00
H655   H     0.09231   0.34079   0.56013   0.00000  Uiso   1.00
H656   H     0.00936   0.31245   0.58126   0.00000  Uiso   1.00
H657   H     0.31647   0.33010   0.66132   0.00000  Uiso   1.00
H658   H     0.04062   0.37351   0.72130   0.00000  Uiso   1.00
H659   H     0.08562   0.19175   0.96526   0.00000  Uiso   1.00
H660   H     0.07779   0.11941   0.92450   0.00000  Uiso   1.00
H661   H     0.12355   0.05433   0.96244   0.00000  Uiso   1.00
H662   H     0.17941   0.06183   0.54141   0.00000  Uiso   1.00
H663   H     0.19029   0.13415   0.58187   0.00000  Uiso   1.00
H664   H     0.11551   0.47021   0.67970   0.00000  Uiso   1.00
H665   H     0.03966   0.25468   0.96853   0.00000  Uiso   1.00
H666   H     0.30450   0.30477   0.98676   0.00000  Uiso   1.00
H667   H     0.31778   0.38592   0.98650   0.00000  Uiso   1.00
H668   H     0.06714   0.41691   0.96825   0.00000  Uiso   1.00
H669   H     0.13615   0.36710   0.94939   0.00000  Uiso   1.00
H670   H     0.08745   0.11406   0.71665   0.00000  Uiso   1.00
H671   H     0.20729   0.38902   0.82088   0.00000  Uiso   1.00
H672   H     0.28498   0.12634   0.71947   0.00000  Uiso   1.00
H673   H     0.03429   0.15911   0.75579   0.00000  Uiso   1.00
H674   H     0.05500   0.16647   0.84508   0.00000  Uiso   1.00
H675   H     0.32597   0.14029   0.89864   0.00000  Uiso   1.00
H676   H     0.24451   0.10556   0.86315   0.00000  Uiso   1.00
N677   N     0.16667   0.25001   0.62934   0.00000  Uiso   1.00
N678   N     0.16667   0.24999   0.87065   0.00000  Uiso   1.00
O679   O     0.16667   0.18572   0.79071   0.00000  Uiso   1.00
O680   O     0.16666   0.31427   0.70928   0.00000  Uiso   1.00
O681   O     0.16667   0.18573   0.70928   0.00000  Uiso   1.00
O682   O     0.16666   0.31427   0.79072   0.00000  Uiso   1.00
O683   O     0.09161   0.24999   0.78132   0.00000  Uiso   1.00
O684   O     0.24172   0.25000   0.71868   0.00000  Uiso   1.00
O685   O     0.09161   0.25000   0.69988   0.00000  Uiso   1.00
O686   O     0.24172   0.25000   0.80011   0.00000  Uiso   1.00
C687   C     0.50039   0.16514   0.75004   0.00000  Uiso   1.00
C688   C     0.46515   0.27797   0.94103   0.00000  Uiso   1.00
C689   C     0.49854   0.24974   0.52685   0.00000  Uiso   1.00
C690   C     0.49897   0.25083   0.97245   0.00000  Uiso   1.00
C691   C     0.40136   0.25042   0.73766   0.00000  Uiso   1.00
C692   C     0.59862   0.25073   0.76231   0.00000  Uiso   1.00
C693   C     0.34633   0.24979   0.73077   0.00000  Uiso   1.00
C694   C     0.65357   0.25313   0.76904   0.00000  Uiso   1.00
C695   C     0.54159   0.04664   0.76682   0.00000  Uiso   1.00
C696   C     0.46859   0.45266   0.71079   0.00000  Uiso   1.00
C697   C     0.54377   0.09266   0.76799   0.00000  Uiso   1.00
C698   C     0.49861   0.33500   0.74988   0.00000  Uiso   1.00
C699   C     0.46738   0.40656   0.71105   0.00000  Uiso   1.00
C700   C     0.49990   0.11712   0.74977   0.00000  Uiso   1.00
C701   C     0.49556   0.38330   0.74990   0.00000  Uiso   1.00
C702   C     0.45448   0.09539   0.73121   0.00000  Uiso   1.00
C703   C     0.52022   0.40649   0.79004   0.00000  Uiso   1.00
C704   C     0.45169   0.04949   0.73244   0.00000  Uiso   1.00
C705   C     0.51875   0.45236   0.79099   0.00000  Uiso   1.00
C706   C     0.49554   0.02465   0.74999   0.00000  Uiso   1.00
C707   C     0.49416   0.47594   0.75067   0.00000  Uiso   1.00
C708   C     0.59218   0.11400   0.78884   0.00000  Uiso   1.00
C709   C     0.51923   0.28538   0.55562   0.00000  Uiso   1.00
C710   C     0.62715   0.12910   0.75861   0.00000  Uiso   1.00
C711   C     0.34068   0.14743   0.77904   0.00000  Uiso   1.00
C712   C     0.35238   0.15155   0.82947   0.00000  Uiso   1.00
C713   C     0.65079   0.13667   0.85962   0.00000  Uiso   1.00
C714   C     0.60444   0.11738   0.83944   0.00000  Uiso   1.00
C715   C     0.43179   0.38342   0.67380   0.00000  Uiso   1.00
C716   C     0.44563   0.37489   0.62777   0.00000  Uiso   1.00
C717   C     0.41376   0.34892   0.59471   0.00000  Uiso   1.00
C718   C     0.36725   0.33272   0.60676   0.00000  Uiso   1.00
C719   C     0.35255   0.34243   0.65202   0.00000  Uiso   1.00
C720   C     0.53375   0.22434   0.95112   0.00000  Uiso   1.00
C721   C     0.38497   0.36728   0.68573   0.00000  Uiso   1.00
C722   C     0.47181   0.16880   0.52698   0.00000  Uiso   1.00
C723   C     0.43965   0.16393   0.98247   0.00000  Uiso   1.00
C724   C     0.43476   0.12283   0.95925   0.00000  Uiso   1.00
C725   C     0.46085   0.08606   0.98053   0.00000  Uiso   1.00
C726   C     0.49229   0.09029   0.52499   0.00000  Uiso   1.00
C727   C     0.49798   0.13138   0.54799   0.00000  Uiso   1.00
C728   C     0.42689   0.30717   0.95895   0.00000  Uiso   1.00
C729   C     0.38000   0.28988   0.96944   0.00000  Uiso   1.00
C730   C     0.34077   0.31826   0.97920   0.00000  Uiso   1.00
C731   C     0.52163   0.28403   0.60665   0.00000  Uiso   1.00
C732   C     0.34817   0.36402   0.97886   0.00000  Uiso   1.00
C733   C     0.39483   0.38147   0.96869   0.00000  Uiso   1.00
C734   C     0.43401   0.35319   0.95852   0.00000  Uiso   1.00
C735   C     0.53345   0.22426   0.90036   0.00000  Uiso   1.00
C736   C     0.47878   0.21525   0.60202   0.00000  Uiso   1.00
C737   C     0.46682   0.27699   0.89031   0.00000  Uiso   1.00
C738   C     0.48115   0.21252   0.55132   0.00000  Uiso   1.00
Cu739  Cu    0.50000   0.24999   0.79821   0.00000  Uiso   1.00
Cu740  Cu    0.50000   0.25000   0.70178   0.00000  Uiso   1.00
F741   F     0.65579   0.24377   0.68449   0.00000  Uiso   1.00
F742   F     0.43475   0.30336   0.86055   0.00000  Uiso   1.00
F743   F     0.34408   0.25870   0.81538   0.00000  Uiso   1.00
F744   F     0.40582   0.02968   0.71781   0.00000  Uiso   1.00
F745   F     0.54076   0.47354   0.83167   0.00000  Uiso   1.00
F746   F     0.53956   0.32060   0.53455   0.00000  Uiso   1.00
F747   F     0.56802   0.19857   0.97939   0.00000  Uiso   1.00
F748   F     0.54623   0.31709   0.63321   0.00000  Uiso   1.00
F749   F     0.56730   0.19851   0.88094   0.00000  Uiso   1.00
F750   F     0.45514   0.18230   0.62365   0.00000  Uiso   1.00
H751   H     0.57611   0.02800   0.77911   0.00000  Uiso   1.00
H752   H     0.48176   0.38697   0.61823   0.00000  Uiso   1.00
H753   H     0.42565   0.34079   0.56013   0.00000  Uiso   1.00
H754   H     0.34269   0.31245   0.58126   0.00000  Uiso   1.00
H755   H     0.64980   0.33010   0.66132   0.00000  Uiso   1.00
H756   H     0.37395   0.37351   0.72130   0.00000  Uiso   1.00
H757   H     0.41895   0.19175   0.96526   0.00000  Uiso   1.00
H758   H     0.41113   0.11941   0.92450   0.00000  Uiso   1.00
H759   H     0.45688   0.05433   0.96244   0.00000  Uiso   1.00
H760   H     0.51274   0.06183   0.54141   0.00000  Uiso   1.00
H761   H     0.52363   0.13415   0.58187   0.00000  Uiso   1.00
H762   H     0.44885   0.47021   0.67970   0.00000  Uiso   1.00
H763   H     0.37299   0.25468   0.96853   0.00000  Uiso   1.00
H764   H     0.63783   0.30477   0.98676   0.00000  Uiso   1.00
H765   H     0.65112   0.38592   0.98650   0.00000  Uiso   1.00
H766   H     0.40048   0.41691   0.96825   0.00000  Uiso   1.00
H767   H     0.46949   0.36710   0.94939   0.00000  Uiso   1.00
H768   H     0.42079   0.11406   0.71665   0.00000  Uiso   1.00
H769   H     0.54063   0.38902   0.82088   0.00000  Uiso   1.00
H770   H     0.61832   0.12634   0.71947   0.00000  Uiso   1.00
H771   H     0.36762   0.15911   0.75579   0.00000  Uiso   1.00
H772   H     0.38834   0.16647   0.84508   0.00000  Uiso   1.00
H773   H     0.65930   0.14029   0.89864   0.00000  Uiso   1.00
H774   H     0.57784   0.10556   0.86315   0.00000  Uiso   1.00
N775   N     0.50000   0.25001   0.62934   0.00000  Uiso   1.00
N776   N     0.50000   0.24999   0.87065   0.00000  Uiso   1.00
O777   O     0.50000   0.18572   0.79071   0.00000  Uiso   1.00
O778   O     0.50000   0.31427   0.70928   0.00000  Uiso   1.00
O779   O     0.50000   0.18573   0.70928   0.00000  Uiso   1.00
O780   O     0.50000   0.31427   0.79072   0.00000  Uiso   1.00
O781   O     0.42495   0.24999   0.78132   0.00000  Uiso   1.00
O782   O     0.57505   0.25000   0.71868   0.00000  Uiso   1.00
O783   O     0.42495   0.25000   0.69988   0.00000  Uiso   1.00
O784   O     0.57505   0.25000   0.80011   0.00000  Uiso   1.00
C785   C     0.83372   0.16514   0.75004   0.00000  Uiso   1.00
C786   C     0.79848   0.27797   0.94103   0.00000  Uiso   1.00
C787   C     0.83187   0.24974   0.52685   0.00000  Uiso   1.00
C788   C     0.83230   0.25083   0.97245   0.00000  Uiso   1.00
C789   C     0.73469   0.25042   0.73766   0.00000  Uiso   1.00
C790   C     0.93196   0.25073   0.76231   0.00000  Uiso   1.00
C791   C     0.67967   0.24979   0.73077   0.00000  Uiso   1.00
C792   C     0.98690   0.25313   0.76904   0.00000  Uiso   1.00
C793   C     0.87493   0.04664   0.76682   0.00000  Uiso   1.00
C794   C     0.80192   0.45266   0.71079   0.00000  Uiso   1.00
C795   C     0.87710   0.09266   0.76799   0.00000  Uiso   1.00
C796   C     0.83194   0.33500   0.74988   0.00000  Uiso   1.00
C797   C     0.80071   0.40656   0.71105   0.00000  Uiso   1.00
C798   C     0.83323   0.11712   0.74977   0.00000  Uiso   1.00
C799   C     0.82890   0.38330   0.74990   0.00000  Uiso   1.00
C800   C     0.78781   0.09539   0.73121   0.00000  Uiso   1.00
C801   C     0.85356   0.40649   0.79004   0.00000  Uiso   1.00
C802   C     0.78502   0.04949   0.73244   0.00000  Uiso   1.00
C803   C     0.85209   0.45236   0.79099   0.00000  Uiso   1.00
C804   C     0.82888   0.02465   0.74999   0.00000  Uiso   1.00
C805   C     0.82749   0.47594   0.75067   0.00000  Uiso   1.00
C806   C     0.92551   0.11400   0.78884   0.00000  Uiso   1.00
C807   C     0.85257   0.28538   0.55562   0.00000  Uiso   1.00
C808   C     0.96048   0.12910   0.75861   0.00000  Uiso   1.00
C809   C     0.67402   0.14743   0.77904   0.00000  Uiso   1.00
C810   C     0.68572   0.15155   0.82947   0.00000  Uiso   1.00
C811   C     0.98413   0.13667   0.85962   0.00000  Uiso   1.00
C812   C     0.93777   0.11738   0.83944   0.00000  Uiso   1.00
C813   C     0.76512   0.38342   0.67380   0.00000  Uiso   1.00
C814   C     0.77896   0.37489   0.62777   0.00000  Uiso   1.00
C815   C     0.74710   0.34892   0.59471   0.00000  Uiso   1.00
C816   C     0.70058   0.33272   0.60676   0.00000  Uiso   1.00
C817   C     0.68588   0.34243   0.65202   0.00000  Uiso   1.00
C818   C     0.86708   0.22434   0.95112   0.00000  Uiso   1.00
C819   C     0.71830   0.36728   0.68573   0.00000  Uiso   1.00
C820   C     0.80514   0.16880   0.52698   0.00000  Uiso   1.00
C821   C     0.77298   0.16393   0.98247   0.00000  Uiso   1.00
C822   C     0.76809   0.12283   0.95925   0.00000  Uiso   1.00
C823   C     0.79418   0.08606   0.98053   0.00000  Uiso   1.00
C824   C     0.82562   0.09029   0.52499   0.00000  Uiso   1.00
C825   C     0.83131   0.13138   0.54799   0.00000  Uiso   1.00
C826   C     0.76022   0.30717   0.95895   0.00000  Uiso   1.00
C827   C     0.71333   0.28988   0.96944   0.00000  Uiso   1.00
C828   C     0.67410   0.31826   0.97920   0.00000  Uiso   1.00
C829   C     0.85496   0.28403   0.60665   0.00000  Uiso   1.00
C830   C     0.68150   0.36402   0.97886   0.00000  Uiso   1.00
C831   C     0.72817   0.38147   0.96869   0.00000  Uiso   1.00
C832   C     0.76734   0.35319   0.95852   0.00000  Uiso   1.00
C833   C     0.86679   0.22426   0.90036   0.00000  Uiso   1.00
C834   C     0.81211   0.21525   0.60202   0.00000  Uiso   1.00
C835   C     0.80015   0.27699   0.89031   0.00000  Uiso   1.00
C836   C     0.81449   0.21252   0.55132   0.00000  Uiso   1.00
Cu837  Cu    0.83333   0.24999   0.79821   0.00000  Uiso   1.00
Cu838  Cu    0.83333   0.25000   0.70178   0.00000  Uiso   1.00
F839   F     0.98913   0.24377   0.68449   0.00000  Uiso   1.00
F840   F     0.76808   0.30336   0.86055   0.00000  Uiso   1.00
F841   F     0.67741   0.25870   0.81538   0.00000  Uiso   1.00
F842   F     0.73915   0.02968   0.71781   0.00000  Uiso   1.00
F843   F     0.87410   0.47354   0.83167   0.00000  Uiso   1.00
F844   F     0.87290   0.32060   0.53455   0.00000  Uiso   1.00
F845   F     0.90135   0.19857   0.97939   0.00000  Uiso   1.00
F846   F     0.87957   0.31709   0.63321   0.00000  Uiso   1.00
F847   F     0.90063   0.19851   0.88094   0.00000  Uiso   1.00
F848   F     0.78847   0.18230   0.62365   0.00000  Uiso   1.00
H849   H     0.90944   0.02800   0.77911   0.00000  Uiso   1.00
H850   H     0.81510   0.38697   0.61823   0.00000  Uiso   1.00
H851   H     0.75898   0.34079   0.56013   0.00000  Uiso   1.00
H852   H     0.67603   0.31245   0.58126   0.00000  Uiso   1.00
H853   H     0.98314   0.33010   0.66132   0.00000  Uiso   1.00
H854   H     0.70728   0.37351   0.72130   0.00000  Uiso   1.00
H855   H     0.75228   0.19175   0.96526   0.00000  Uiso   1.00
H856   H     0.74446   0.11941   0.92450   0.00000  Uiso   1.00
H857   H     0.79022   0.05433   0.96244   0.00000  Uiso   1.00
H858   H     0.84607   0.06183   0.54141   0.00000  Uiso   1.00
H859   H     0.85696   0.13415   0.58187   0.00000  Uiso   1.00
H860   H     0.78218   0.47021   0.67970   0.00000  Uiso   1.00
H861   H     0.70633   0.25468   0.96853   0.00000  Uiso   1.00
H862   H     0.97116   0.30477   0.98676   0.00000  Uiso   1.00
H863   H     0.98445   0.38592   0.98650   0.00000  Uiso   1.00
H864   H     0.73381   0.41691   0.96825   0.00000  Uiso   1.00
H865   H     0.80282   0.36710   0.94939   0.00000  Uiso   1.00
H866   H     0.75412   0.11406   0.71665   0.00000  Uiso   1.00
H867   H     0.87396   0.38902   0.82088   0.00000  Uiso   1.00
H868   H     0.95165   0.12634   0.71947   0.00000  Uiso   1.00
H869   H     0.70096   0.15911   0.75579   0.00000  Uiso   1.00
H870   H     0.72167   0.16647   0.84508   0.00000  Uiso   1.00
H871   H     0.99264   0.14029   0.89864   0.00000  Uiso   1.00
H872   H     0.91118   0.10556   0.86315   0.00000  Uiso   1.00
N873   N     0.83333   0.25001   0.62934   0.00000  Uiso   1.00
N874   N     0.83333   0.24999   0.87065   0.00000  Uiso   1.00
O875   O     0.83334   0.18572   0.79071   0.00000  Uiso   1.00
O876   O     0.83333   0.31427   0.70928   0.00000  Uiso   1.00
O877   O     0.83334   0.18573   0.70928   0.00000  Uiso   1.00
O878   O     0.83333   0.31427   0.79072   0.00000  Uiso   1.00
O879   O     0.75828   0.24999   0.78132   0.00000  Uiso   1.00
O880   O     0.90839   0.25000   0.71868   0.00000  Uiso   1.00
O881   O     0.75828   0.25000   0.69988   0.00000  Uiso   1.00
O882   O     0.90839   0.25000   0.80011   0.00000  Uiso   1.00
C883   C     0.16706   0.66514   0.75004   0.00000  Uiso   1.00
C884   C     0.13182   0.77797   0.94103   0.00000  Uiso   1.00
C885   C     0.16520   0.74974   0.52685   0.00000  Uiso   1.00
C886   C     0.16564   0.75083   0.97245   0.00000  Uiso   1.00
C887   C     0.06803   0.75042   0.73766   0.00000  Uiso   1.00
C888   C     0.26529   0.75073   0.76231   0.00000  Uiso   1.00
C889   C     0.01300   0.74979   0.73077   0.00000  Uiso   1.00
C890   C     0.32024   0.75313   0.76904   0.00000  Uiso   1.00
C891   C     0.20826   0.54664   0.76682   0.00000  Uiso   1.00
C892   C     0.13525   0.95266   0.71079   0.00000  Uiso   1.00
C893   C     0.21044   0.59266   0.76799   0.00000  Uiso   1.00
C894   C     0.16528   0.83500   0.74988   0.00000  Uiso   1.00
C895   C     0.13405   0.90656   0.71105   0.00000  Uiso   1.00
C896   C     0.16656   0.61712   0.74977   0.00000  Uiso   1.00
C897   C     0.16223   0.88330   0.74990   0.00000  Uiso   1.00
C898   C     0.12115   0.59539   0.73121   0.00000  Uiso   1.00
C899   C     0.18689   0.90649   0.79004   0.00000  Uiso   1.00
C900   C     0.11836   0.54949   0.73244   0.00000  Uiso   1.00
C901   C     0.18542   0.95236   0.79099   0.00000  Uiso   1.00
C902   C     0.16221   0.52465   0.74999   0.00000  Uiso   1.00
C903   C     0.16082   0.97594   0.75067   0.00000  Uiso   1.00
C904   C     0.25884   0.61400   0.78884   0.00000  Uiso   1.00
C905   C     0.18590   0.78538   0.55562   0.00000  Uiso   1.00
C906   C     0.29381   0.62910   0.75861   0.00000  Uiso   1.00
C907   C     0.00735   0.64743   0.77904   0.00000  Uiso   1.00
C908   C     0.01905   0.65155   0.82947   0.00000  Uiso   1.00
C909   C     0.31746   0.63667   0.85962   0.00000  Uiso   1.00
C910   C     0.27111   0.61738   0.83944   0.00000  Uiso   1.00
C911   C     0.09846   0.88342   0.67380   0.00000  Uiso   1.00
C912   C     0.11230   0.87489   0.62777   0.00000  Uiso   1.00
C913   C     0.08043   0.84892   0.59471   0.00000  Uiso   1.00
C914   C     0.03391   0.83272   0.60676   0.00000  Uiso   1.00
C915   C     0.01921   0.84243   0.65202   0.00000  Uiso   1.00
C916   C     0.20041   0.72434   0.95112   0.00000  Uiso   1.00
C917   C     0.05163   0.86728   0.68573   0.00000  Uiso   1.00
C918   C     0.13848   0.66880   0.52698   0.00000  Uiso   1.00
C919   C     0.10631   0.66393   0.98247   0.00000  Uiso   1.00
C920   C     0.10143   0.62283   0.95925   0.00000  Uiso   1.00
C921   C     0.12751   0.58606   0.98053   0.00000  Uiso   1.00
C922   C     0.15895   0.59029   0.52499   0.00000  Uiso   1.00
C923   C     0.16465   0.63138   0.54799   0.00000  Uiso   1.00
C924   C     0.09355   0.80717   0.95895   0.00000  Uiso   1.00
C925   C     0.04666   0.78988   0.96944   0.00000  Uiso   1.00
C926   C     0.00743   0.81826   0.97920   0.00000  Uiso   1.00
C927   C     0.18829   0.78403   0.60665   0.00000  Uiso   1.00
C928   C     0.01484   0.86402   0.97886   0.00000  Uiso   1.00
C929   C     0.06150   0.88147   0.96869   0.00000  Uiso   1.00
C930   C     0.10068   0.85319   0.95852   0.00000  Uiso   1.00
C931   C     0.20012   0.72426   0.90036   0.00000  Uiso   1.00
C932   C     0.14545   0.71525   0.60202   0.00000  Uiso   1.00
C933   C     0.13349   0.77699   0.89031   0.00000  Uiso   1.00
C934   C     0.14782   0.71252   0.55132   0.00000  Uiso   1.00
Cu935  Cu    0.16667   0.74999   0.79821   0.00000  Uiso   1.00
Cu936  Cu    0.16667   0.75000   0.70178   0.00000  Uiso   1.00
F937   F     0.32246   0.74377   0.68449   0.00000  Uiso   1.00
F938   F     0.10141   0.80336   0.86055   0.00000  Uiso   1.00
F939   F     0.01074   0.75870   0.81538   0.00000  Uiso   1.00
F940   F     0.07248   0.52968   0.71781   0.00000  Uiso   1.00
F941   F     0.20743   0.97354   0.83167   0.00000  Uiso   1.00
F942   F     0.20623   0.82060   0.53455   0.00000  Uiso   1.00
F943   F     0.23469   0.69857   0.97939   0.00000  Uiso   1.00
F944   F     0.21290   0.81709   0.63321   0.00000  Uiso   1.00
F945   F     0.23396   0.69851   0.88094   0.00000  Uiso   1.00
F946   F     0.12180   0.68230   0.62365   0.00000  Uiso   1.00
H947   H     0.24277   0.52800   0.77911   0.00000  Uiso   1.00
H948   H     0.14843   0.88697   0.61823   0.00000  Uiso   1.00
H949   H     0.09231   0.84079   0.56013   0.00000  Uiso   1.00
H950   H     0.00936   0.81245   0.58126   0.00000  Uiso   1.00
H951   H     0.31647   0.83010   0.66132   0.00000  Uiso   1.00
H952   H     0.04062   0.87351   0.72130   0.00000  Uiso   1.00
H953   H     0.08562   0.69175   0.96526   0.00000  Uiso   1.00
H954   H     0.07779   0.61941   0.92450   0.00000  Uiso   1.00
H955   H     0.12355   0.55433   0.96244   0.00000  Uiso   1.00
H956   H     0.17941   0.56183   0.54141   0.00000  Uiso   1.00
H957   H     0.19029   0.63415   0.58187   0.00000  Uiso   1.00
H958   H     0.11551   0.97021   0.67970   0.00000  Uiso   1.00
H959   H     0.03966   0.75468   0.96853   0.00000  Uiso   1.00
H960   H     0.30450   0.80477   0.98676   0.00000  Uiso   1.00
H961   H     0.31778   0.88592   0.98650   0.00000  Uiso   1.00
H962   H     0.06714   0.91691   0.96825   0.00000  Uiso   1.00
H963   H     0.13615   0.86710   0.94939   0.00000  Uiso   1.00
H964   H     0.08745   0.61406   0.71665   0.00000  Uiso   1.00
H965   H     0.20729   0.88902   0.82088   0.00000  Uiso   1.00
H966   H     0.28498   0.62634   0.71947   0.00000  Uiso   1.00
H967   H     0.03429   0.65911   0.75579   0.00000  Uiso   1.00
H968   H     0.05500   0.66647   0.84508   0.00000  Uiso   1.00
H969   H     0.32597   0.64029   0.89864   0.00000  Uiso   1.00
H970   H     0.24451   0.60556   0.86315   0.00000  Uiso   1.00
N971   N     0.16667   0.75001   0.62934   0.00000  Uiso   1.00
N972   N     0.16667   0.74999   0.87065   0.00000  Uiso   1.00
O973   O     0.16667   0.68572   0.79071   0.00000  Uiso   1.00
O974   O     0.16666   0.81427   0.70928   0.00000  Uiso   1.00
O975   O     0.16667   0.68573   0.70928   0.00000  Uiso   1.00
O976   O     0.16666   0.81427   0.79072   0.00000  Uiso   1.00
O977   O     0.09161   0.74999   0.78132   0.00000  Uiso   1.00
O978   O     0.24172   0.75000   0.71868   0.00000  Uiso   1.00
O979   O     0.09161   0.75000   0.69988   0.00000  Uiso   1.00
O980   O     0.24172   0.75000   0.80011   0.00000  Uiso   1.00
C981   C     0.50039   0.66514   0.75004   0.00000  Uiso   1.00
C982   C     0.46515   0.77797   0.94103   0.00000  Uiso   1.00
C983   C     0.49854   0.74974   0.52685   0.00000  Uiso   1.00
C984   C     0.49897   0.75083   0.97245   0.00000  Uiso   1.00
C985   C     0.40136   0.75042   0.73766   0.00000  Uiso   1.00
C986   C     0.59862   0.75073   0.76231   0.00000  Uiso   1.00
C987   C     0.34633   0.74979   0.73077   0.00000  Uiso   1.00
C988   C     0.65357   0.75313   0.76904   0.00000  Uiso   1.00
C989   C     0.54159   0.54664   0.76682   0.00000  Uiso   1.00
C990   C     0.46859   0.95266   0.71079   0.00000  Uiso   1.00
C991   C     0.54377   0.59266   0.76799   0.00000  Uiso   1.00
C992   C     0.49861   0.83500   0.74988   0.00000  Uiso   1.00
C993   C     0.46738   0.90656   0.71105   0.00000  Uiso   1.00
C994   C     0.49990   0.61712   0.74977   0.00000  Uiso   1.00
C995   C     0.49556   0.88330   0.74990   0.00000  Uiso   1.00
C996   C     0.45448   0.59539   0.73121   0.00000  Uiso   1.00
C997   C     0.52022   0.90649   0.79004   0.00000  Uiso   1.00
C998   C     0.45169   0.54949   0.73244   0.00000  Uiso   1.00
C999   C     0.51875   0.95236   0.79099   0.00000  Uiso   1.00
C1000  C     0.49554   0.52465   0.74999   0.00000  Uiso   1.00
C1001  C     0.49416   0.97594   0.75067   0.00000  Uiso   1.00
C1002  C     0.59218   0.61400   0.78884   0.00000  Uiso   1.00
C1003  C     0.51923   0.78538   0.55562   0.00000  Uiso   1.00
C1004  C     0.62715   0.62910   0.75861   0.00000  Uiso   1.00
C1005  C     0.34068   0.64743   0.77904   0.00000  Uiso   1.00
C1006  C     0.35238   0.65155   0.82947   0.00000  Uiso   1.00
C1007  C     0.65079   0.63667   0.85962   0.00000  Uiso   1.00
C1008  C     0.60444   0.61738   0.83944   0.00000  Uiso   1.00
C1009  C     0.43179   0.88342   0.67380   0.00000  Uiso   1.00
C1010  C     0.44563   0.87489   0.62777   0.00000  Uiso   1.00
C1011  C     0.41376   0.84892   0.59471   0.00000  Uiso   1.00
C1012  C     0.36725   0.83272   0.60676   0.00000  Uiso   1.00
C1013  C     0.35255   0.84243   0.65202   0.00000  Uiso   1.00
C1014  C     0.53375   0.72434   0.95112   0.00000  Uiso   1.00
C1015  C     0.38497   0.86728   0.68573   0.00000  Uiso   1.00
C1016  C     0.47181   0.66880   0.52698   0.00000  Uiso   1.00
C1017  C     0.43965   0.66393   0.98247   0.00000  Uiso   1.00
C1018  C     0.43476   0.62283   0.95925   0.00000  Uiso   1.00
C1019  C     0.46085   0.58606   0.98053   0.00000  Uiso   1.00
C1020  C     0.49229   0.59029   0.52499   0.00000  Uiso   1.00
C1021  C     0.49798   0.63138   0.54799   0.00000  Uiso   1.00
C1022  C     0.42689   0.80717   0.95895   0.00000  Uiso   1.00
C1023  C     0.38000   0.78988   0.96944   0.00000  Uiso   1.00
C1024  C     0.34077   0.81826   0.97920   0.00000  Uiso   1.00
C1025  C     0.52163   0.78403   0.60665   0.00000  Uiso   1.00
C1026  C     0.34817   0.86402   0.97886   0.00000  Uiso   1.00
C1027  C     0.39483   0.88147   0.96869   0.00000  Uiso   1.00
C1028  C     0.43401   0.85319   0.95852   0.00000  Uiso   1.00
C1029  C     0.53345   0.72426   0.90036   0.00000  Uiso   1.00
C1030  C     0.47878   0.71525   0.60202   0.00000  Uiso   1.00
C1031  C     0.46682   0.77699   0.89031   0.00000  Uiso   1.00
C1032  C     0.48115   0.71252   0.55132   0.00000  Uiso   1.00
Cu1033 Cu    0.50000   0.74999   0.79821   0.00000  Uiso   1.00
Cu1034 Cu    0.50000   0.75000   0.70178   0.00000  Uiso   1.00
F1035  F     0.65579   0.74377   0.68449   0.00000  Uiso   1.00
F1036  F     0.43475   0.80336   0.86055   0.00000  Uiso   1.00
F1037  F     0.34408   0.75870   0.81538   0.00000  Uiso   1.00
F1038  F     0.40582   0.52968   0.71781   0.00000  Uiso   1.00
F1039  F     0.54076   0.97354   0.83167   0.00000  Uiso   1.00
F1040  F     0.53956   0.82060   0.53455   0.00000  Uiso   1.00
F1041  F     0.56802   0.69857   0.97939   0.00000  Uiso   1.00
F1042  F     0.54623   0.81709   0.63321   0.00000  Uiso   1.00
F1043  F     0.56730   0.69851   0.88094   0.00000  Uiso   1.00
F1044  F     0.45514   0.68230   0.62365   0.00000  Uiso   1.00
H1045  H     0.57611   0.52800   0.77911   0.00000  Uiso   1.00
H1046  H     0.48176   0.88697   0.61823   0.00000  Uiso   1.00
H1047  H     0.42565   0.84079   0.56013   0.00000  Uiso   1.00
H1048  H     0.34269   0.81245   0.58126   0.00000  Uiso   1.00
H1049  H     0.64980   0.83010   0.66132   0.00000  Uiso   1.00
H1050  H     0.37395   0.87351   0.72130   0.00000  Uiso   1.00
H1051  H     0.41895   0.69175   0.96526   0.00000  Uiso   1.00
H1052  H     0.41113   0.61941   0.92450   0.00000  Uiso   1.00
H1053  H     0.45688   0.55433   0.96244   0.00000  Uiso   1.00
H1054  H     0.51274   0.56183   0.54141   0.00000  Uiso   1.00
H1055  H     0.52363   0.63415   0.58187   0.00000  Uiso   1.00
H1056  H     0.44885   0.97021   0.67970   0.00000  Uiso   1.00
H1057  H     0.37299   0.75468   0.96853   0.00000  Uiso   1.00
H1058  H     0.63783   0.80477   0.98676   0.00000  Uiso   1.00
H1059  H     0.65112   0.88592   0.98650   0.00000  Uiso   1.00
H1060  H     0.40048   0.91691   0.96825   0.00000  Uiso   1.00
H1061  H     0.46949   0.86710   0.94939   0.00000  Uiso   1.00
H1062  H     0.42079   0.61406   0.71665   0.00000  Uiso   1.00
H1063  H     0.54063   0.88902   0.82088   0.00000  Uiso   1.00
H1064  H     0.61832   0.62634   0.71947   0.00000  Uiso   1.00
H1065  H     0.36762   0.65911   0.75579   0.00000  Uiso   1.00
H1066  H     0.38834   0.66647   0.84508   0.00000  Uiso   1.00
H1067  H     0.65930   0.64029   0.89864   0.00000  Uiso   1.00
H1068  H     0.57784   0.60556   0.86315   0.00000  Uiso   1.00
N1069  N     0.50000   0.75001   0.62934   0.00000  Uiso   1.00
N1070  N     0.50000   0.74999   0.87065   0.00000  Uiso   1.00
O1071  O     0.50000   0.68572   0.79071   0.00000  Uiso   1.00
O1072  O     0.50000   0.81427   0.70928   0.00000  Uiso   1.00
O1073  O     0.50000   0.68573   0.70928   0.00000  Uiso   1.00
O1074  O     0.50000   0.81427   0.79072   0.00000  Uiso   1.00
O1075  O     0.42495   0.74999   0.78132   0.00000  Uiso   1.00
O1076  O     0.57505   0.75000   0.71868   0.00000  Uiso   1.00
O1077  O     0.42495   0.75000   0.69988   0.00000  Uiso   1.00
O1078  O     0.57505   0.75000   0.80011   0.00000  Uiso   1.00
C1079  C     0.83372   0.66514   0.75004   0.00000  Uiso   1.00
C1080  C     0.79848   0.77797   0.94103   0.00000  Uiso   1.00
C1081  C     0.83187   0.74974   0.52685   0.00000  Uiso   1.00
C1082  C     0.83230   0.75083   0.97245   0.00000  Uiso   1.00
C1083  C     0.73469   0.75042   0.73766   0.00000  Uiso   1.00
C1084  C     0.93196   0.75073   0.76231   0.00000  Uiso   1.00
C1085  C     0.67967   0.74979   0.73077   0.00000  Uiso   1.00
C1086  C     0.98690   0.75313   0.76904   0.00000  Uiso   1.00
C1087  C     0.87493   0.54664   0.76682   0.00000  Uiso   1.00
C1088  C     0.80192   0.95266   0.71079   0.00000  Uiso   1.00
C1089  C     0.87710   0.59266   0.76799   0.00000  Uiso   1.00
C1090  C     0.83194   0.83500   0.74988   0.00000  Uiso   1.00
C1091  C     0.80071   0.90656   0.71105   0.00000  Uiso   1.00
C1092  C     0.83323   0.61712   0.74977   0.00000  Uiso   1.00
C1093  C     0.82890   0.88330   0.74990   0.00000  Uiso   1.00
C1094  C     0.78781   0.59539   0.73121   0.00000  Uiso   1.00
C1095  C     0.85356   0.90649   0.79004   0.00000  Uiso   1.00
C1096  C     0.78502   0.54949   0.73244   0.00000  Uiso   1.00
C1097  C     0.85209   0.95236   0.79099   0.00000  Uiso   1.00
C1098  C     0.82888   0.52465   0.74999   0.00000  Uiso   1.00
C1099  C     0.82749   0.97594   0.75067   0.00000  Uiso   1.00
C1100  C     0.92551   0.61400   0.78884   0.00000  Uiso   1.00
C1101  C     0.85257   0.78538   0.55562   0.00000  Uiso   1.00
C1102  C     0.96048   0.62910   0.75861   0.00000  Uiso   1.00
C1103  C     0.67402   0.64743   0.77904   0.00000  Uiso   1.00
C1104  C     0.68572   0.65155   0.82947   0.00000  Uiso   1.00
C1105  C     0.98413   0.63667   0.85962   0.00000  Uiso   1.00
C1106  C     0.93777   0.61738   0.83944   0.00000  Uiso   1.00
C1107  C     0.76512   0.88342   0.67380   0.00000  Uiso   1.00
C1108  C     0.77896   0.87489   0.62777   0.00000  Uiso   1.00
C1109  C     0.74710   0.84892   0.59471   0.00000  Uiso   1.00
C1110  C     0.70058   0.83272   0.60676   0.00000  Uiso   1.00
C1111  C     0.68588   0.84243   0.65202   0.00000  Uiso   1.00
C1112  C     0.86708   0.72434   0.95112   0.00000  Uiso   1.00
C1113  C     0.71830   0.86728   0.68573   0.00000  Uiso   1.00
C1114  C     0.80514   0.66880   0.52698   0.00000  Uiso   1.00
C1115  C     0.77298   0.66393   0.98247   0.00000  Uiso   1.00
C1116  C     0.76809   0.62283   0.95925   0.00000  Uiso   1.00
C1117  C     0.79418   0.58606   0.98053   0.00000  Uiso   1.00
C1118  C     0.82562   0.59029   0.52499   0.00000  Uiso   1.00
C1119  C     0.83131   0.63138   0.54799   0.00000  Uiso   1.00
C1120  C     0.76022   0.80717   0.95895   0.00000  Uiso   1.00
C1121  C     0.71333   0.78988   0.96944   0.00000  Uiso   1.00
C1122  C     0.67410   0.81826   0.97920   0.00000  Uiso   1.00
C1123  C     0.85496   0.78403   0.60665   0.00000  Uiso   1.00
C1124  C     0.68150   0.86402   0.97886   0.00000  Uiso   1.00
C1125  C     0.72817   0.88147   0.96869   0.00000  Uiso   1.00
C1126  C     0.76734   0.85319   0.95852   0.00000  Uiso   1.00
C1127  C     0.86679   0.72426   0.90036   0.00000  Uiso   1.00
C1128  C     0.81211   0.71525   0.60202   0.00000  Uiso   1.00
C1129  C     0.80015   0.77699   0.89031   0.00000  Uiso   1.00
C1130  C     0.81449   0.71252   0.55132   0.00000  Uiso   1.00
Cu1131 Cu    0.83333   0.74999   0.79821   0.00000  Uiso   1.00
Cu1132 Cu    0.83333   0.75000   0.70178   0.00000  Uiso   1.00
F1133  F     0.98913   0.74377   0.68449   0.00000  Uiso   1.00
F1134  F     0.76808   0.80336   0.86055   0.00000  Uiso   1.00
F1135  F     0.67741   0.75870   0.81538   0.00000  Uiso   1.00
F1136  F     0.73915   0.52968   0.71781   0.00000  Uiso   1.00
F1137  F     0.87410   0.97354   0.83167   0.00000  Uiso   1.00
F1138  F     0.87290   0.82060   0.53455   0.00000  Uiso   1.00
F1139  F     0.90135   0.69857   0.97939   0.00000  Uiso   1.00
F1140  F     0.87957   0.81709   0.63321   0.00000  Uiso   1.00
F1141  F     0.90063   0.69851   0.88094   0.00000  Uiso   1.00
F1142  F     0.78847   0.68230   0.62365   0.00000  Uiso   1.00
H1143  H     0.90944   0.52800   0.77911   0.00000  Uiso   1.00
H1144  H     0.81510   0.88697   0.61823   0.00000  Uiso   1.00
H1145  H     0.75898   0.84079   0.56013   0.00000  Uiso   1.00
H1146  H     0.67603   0.81245   0.58126   0.00000  Uiso   1.00
H1147  H     0.98314   0.83010   0.66132   0.00000  Uiso   1.00
H1148  H     0.70728   0.87351   0.72130   0.00000  Uiso   1.00
H1149  H     0.75228   0.69175   0.96526   0.00000  Uiso   1.00
H1150  H     0.74446   0.61941   0.92450   0.00000  Uiso   1.00
H1151  H     0.79022   0.55433   0.96244   0.00000  Uiso   1.00
H1152  H     0.84607   0.56183   0.54141   0.00000  Uiso   1.00
H1153  H     0.85696   0.63415   0.58187   0.00000  Uiso   1.00
H1154  H     0.78218   0.97021   0.67970   0.00000  Uiso   1.00
H1155  H     0.70633   0.75468   0.96853   0.00000  Uiso   1.00
H1156  H     0.97116   0.80477   0.98676   0.00000  Uiso   1.00
H1157  H     0.98445   0.88592   0.98650   0.00000  Uiso   1.00
H1158  H     0.73381   0.91691   0.96825   0.00000  Uiso   1.00
H1159  H     0.80282   0.86710   0.94939   0.00000  Uiso   1.00
H1160  H     0.75412   0.61406   0.71665   0.00000  Uiso   1.00
H1161  H     0.87396   0.88902   0.82088   0.00000  Uiso   1.00
H1162  H     0.95165   0.62634   0.71947   0.00000  Uiso   1.00
H1163  H     0.70096   0.65911   0.75579   0.00000  Uiso   1.00
H1164  H     0.72167   0.66647   0.84508   0.00000  Uiso   1.00
H1165  H     0.99264   0.64029   0.89864   0.00000  Uiso   1.00
H1166  H     0.91118   0.60556   0.86315   0.00000  Uiso   1.00
N1167  N     0.83333   0.75001   0.62934   0.00000  Uiso   1.00
N1168  N     0.83333   0.74999   0.87065   0.00000  Uiso   1.00
O1169  O     0.83334   0.68572   0.79071   0.00000  Uiso   1.00
O1170  O     0.83333   0.81427   0.70928   0.00000  Uiso   1.00
O1171  O     0.83334   0.68573   0.70928   0.00000  Uiso   1.00
O1172  O     0.83333   0.81427   0.79072   0.00000  Uiso   1.00
O1173  O     0.75828   0.74999   0.78132   0.00000  Uiso   1.00
O1174  O     0.90839   0.75000   0.71868   0.00000  Uiso   1.00
O1175  O     0.75828   0.75000   0.69988   0.00000  Uiso   1.00
O1176  O     0.90839   0.75000   0.80011   0.00000  Uiso   1.00
loop_
_geom_bond_atom_site_label_1
_geom_bond_atom_site_label_2
_geom_bond_distance
_geom_bond_site_symmetry_2
_ccdc_geom_bond_type
C1     O91     1.292   .     A
C1     O93     1.289   .     A
C1     C14     1.453   .     S
C2     C42     1.477   .     S
C2     C4      1.419   .     A
C2     C51     1.415   .     A
C3     C23     1.407   .     A
C3     C52     1.420   .     A
C3     C592    1.512   1_554 S
C4     C34     1.408   .     A
C4     C591    1.512   .     S
C5     O95     1.284   .     A
C5     C7      1.433   .     S
C5     O97     1.289   .     A
C6     O98     1.290   .     A
C6     C8      1.433   .     S
C6     O96     1.283   .     A
C7     C204    1.345   1_455 S
C7     F251    1.363   1_455 S
C8     C105    1.345   .     S
C8     F155    1.363   .     S
C9     C20     1.403   .     A
C9     C11     1.394   .     A
C9     H65     1.084   .     S
C10    H76     1.083   .     S
C10    C21     1.404   .     A
C10    C13     1.395   .     A
C11    C14     1.406   .     A
C11    C22     1.473   .     S
C12    O94     1.291   .     A
C12    C15     1.463   .     S
C12    O92     1.296   .     A
C13    C29     1.473   .     S
C13    C15     1.410   .     A
C14    C16     1.398   .     A
C15    C17     1.399   .     A
C16    H82     1.082   .     S
C16    C18     1.391   .     A
C17    C19     1.389   .     A
C17    H83     1.084   .     S
C18    C20     1.407   .     A
C18    F58     1.357   .     S
C19    C21     1.407   .     A
C19    F59     1.358   .     S
C20    C315    1.474   1_545 S
C21    C314    1.474   .     S
C22    C28     1.402   .     A
C22    C24     1.402   .     A
C23    C45     1.410   .     A
C23    F60     1.358   .     S
C24    H84     1.083   .     S
C24    C123    1.398   .     S
C25    C26     1.398   .     A
C25    H85     1.080   .     S
C25    C220    1.398   1_455 S
C26    H86     1.083   .     S
C26    C223    1.398   1_455 S
C27    H87     1.081   .     S
C27    C28     1.397   .     A
C27    C124    1.398   .     S
C28    H88     1.083   .     S
C29    C30     1.400   .     A
C29    C35     1.404   .     A
C30    C31     1.397   .     A
C30    H66     1.083   .     S
C31    H67     1.078   .     S
C31    C32     1.399   .     A
C32    H68     1.081   .     S
C32    C33     1.396   .     A
C33    C35     1.396   .     A
C33    H265    1.082   1_455 S
C34    F61     1.358   .     S
C34    C49     1.408   .     A
C35    H70     1.083   .     S
C36    C52     1.491   .     S
C36    C41     1.409   .     A
C36    C625    1.407   1_554 S
C37    C38     1.399   .     A
C37    H71     1.078   .     S
C37    C624    1.407   .     S
C38    H72     1.079   .     S
C38    C39     1.395   .     A
C39    H73     1.082   .     S
C39    C628    1.395   .     S
C40    C41     1.397   .     A
C40    H74     1.082   .     S
C40    C627    1.395   1_554 S
C41    H75     1.083   .     S
C42    C48     1.405   .     A
C42    C43     1.405   .     A
C43    C44     1.398   .     A
C43    H77     1.080   .     S
C44    C46     1.398   .     A
C44    H274    1.083   1_455 S
C45    F62     1.354   .     S
C45    N89     1.368   .     A
C46    C47     1.398   .     A
C46    H275    1.082   1_455 S
C47    C48     1.399   .     A
C47    H80     1.082   .     S
C48    H81     1.083   .     S
C49    F63     1.351   .     S
C49    N90     1.365   .     A
C50    F64     1.355   .     S
C50    N89     1.370   .     A
C50    C52     1.420   .     A
C51    N90     1.364   .     A
C51    F56     1.357   .     S
Cu53   O95     1.965   .     S
Cu53   Cu54    2.677   .     S
Cu53   O91     1.956   .     S
Cu53   O94     1.955   .     S
Cu53   O98     1.967   .     S
Cu53   N90     2.011   .     S
Cu54   O92     1.956   .     S
Cu54   O93     1.955   .     S
Cu54   O97     1.967   .     S
Cu54   O96     1.965   .     S
Cu54   N89     2.011   .     S
F55    C105    1.363   .     S
F57    C204    1.363   1_455 S
H69    C131    1.082   .     S
H78    C142    1.083   .     S
H79    C144    1.082   .     S
C99    O189    1.292   .     A
C99    O191    1.289   .     A
C99    C112    1.453   .     S
C100   C140    1.477   .     S
C100   C102    1.419   .     A
C100   C149    1.415   .     A
C101   C121    1.407   .     A
C101   C150    1.420   .     A
C101   C690    1.512   1_554 S
C102   C132    1.408   .     A
C102   C689    1.512   .     S
C103   O193    1.284   .     A
C103   C105    1.433   .     S
C103   O195    1.289   .     A
C104   O196    1.290   .     A
C104   C106    1.433   .     S
C104   O194    1.283   .     A
C106   C203    1.345   .     S
C106   F253    1.363   .     S
C107   C118    1.403   .     A
C107   C109    1.394   .     A
C107   H163    1.084   .     S
C108   H174    1.083   .     S
C108   C119    1.404   .     A
C108   C111    1.395   .     A
C109   C112    1.406   .     A
C109   C120    1.473   .     S
C110   O192    1.291   .     A
C110   C113    1.463   .     S
C110   O190    1.296   .     A
C111   C127    1.473   .     S
C111   C113    1.410   .     A
C112   C114    1.398   .     A
C113   C115    1.399   .     A
C114   H180    1.082   .     S
C114   C116    1.391   .     A
C115   C117    1.389   .     A
C115   H181    1.084   .     S
C116   C118    1.407   .     A
C116   F156    1.357   .     S
C117   C119    1.407   .     A
C117   F157    1.358   .     S
C118   C413    1.474   1_545 S
C119   C412    1.474   .     S
C120   C126    1.402   .     A
C120   C122    1.402   .     A
C121   C143    1.410   .     A
C121   F158    1.358   .     S
C122   H182    1.083   .     S
C122   C221    1.398   .     S
C123   C124    1.398   .     A
C123   H183    1.080   .     S
C124   H184    1.083   .     S
C125   H185    1.081   .     S
C125   C126    1.397   .     A
C125   C222    1.398   .     S
C126   H186    1.083   .     S
C127   C128    1.400   .     A
C127   C133    1.404   .     A
C128   C129    1.397   .     A
C128   H164    1.083   .     S
C129   H165    1.078   .     S
C129   C130    1.399   .     A
C130   H166    1.081   .     S
C130   C131    1.396   .     A
C131   C133    1.396   .     A
C132   F159    1.358   .     S
C132   C147    1.408   .     A
C133   H168    1.083   .     S
C134   C150    1.491   .     S
C134   C139    1.409   .     A
C134   C723    1.407   1_554 S
C135   C136    1.399   .     A
C135   H169    1.078   .     S
C135   C722    1.407   .     S
C136   H170    1.079   .     S
C136   C137    1.395   .     A
C137   H171    1.082   .     S
C137   C726    1.395   .     S
C138   C139    1.397   .     A
C138   H172    1.082   .     S
C138   C725    1.395   1_554 S
C139   H173    1.083   .     S
C140   C146    1.405   .     A
C140   C141    1.405   .     A
C141   C142    1.398   .     A
C141   H175    1.080   .     S
C142   C144    1.398   .     A
C143   F160    1.354   .     S
C143   N187    1.368   .     A
C144   C145    1.398   .     A
C145   C146    1.399   .     A
C145   H178    1.082   .     S
C146   H179    1.083   .     S
C147   F161    1.351   .     S
C147   N188    1.365   .     A
C148   F162    1.355   .     S
C148   N187    1.370   .     A
C148   C150    1.420   .     A
C149   N188    1.364   .     A
C149   F154    1.357   .     S
Cu151  O193    1.965   .     S
Cu151  Cu152   2.677   .     S
Cu151  O189    1.956   .     S
Cu151  O192    1.955   .     S
Cu151  O196    1.967   .     S
Cu151  N188    2.011   .     S
Cu152  O190    1.956   .     S
Cu152  O191    1.955   .     S
Cu152  O195    1.967   .     S
Cu152  O194    1.965   .     S
Cu152  N187    2.011   .     S
F153   C203    1.363   .     S
H167   C229    1.082   .     S
H176   C240    1.083   .     S
H177   C242    1.082   .     S
C197   O287    1.292   .     A
C197   O289    1.289   .     A
C197   C210    1.453   .     S
C198   C238    1.477   .     S
C198   C200    1.419   .     A
C198   C247    1.415   .     A
C199   C219    1.407   .     A
C199   C248    1.420   .     A
C199   C788    1.512   1_554 S
C200   C230    1.408   .     A
C200   C787    1.512   .     S
C201   O291    1.284   .     A
C201   C203    1.433   .     S
C201   O293    1.289   .     A
C202   O294    1.290   .     A
C202   C204    1.433   .     S
C202   O292    1.283   .     A
C204   C7      1.345   1_655 S
C204   F57     1.363   1_655 S
C205   C216    1.403   .     A
C205   C207    1.394   .     A
C205   H261    1.084   .     S
C206   H272    1.083   .     S
C206   C217    1.404   .     A
C206   C209    1.395   .     A
C207   C210    1.406   .     A
C207   C218    1.473   .     S
C208   O290    1.291   .     A
C208   C211    1.463   .     S
C208   O288    1.296   .     A
C209   C225    1.473   .     S
C209   C211    1.410   .     A
C210   C212    1.398   .     A
C211   C213    1.399   .     A
C212   H278    1.082   .     S
C212   C214    1.391   .     A
C213   C215    1.389   .     A
C213   H279    1.084   .     S
C214   C216    1.407   .     A
C214   F254    1.357   .     S
C215   C217    1.407   .     A
C215   F255    1.358   .     S
C216   C511    1.474   1_545 S
C217   C510    1.474   .     S
C218   C224    1.402   .     A
C218   C220    1.402   .     A
C219   C241    1.410   .     A
C219   F256    1.358   .     S
C220   H280    1.083   .     S
C220   C25     1.398   1_655 S
C221   C222    1.398   .     A
C221   H281    1.080   .     S
C222   H282    1.083   .     S
C223   H283    1.081   .     S
C223   C224    1.397   .     A
C223   C26     1.398   1_655 S
C224   H284    1.083   .     S
C225   C226    1.400   .     A
C225   C231    1.404   .     A
C226   C227    1.397   .     A
C226   H262    1.083   .     S
C227   H263    1.078   .     S
C227   C228    1.399   .     A
C228   H264    1.081   .     S
C228   C229    1.396   .     A
C229   C231    1.396   .     A
C230   F257    1.358   .     S
C230   C245    1.408   .     A
C231   H266    1.083   .     S
C232   C248    1.491   .     S
C232   C237    1.409   .     A
C232   C821    1.407   1_554 S
C233   C234    1.399   .     A
C233   H267    1.078   .     S
C233   C820    1.407   .     S
C234   H268    1.079   .     S
C234   C235    1.395   .     A
C235   H269    1.082   .     S
C235   C824    1.395   .     S
C236   C237    1.397   .     A
C236   H270    1.082   .     S
C236   C823    1.395   1_554 S
C237   H271    1.083   .     S
C238   C244    1.405   .     A
C238   C239    1.405   .     A
C239   C240    1.398   .     A
C239   H273    1.080   .     S
C240   C242    1.398   .     A
C241   F258    1.354   .     S
C241   N285    1.368   .     A
C242   C243    1.398   .     A
C243   C244    1.399   .     A
C243   H276    1.082   .     S
C244   H277    1.083   .     S
C245   F259    1.351   .     S
C245   N286    1.365   .     A
C246   F260    1.355   .     S
C246   N285    1.370   .     A
C246   C248    1.420   .     A
C247   N286    1.364   .     A
C247   F252    1.357   .     S
Cu249  O291    1.965   .     S
Cu249  Cu250   2.677   .     S
Cu249  O287    1.956   .     S
Cu249  O290    1.955   .     S
Cu249  O294    1.967   .     S
Cu249  N286    2.011   .     S
Cu250  O288    1.956   .     S
Cu250  O289    1.955   .     S
Cu250  O293    1.967   .     S
Cu250  O292    1.965   .     S
Cu250  N285    2.011   .     S
F251   C7      1.363   1_655 S
H265   C33     1.082   1_655 S
H274   C44     1.083   1_655 S
H275   C46     1.082   1_655 S
C295   O385    1.292   .     A
C295   O387    1.289   .     A
C295   C308    1.453   .     S
C296   C336    1.477   .     S
C296   C298    1.419   .     A
C296   C345    1.415   .     A
C297   C317    1.407   .     A
C297   C346    1.420   .     A
C297   C886    1.512   1_554 S
C298   C328    1.408   .     A
C298   C885    1.512   .     S
C299   O389    1.284   .     A
C299   C301    1.433   .     S
C299   O391    1.289   .     A
C300   O392    1.290   .     A
C300   C302    1.433   .     S
C300   O390    1.283   .     A
C301   C498    1.345   1_455 S
C301   F545    1.363   1_455 S
C302   C399    1.345   .     S
C302   F449    1.363   .     S
C303   C314    1.403   .     A
C303   C305    1.394   .     A
C303   H359    1.084   .     S
C304   H370    1.083   .     S
C304   C315    1.404   .     A
C304   C307    1.395   .     A
C305   C308    1.406   .     A
C305   C316    1.473   .     S
C306   O388    1.291   .     A
C306   C309    1.463   .     S
C306   O386    1.296   .     A
C307   C323    1.473   .     S
C307   C309    1.410   .     A
C308   C310    1.398   .     A
C309   C311    1.399   .     A
C310   H376    1.082   .     S
C310   C312    1.391   .     A
C311   C313    1.389   .     A
C311   H377    1.084   .     S
C312   C314    1.407   .     A
C312   F352    1.357   .     S
C313   C315    1.407   .     A
C313   F353    1.358   .     S
C315   C20     1.474   1_565 S
C316   C322    1.402   .     A
C316   C318    1.402   .     A
C317   C339    1.410   .     A
C317   F354    1.358   .     S
C318   H378    1.083   .     S
C318   C417    1.398   .     S
C319   C320    1.398   .     A
C319   H379    1.080   .     S
C319   C514    1.398   1_455 S
C320   H380    1.083   .     S
C320   C517    1.398   1_455 S
C321   H381    1.081   .     S
C321   C322    1.397   .     A
C321   C418    1.398   .     S
C322   H382    1.083   .     S
C323   C324    1.400   .     A
C323   C329    1.404   .     A
C324   C325    1.397   .     A
C324   H360    1.083   .     S
C325   H361    1.078   .     S
C325   C326    1.399   .     A
C326   H362    1.081   .     S
C326   C327    1.396   .     A
C327   C329    1.396   .     A
C327   H559    1.082   1_455 S
C328   F355    1.358   .     S
C328   C343    1.408   .     A
C329   H364    1.083   .     S
C330   C346    1.491   .     S
C330   C335    1.409   .     A
C330   C919    1.407   1_554 S
C331   C332    1.399   .     A
C331   H365    1.078   .     S
C331   C918    1.407   .     S
C332   H366    1.079   .     S
C332   C333    1.395   .     A
C333   H367    1.082   .     S
C333   C922    1.395   .     S
C334   C335    1.397   .     A
C334   H368    1.082   .     S
C334   C921    1.395   1_554 S
C335   H369    1.083   .     S
C336   C342    1.405   .     A
C336   C337    1.405   .     A
C337   C338    1.398   .     A
C337   H371    1.080   .     S
C338   C340    1.398   .     A
C338   H568    1.083   1_455 S
C339   F356    1.354   .     S
C339   N383    1.368   .     A
C340   C341    1.398   .     A
C340   H569    1.082   1_455 S
C341   C342    1.399   .     A
C341   H374    1.082   .     S
C342   H375    1.083   .     S
C343   F357    1.351   .     S
C343   N384    1.365   .     A
C344   F358    1.355   .     S
C344   N383    1.370   .     A
C344   C346    1.420   .     A
C345   N384    1.364   .     A
C345   F350    1.357   .     S
Cu347  O389    1.965   .     S
Cu347  Cu348   2.677   .     S
Cu347  O385    1.956   .     S
Cu347  O388    1.955   .     S
Cu347  O392    1.967   .     S
Cu347  N384    2.011   .     S
Cu348  O386    1.956   .     S
Cu348  O387    1.955   .     S
Cu348  O391    1.967   .     S
Cu348  O390    1.965   .     S
Cu348  N383    2.011   .     S
F349   C399    1.363   .     S
F351   C498    1.363   1_455 S
H363   C425    1.082   .     S
H372   C436    1.083   .     S
H373   C438    1.082   .     S
C393   O483    1.292   .     A
C393   O485    1.289   .     A
C393   C406    1.453   .     S
C394   C434    1.477   .     S
C394   C396    1.419   .     A
C394   C443    1.415   .     A
C395   C415    1.407   .     A
C395   C444    1.420   .     A
C395   C984    1.512   1_554 S
C396   C426    1.408   .     A
C396   C983    1.512   .     S
C397   O487    1.284   .     A
C397   C399    1.433   .     S
C397   O489    1.289   .     A
C398   O490    1.290   .     A
C398   C400    1.433   .     S
C398   O488    1.283   .     A
C400   C497    1.345   .     S
C400   F547    1.363   .     S
C401   C412    1.403   .     A
C401   C403    1.394   .     A
C401   H457    1.084   .     S
C402   H468    1.083   .     S
C402   C413    1.404   .     A
C402   C405    1.395   .     A
C403   C406    1.406   .     A
C403   C414    1.473   .     S
C404   O486    1.291   .     A
C404   C407    1.463   .     S
C404   O484    1.296   .     A
C405   C421    1.473   .     S
C405   C407    1.410   .     A
C406   C408    1.398   .     A
C407   C409    1.399   .     A
C408   H474    1.082   .     S
C408   C410    1.391   .     A
C409   C411    1.389   .     A
C409   H475    1.084   .     S
C410   C412    1.407   .     A
C410   F450    1.357   .     S
C411   C413    1.407   .     A
C411   F451    1.358   .     S
C413   C118    1.474   1_565 S
C414   C420    1.402   .     A
C414   C416    1.402   .     A
C415   C437    1.410   .     A
C415   F452    1.358   .     S
C416   H476    1.083   .     S
C416   C515    1.398   .     S
C417   C418    1.398   .     A
C417   H477    1.080   .     S
C418   H478    1.083   .     S
C419   H479    1.081   .     S
C419   C420    1.397   .     A
C419   C516    1.398   .     S
C420   H480    1.083   .     S
C421   C422    1.400   .     A
C421   C427    1.404   .     A
C422   C423    1.397   .     A
C422   H458    1.083   .     S
C423   H459    1.078   .     S
C423   C424    1.399   .     A
C424   H460    1.081   .     S
C424   C425    1.396   .     A
C425   C427    1.396   .     A
C426   F453    1.358   .     S
C426   C441    1.408   .     A
C427   H462    1.083   .     S
C428   C444    1.491   .     S
C428   C433    1.409   .     A
C428   C1017   1.407   1_554 S
C429   C430    1.399   .     A
C429   H463    1.078   .     S
C429   C1016   1.407   .     S
C430   H464    1.079   .     S
C430   C431    1.395   .     A
C431   H465    1.082   .     S
C431   C1020   1.395   .     S
C432   C433    1.397   .     A
C432   H466    1.082   .     S
C432   C1019   1.395   1_554 S
C433   H467    1.083   .     S
C434   C440    1.405   .     A
C434   C435    1.405   .     A
C435   C436    1.398   .     A
C435   H469    1.080   .     S
C436   C438    1.398   .     A
C437   F454    1.354   .     S
C437   N481    1.368   .     A
C438   C439    1.398   .     A
C439   C440    1.399   .     A
C439   H472    1.082   .     S
C440   H473    1.083   .     S
C441   F455    1.351   .     S
C441   N482    1.365   .     A
C442   F456    1.355   .     S
C442   N481    1.370   .     A
C442   C444    1.420   .     A
C443   N482    1.364   .     A
C443   F448    1.357   .     S
Cu445  O487    1.965   .     S
Cu445  Cu446   2.677   .     S
Cu445  O483    1.956   .     S
Cu445  O486    1.955   .     S
Cu445  O490    1.967   .     S
Cu445  N482    2.011   .     S
Cu446  O484    1.956   .     S
Cu446  O485    1.955   .     S
Cu446  O489    1.967   .     S
Cu446  O488    1.965   .     S
Cu446  N481    2.011   .     S
F447   C497    1.363   .     S
H461   C523    1.082   .     S
H470   C534    1.083   .     S
H471   C536    1.082   .     S
C491   O581    1.292   .     A
C491   O583    1.289   .     A
C491   C504    1.453   .     S
C492   C532    1.477   .     S
C492   C494    1.419   .     A
C492   C541    1.415   .     A
C493   C513    1.407   .     A
C493   C542    1.420   .     A
C493   C1082   1.512   1_554 S
C494   C524    1.408   .     A
C494   C1081   1.512   .     S
C495   O585    1.284   .     A
C495   C497    1.433   .     S
C495   O587    1.289   .     A
C496   O588    1.290   .     A
C496   C498    1.433   .     S
C496   O586    1.283   .     A
C498   C301    1.345   1_655 S
C498   F351    1.363   1_655 S
C499   C510    1.403   .     A
C499   C501    1.394   .     A
C499   H555    1.084   .     S
C500   H566    1.083   .     S
C500   C511    1.404   .     A
C500   C503    1.395   .     A
C501   C504    1.406   .     A
C501   C512    1.473   .     S
C502   O584    1.291   .     A
C502   C505    1.463   .     S
C502   O582    1.296   .     A
C503   C519    1.473   .     S
C503   C505    1.410   .     A
C504   C506    1.398   .     A
C505   C507    1.399   .     A
C506   H572    1.082   .     S
C506   C508    1.391   .     A
C507   C509    1.389   .     A
C507   H573    1.084   .     S
C508   C510    1.407   .     A
C508   F548    1.357   .     S
C509   C511    1.407   .     A
C509   F549    1.358   .     S
C511   C216    1.474   1_565 S
C512   C518    1.402   .     A
C512   C514    1.402   .     A
C513   C535    1.410   .     A
C513   F550    1.358   .     S
C514   H574    1.083   .     S
C514   C319    1.398   1_655 S
C515   C516    1.398   .     A
C515   H575    1.080   .     S
C516   H576    1.083   .     S
C517   H577    1.081   .     S
C517   C518    1.397   .     A
C517   C320    1.398   1_655 S
C518   H578    1.083   .     S
C519   C520    1.400   .     A
C519   C525    1.404   .     A
C520   C521    1.397   .     A
C520   H556    1.083   .     S
C521   H557    1.078   .     S
C521   C522    1.399   .     A
C522   H558    1.081   .     S
C522   C523    1.396   .     A
C523   C525    1.396   .     A
C524   F551    1.358   .     S
C524   C539    1.408   .     A
C525   H560    1.083   .     S
C526   C542    1.491   .     S
C526   C531    1.409   .     A
C526   C1115   1.407   1_554 S
C527   C528    1.399   .     A
C527   H561    1.078   .     S
C527   C1114   1.407   .     S
C528   H562    1.079   .     S
C528   C529    1.395   .     A
C529   H563    1.082   .     S
C529   C1118   1.395   .     S
C530   C531    1.397   .     A
C530   H564    1.082   .     S
C530   C1117   1.395   1_554 S
C531   H565    1.083   .     S
C532   C538    1.405   .     A
C532   C533    1.405   .     A
C533   C534    1.398   .     A
C533   H567    1.080   .     S
C534   C536    1.398   .     A
C535   F552    1.354   .     S
C535   N579    1.368   .     A
C536   C537    1.398   .     A
C537   C538    1.399   .     A
C537   H570    1.082   .     S
C538   H571    1.083   .     S
C539   F553    1.351   .     S
C539   N580    1.365   .     A
C540   F554    1.355   .     S
C540   N579    1.370   .     A
C540   C542    1.420   .     A
C541   N580    1.364   .     A
C541   F546    1.357   .     S
Cu543  O585    1.965   .     S
Cu543  Cu544   2.677   .     S
Cu543  O581    1.956   .     S
Cu543  O584    1.955   .     S
Cu543  O588    1.967   .     S
Cu543  N580    2.011   .     S
Cu544  O582    1.956   .     S
Cu544  O583    1.955   .     S
Cu544  O587    1.967   .     S
Cu544  O586    1.965   .     S
Cu544  N579    2.011   .     S
F545   C301    1.363   1_655 S
H559   C327    1.082   1_655 S
H568   C338    1.083   1_655 S
H569   C340    1.082   1_655 S
C589   O679    1.292   .     A
C589   O681    1.289   .     A
C589   C602    1.453   .     S
C590   C630    1.477   .     S
C590   C592    1.419   .     A
C590   C639    1.415   .     A
C591   C611    1.407   .     A
C591   C640    1.420   .     A
C592   C622    1.408   .     A
C592   C3      1.512   1_556 S
C593   O683    1.284   .     A
C593   C595    1.433   .     S
C593   O685    1.289   .     A
C594   O686    1.290   .     A
C594   C596    1.433   .     S
C594   O684    1.283   .     A
C595   C792    1.345   1_455 S
C595   F839    1.363   1_455 S
C596   C693    1.345   .     S
C596   F743    1.363   .     S
C597   C608    1.403   .     A
C597   C599    1.394   .     A
C597   H653    1.084   .     S
C598   H664    1.083   .     S
C598   C609    1.404   .     A
C598   C601    1.395   .     A
C599   C602    1.406   .     A
C599   C610    1.473   .     S
C600   O682    1.291   .     A
C600   C603    1.463   .     S
C600   O680    1.296   .     A
C601   C617    1.473   .     S
C601   C603    1.410   .     A
C602   C604    1.398   .     A
C603   C605    1.399   .     A
C604   H670    1.082   .     S
C604   C606    1.391   .     A
C605   C607    1.389   .     A
C605   H671    1.084   .     S
C606   C608    1.407   .     A
C606   F646    1.357   .     S
C607   C609    1.407   .     A
C607   F647    1.358   .     S
C608   C903    1.474   1_545 S
C609   C902    1.474   .     S
C610   C616    1.402   .     A
C610   C612    1.402   .     A
C611   C633    1.410   .     A
C611   F648    1.358   .     S
C612   H672    1.083   .     S
C612   C711    1.398   .     S
C613   C614    1.398   .     A
C613   H673    1.080   .     S
C613   C808    1.398   1_455 S
C614   H674    1.083   .     S
C614   C811    1.398   1_455 S
C615   H675    1.081   .     S
C615   C616    1.397   .     A
C615   C712    1.398   .     S
C616   H676    1.083   .     S
C617   C618    1.400   .     A
C617   C623    1.404   .     A
C618   C619    1.397   .     A
C618   H654    1.083   .     S
C619   H655    1.078   .     S
C619   C620    1.399   .     A
C620   H656    1.081   .     S
C620   C621    1.396   .     A
C621   C623    1.396   .     A
C621   H853    1.082   1_455 S
C622   F649    1.358   .     S
C622   C637    1.408   .     A
C623   H658    1.083   .     S
C624   C640    1.491   .     S
C624   C629    1.409   .     A
C625   C626    1.399   .     A
C625   H659    1.078   .     S
C625   C36     1.407   1_556 S
C626   H660    1.079   .     S
C626   C627    1.395   .     A
C627   H661    1.082   .     S
C627   C40     1.395   1_556 S
C628   C629    1.397   .     A
C628   H662    1.082   .     S
C629   H663    1.083   .     S
C630   C636    1.405   .     A
C630   C631    1.405   .     A
C631   C632    1.398   .     A
C631   H665    1.080   .     S
C632   C634    1.398   .     A
C632   H862    1.083   1_455 S
C633   F650    1.354   .     S
C633   N677    1.368   .     A
C634   C635    1.398   .     A
C634   H863    1.082   1_455 S
C635   C636    1.399   .     A
C635   H668    1.082   .     S
C636   H669    1.083   .     S
C637   F651    1.351   .     S
C637   N678    1.365   .     A
C638   F652    1.355   .     S
C638   N677    1.370   .     A
C638   C640    1.420   .     A
C639   N678    1.364   .     A
C639   F644    1.357   .     S
Cu641  O683    1.965   .     S
Cu641  Cu642   2.677   .     S
Cu641  O679    1.956   .     S
Cu641  O682    1.955   .     S
Cu641  O686    1.967   .     S
Cu641  N678    2.011   .     S
Cu642  O680    1.956   .     S
Cu642  O681    1.955   .     S
Cu642  O685    1.967   .     S
Cu642  O684    1.965   .     S
Cu642  N677    2.011   .     S
F643   C693    1.363   .     S
F645   C792    1.363   1_455 S
H657   C719    1.082   .     S
H666   C730    1.083   .     S
H667   C732    1.082   .     S
C687   O777    1.292   .     A
C687   O779    1.289   .     A
C687   C700    1.453   .     S
C688   C728    1.477   .     S
C688   C690    1.419   .     A
C688   C737    1.415   .     A
C689   C709    1.407   .     A
C689   C738    1.420   .     A
C690   C720    1.408   .     A
C690   C101    1.512   1_556 S
C691   O781    1.284   .     A
C691   C693    1.433   .     S
C691   O783    1.289   .     A
C692   O784    1.290   .     A
C692   C694    1.433   .     S
C692   O782    1.283   .     A
C694   C791    1.345   .     S
C694   F841    1.363   .     S
C695   C706    1.403   .     A
C695   C697    1.394   .     A
C695   H751    1.084   .     S
C696   H762    1.083   .     S
C696   C707    1.404   .     A
C696   C699    1.395   .     A
C697   C700    1.406   .     A
C697   C708    1.473   .     S
C698   O780    1.291   .     A
C698   C701    1.463   .     S
C698   O778    1.296   .     A
C699   C715    1.473   .     S
C699   C701    1.410   .     A
C700   C702    1.398   .     A
C701   C703    1.399   .     A
C702   H768    1.082   .     S
C702   C704    1.391   .     A
C703   C705    1.389   .     A
C703   H769    1.084   .     S
C704   C706    1.407   .     A
C704   F744    1.357   .     S
C705   C707    1.407   .     A
C705   F745    1.358   .     S
C706   C1001   1.474   1_545 S
C707   C1000   1.474   .     S
C708   C714    1.402   .     A
C708   C710    1.402   .     A
C709   C731    1.410   .     A
C709   F746    1.358   .     S
C710   H770    1.083   .     S
C710   C809    1.398   .     S
C711   C712    1.398   .     A
C711   H771    1.080   .     S
C712   H772    1.083   .     S
C713   H773    1.081   .     S
C713   C714    1.397   .     A
C713   C810    1.398   .     S
C714   H774    1.083   .     S
C715   C716    1.400   .     A
C715   C721    1.404   .     A
C716   C717    1.397   .     A
C716   H752    1.083   .     S
C717   H753    1.078   .     S
C717   C718    1.399   .     A
C718   H754    1.081   .     S
C718   C719    1.396   .     A
C719   C721    1.396   .     A
C720   F747    1.358   .     S
C720   C735    1.408   .     A
C721   H756    1.083   .     S
C722   C738    1.491   .     S
C722   C727    1.409   .     A
C723   C724    1.399   .     A
C723   H757    1.078   .     S
C723   C134    1.407   1_556 S
C724   H758    1.079   .     S
C724   C725    1.395   .     A
C725   H759    1.082   .     S
C725   C138    1.395   1_556 S
C726   C727    1.397   .     A
C726   H760    1.082   .     S
C727   H761    1.083   .     S
C728   C734    1.405   .     A
C728   C729    1.405   .     A
C729   C730    1.398   .     A
C729   H763    1.080   .     S
C730   C732    1.398   .     A
C731   F748    1.354   .     S
C731   N775    1.368   .     A
C732   C733    1.398   .     A
C733   C734    1.399   .     A
C733   H766    1.082   .     S
C734   H767    1.083   .     S
C735   F749    1.351   .     S
C735   N776    1.365   .     A
C736   F750    1.355   .     S
C736   N775    1.370   .     A
C736   C738    1.420   .     A
C737   N776    1.364   .     A
C737   F742    1.357   .     S
Cu739  O781    1.965   .     S
Cu739  Cu740   2.677   .     S
Cu739  O777    1.956   .     S
Cu739  O780    1.955   .     S
Cu739  O784    1.967   .     S
Cu739  N776    2.011   .     S
Cu740  O778    1.956   .     S
Cu740  O779    1.955   .     S
Cu740  O783    1.967   .     S
Cu740  O782    1.965   .     S
Cu740  N775    2.011   .     S
F741   C791    1.363   .     S
H755   C817    1.082   .     S
H764   C828    1.083   .     S
H765   C830    1.082   .     S
C785   O875    1.292   .     A
C785   O877    1.289   .     A
C785   C798    1.453   .     S
C786   C826    1.477   .     S
C786   C788    1.419   .     A
C786   C835    1.415   .     A
C787   C807    1.407   .     A
C787   C836    1.420   .     A
C788   C818    1.408   .     A
C788   C199    1.512   1_556 S
C789   O879    1.284   .     A
C789   C791    1.433   .     S
C789   O881    1.289   .     A
C790   O882    1.290   .     A
C790   C792    1.433   .     S
C790   O880    1.283   .     A
C792   C595    1.345   1_655 S
C792   F645    1.363   1_655 S
C793   C804    1.403   .     A
C793   C795    1.394   .     A
C793   H849    1.084   .     S
C794   H860    1.083   .     S
C794   C805    1.404   .     A
C794   C797    1.395   .     A
C795   C798    1.406   .     A
C795   C806    1.473   .     S
C796   O878    1.291   .     A
C796   C799    1.463   .     S
C796   O876    1.296   .     A
C797   C813    1.473   .     S
C797   C799    1.410   .     A
C798   C800    1.398   .     A
C799   C801    1.399   .     A
C800   H866    1.082   .     S
C800   C802    1.391   .     A
C801   C803    1.389   .     A
C801   H867    1.084   .     S
C802   C804    1.407   .     A
C802   F842    1.357   .     S
C803   C805    1.407   .     A
C803   F843    1.358   .     S
C804   C1099   1.474   1_545 S
C805   C1098   1.474   .     S
C806   C812    1.402   .     A
C806   C808    1.402   .     A
C807   C829    1.410   .     A
C807   F844    1.358   .     S
C808   H868    1.083   .     S
C808   C613    1.398   1_655 S
C809   C810    1.398   .     A
C809   H869    1.080   .     S
C810   H870    1.083   .     S
C811   H871    1.081   .     S
C811   C812    1.397   .     A
C811   C614    1.398   1_655 S
C812   H872    1.083   .     S
C813   C814    1.400   .     A
C813   C819    1.404   .     A
C814   C815    1.397   .     A
C814   H850    1.083   .     S
C815   H851    1.078   .     S
C815   C816    1.399   .     A
C816   H852    1.081   .     S
C816   C817    1.396   .     A
C817   C819    1.396   .     A
C818   F845    1.358   .     S
C818   C833    1.408   .     A
C819   H854    1.083   .     S
C820   C836    1.491   .     S
C820   C825    1.409   .     A
C821   C822    1.399   .     A
C821   H855    1.078   .     S
C821   C232    1.407   1_556 S
C822   H856    1.079   .     S
C822   C823    1.395   .     A
C823   H857    1.082   .     S
C823   C236    1.395   1_556 S
C824   C825    1.397   .     A
C824   H858    1.082   .     S
C825   H859    1.083   .     S
C826   C832    1.405   .     A
C826   C827    1.405   .     A
C827   C828    1.398   .     A
C827   H861    1.080   .     S
C828   C830    1.398   .     A
C829   F846    1.354   .     S
C829   N873    1.368   .     A
C830   C831    1.398   .     A
C831   C832    1.399   .     A
C831   H864    1.082   .     S
C832   H865    1.083   .     S
C833   F847    1.351   .     S
C833   N874    1.365   .     A
C834   F848    1.355   .     S
C834   N873    1.370   .     A
C834   C836    1.420   .     A
C835   N874    1.364   .     A
C835   F840    1.357   .     S
Cu837  O879    1.965   .     S
Cu837  Cu838   2.677   .     S
Cu837  O875    1.956   .     S
Cu837  O878    1.955   .     S
Cu837  O882    1.967   .     S
Cu837  N874    2.011   .     S
Cu838  O876    1.956   .     S
Cu838  O877    1.955   .     S
Cu838  O881    1.967   .     S
Cu838  O880    1.965   .     S
Cu838  N873    2.011   .     S
F839   C595    1.363   1_655 S
H853   C621    1.082   1_655 S
H862   C632    1.083   1_655 S
H863   C634    1.082   1_655 S
C883   O973    1.292   .     A
C883   O975    1.289   .     A
C883   C896    1.453   .     S
C884   C924    1.477   .     S
C884   C886    1.419   .     A
C884   C933    1.415   .     A
C885   C905    1.407   .     A
C885   C934    1.420   .     A
C886   C916    1.408   .     A
C886   C297    1.512   1_556 S
C887   O977    1.284   .     A
C887   C889    1.433   .     S
C887   O979    1.289   .     A
C888   O980    1.290   .     A
C888   C890    1.433   .     S
C888   O978    1.283   .     A
C889   C1086   1.345   1_455 S
C889   F1133   1.363   1_455 S
C890   C987    1.345   .     S
C890   F1037   1.363   .     S
C891   C902    1.403   .     A
C891   C893    1.394   .     A
C891   H947    1.084   .     S
C892   H958    1.083   .     S
C892   C903    1.404   .     A
C892   C895    1.395   .     A
C893   C896    1.406   .     A
C893   C904    1.473   .     S
C894   O976    1.291   .     A
C894   C897    1.463   .     S
C894   O974    1.296   .     A
C895   C911    1.473   .     S
C895   C897    1.410   .     A
C896   C898    1.398   .     A
C897   C899    1.399   .     A
C898   H964    1.082   .     S
C898   C900    1.391   .     A
C899   C901    1.389   .     A
C899   H965    1.084   .     S
C900   C902    1.407   .     A
C900   F940    1.357   .     S
C901   C903    1.407   .     A
C901   F941    1.358   .     S
C903   C608    1.474   1_565 S
C904   C910    1.402   .     A
C904   C906    1.402   .     A
C905   C927    1.410   .     A
C905   F942    1.358   .     S
C906   H966    1.083   .     S
C906   C1005   1.398   .     S
C907   C908    1.398   .     A
C907   H967    1.080   .     S
C907   C1102   1.398   1_455 S
C908   H968    1.083   .     S
C908   C1105   1.398   1_455 S
C909   H969    1.081   .     S
C909   C910    1.397   .     A
C909   C1006   1.398   .     S
C910   H970    1.083   .     S
C911   C912    1.400   .     A
C911   C917    1.404   .     A
C912   C913    1.397   .     A
C912   H948    1.083   .     S
C913   H949    1.078   .     S
C913   C914    1.399   .     A
C914   H950    1.081   .     S
C914   C915    1.396   .     A
C915   C917    1.396   .     A
C915   H1147   1.082   1_455 S
C916   F943    1.358   .     S
C916   C931    1.408   .     A
C917   H952    1.083   .     S
C918   C934    1.491   .     S
C918   C923    1.409   .     A
C919   C920    1.399   .     A
C919   H953    1.078   .     S
C919   C330    1.407   1_556 S
C920   H954    1.079   .     S
C920   C921    1.395   .     A
C921   H955    1.082   .     S
C921   C334    1.395   1_556 S
C922   C923    1.397   .     A
C922   H956    1.082   .     S
C923   H957    1.083   .     S
C924   C930    1.405   .     A
C924   C925    1.405   .     A
C925   C926    1.398   .     A
C925   H959    1.080   .     S
C926   C928    1.398   .     A
C926   H1156   1.083   1_455 S
C927   F944    1.354   .     S
C927   N971    1.368   .     A
C928   C929    1.398   .     A
C928   H1157   1.082   1_455 S
C929   C930    1.399   .     A
C929   H962    1.082   .     S
C930   H963    1.083   .     S
C931   F945    1.351   .     S
C931   N972    1.365   .     A
C932   F946    1.355   .     S
C932   N971    1.370   .     A
C932   C934    1.420   .     A
C933   N972    1.364   .     A
C933   F938    1.357   .     S
Cu935  O977    1.965   .     S
Cu935  Cu936   2.677   .     S
Cu935  O973    1.956   .     S
Cu935  O976    1.955   .     S
Cu935  O980    1.967   .     S
Cu935  N972    2.011   .     S
Cu936  O974    1.956   .     S
Cu936  O975    1.955   .     S
Cu936  O979    1.967   .     S
Cu936  O978    1.965   .     S
Cu936  N971    2.011   .     S
F937   C987    1.363   .     S
F939   C1086   1.363   1_455 S
H951   C1013   1.082   .     S
H960   C1024   1.083   .     S
H961   C1026   1.082   .     S
C981   O1071   1.292   .     A
C981   O1073   1.289   .     A
C981   C994    1.453   .     S
C982   C1022   1.477   .     S
C982   C984    1.419   .     A
C982   C1031   1.415   .     A
C983   C1003   1.407   .     A
C983   C1032   1.420   .     A
C984   C1014   1.408   .     A
C984   C395    1.512   1_556 S
C985   O1075   1.284   .     A
C985   C987    1.433   .     S
C985   O1077   1.289   .     A
C986   O1078   1.290   .     A
C986   C988    1.433   .     S
C986   O1076   1.283   .     A
C988   C1085   1.345   .     S
C988   F1135   1.363   .     S
C989   C1000   1.403   .     A
C989   C991    1.394   .     A
C989   H1045   1.084   .     S
C990   H1056   1.083   .     S
C990   C1001   1.404   .     A
C990   C993    1.395   .     A
C991   C994    1.406   .     A
C991   C1002   1.473   .     S
C992   O1074   1.291   .     A
C992   C995    1.463   .     S
C992   O1072   1.296   .     A
C993   C1009   1.473   .     S
C993   C995    1.410   .     A
C994   C996    1.398   .     A
C995   C997    1.399   .     A
C996   H1062   1.082   .     S
C996   C998    1.391   .     A
C997   C999    1.389   .     A
C997   H1063   1.084   .     S
C998   C1000   1.407   .     A
C998   F1038   1.357   .     S
C999   C1001   1.407   .     A
C999   F1039   1.358   .     S
C1001  C706    1.474   1_565 S
C1002  C1008   1.402   .     A
C1002  C1004   1.402   .     A
C1003  C1025   1.410   .     A
C1003  F1040   1.358   .     S
C1004  H1064   1.083   .     S
C1004  C1103   1.398   .     S
C1005  C1006   1.398   .     A
C1005  H1065   1.080   .     S
C1006  H1066   1.083   .     S
C1007  H1067   1.081   .     S
C1007  C1008   1.397   .     A
C1007  C1104   1.398   .     S
C1008  H1068   1.083   .     S
C1009  C1010   1.400   .     A
C1009  C1015   1.404   .     A
C1010  C1011   1.397   .     A
C1010  H1046   1.083   .     S
C1011  H1047   1.078   .     S
C1011  C1012   1.399   .     A
C1012  H1048   1.081   .     S
C1012  C1013   1.396   .     A
C1013  C1015   1.396   .     A
C1014  F1041   1.358   .     S
C1014  C1029   1.408   .     A
C1015  H1050   1.083   .     S
C1016  C1032   1.491   .     S
C1016  C1021   1.409   .     A
C1017  C1018   1.399   .     A
C1017  H1051   1.078   .     S
C1017  C428    1.407   1_556 S
C1018  H1052   1.079   .     S
C1018  C1019   1.395   .     A
C1019  H1053   1.082   .     S
C1019  C432    1.395   1_556 S
C1020  C1021   1.397   .     A
C1020  H1054   1.082   .     S
C1021  H1055   1.083   .     S
C1022  C1028   1.405   .     A
C1022  C1023   1.405   .     A
C1023  C1024   1.398   .     A
C1023  H1057   1.080   .     S
C1024  C1026   1.398   .     A
C1025  F1042   1.354   .     S
C1025  N1069   1.368   .     A
C1026  C1027   1.398   .     A
C1027  C1028   1.399   .     A
C1027  H1060   1.082   .     S
C1028  H1061   1.083   .     S
C1029  F1043   1.351   .     S
C1029  N1070   1.365   .     A
C1030  F1044   1.355   .     S
C1030  N1069   1.370   .     A
C1030  C1032   1.420   .     A
C1031  N1070   1.364   .     A
C1031  F1036   1.357   .     S
Cu1033 O1075   1.965   .     S
Cu1033 Cu1034  2.677   .     S
Cu1033 O1071   1.956   .     S
Cu1033 O1074   1.955   .     S
Cu1033 O1078   1.967   .     S
Cu1033 N1070   2.011   .     S
Cu1034 O1072   1.956   .     S
Cu1034 O1073   1.955   .     S
Cu1034 O1077   1.967   .     S
Cu1034 O1076   1.965   .     S
Cu1034 N1069   2.011   .     S
F1035  C1085   1.363   .     S
H1049  C1111   1.082   .     S
H1058  C1122   1.083   .     S
H1059  C1124   1.082   .     S
C1079  O1169   1.292   .     A
C1079  O1171   1.289   .     A
C1079  C1092   1.453   .     S
C1080  C1120   1.477   .     S
C1080  C1082   1.419   .     A
C1080  C1129   1.415   .     A
C1081  C1101   1.407   .     A
C1081  C1130   1.420   .     A
C1082  C1112   1.408   .     A
C1082  C493    1.512   1_556 S
C1083  O1173   1.284   .     A
C1083  C1085   1.433   .     S
C1083  O1175   1.289   .     A
C1084  O1176   1.290   .     A
C1084  C1086   1.433   .     S
C1084  O1174   1.283   .     A
C1086  C889    1.345   1_655 S
C1086  F939    1.363   1_655 S
C1087  C1098   1.403   .     A
C1087  C1089   1.394   .     A
C1087  H1143   1.084   .     S
C1088  H1154   1.083   .     S
C1088  C1099   1.404   .     A
C1088  C1091   1.395   .     A
C1089  C1092   1.406   .     A
C1089  C1100   1.473   .     S
C1090  O1172   1.291   .     A
C1090  C1093   1.463   .     S
C1090  O1170   1.296   .     A
C1091  C1107   1.473   .     S
C1091  C1093   1.410   .     A
C1092  C1094   1.398   .     A
C1093  C1095   1.399   .     A
C1094  H1160   1.082   .     S
C1094  C1096   1.391   .     A
C1095  C1097   1.389   .     A
C1095  H1161   1.084   .     S
C1096  C1098   1.407   .     A
C1096  F1136   1.357   .     S
C1097  C1099   1.407   .     A
C1097  F1137   1.358   .     S
C1099  C804    1.474   1_565 S
C1100  C1106   1.402   .     A
C1100  C1102   1.402   .     A
C1101  C1123   1.410   .     A
C1101  F1138   1.358   .     S
C1102  H1162   1.083   .     S
C1102  C907    1.398   1_655 S
C1103  C1104   1.398   .     A
C1103  H1163   1.080   .     S
C1104  H1164   1.083   .     S
C1105  H1165   1.081   .     S
C1105  C1106   1.397   .     A
C1105  C908    1.398   1_655 S
C1106  H1166   1.083   .     S
C1107  C1108   1.400   .     A
C1107  C1113   1.404   .     A
C1108  C1109   1.397   .     A
C1108  H1144   1.083   .     S
C1109  H1145   1.078   .     S
C1109  C1110   1.399   .     A
C1110  H1146   1.081   .     S
C1110  C1111   1.396   .     A
C1111  C1113   1.396   .     A
C1112  F1139   1.358   .     S
C1112  C1127   1.408   .     A
C1113  H1148   1.083   .     S
C1114  C1130   1.491   .     S
C1114  C1119   1.409   .     A
C1115  C1116   1.399   .     A
C1115  H1149   1.078   .     S
C1115  C526    1.407   1_556 S
C1116  H1150   1.079   .     S
C1116  C1117   1.395   .     A
C1117  H1151   1.082   .     S
C1117  C530    1.395   1_556 S
C1118  C1119   1.397   .     A
C1118  H1152   1.082   .     S
C1119  H1153   1.083   .     S
C1120  C1126   1.405   .     A
C1120  C1121   1.405   .     A
C1121  C1122   1.398   .     A
C1121  H1155   1.080   .     S
C1122  C1124   1.398   .     A
C1123  F1140   1.354   .     S
C1123  N1167   1.368   .     A
C1124  C1125   1.398   .     A
C1125  C1126   1.399   .     A
C1125  H1158   1.082   .     S
C1126  H1159   1.083   .     S
C1127  F1141   1.351   .     S
C1127  N1168   1.365   .     A
C1128  F1142   1.355   .     S
C1128  N1167   1.370   .     A
C1128  C1130   1.420   .     A
C1129  N1168   1.364   .     A
C1129  F1134   1.357   .     S
Cu1131 O1173   1.965   .     S
Cu1131 Cu1132  2.677   .     S
Cu1131 O1169   1.956   .     S
Cu1131 O1172   1.955   .     S
Cu1131 O1176   1.967   .     S
Cu1131 N1168   2.011   .     S
Cu1132 O1170   1.956   .     S
Cu1132 O1171   1.955   .     S
Cu1132 O1175   1.967   .     S
Cu1132 O1174   1.965   .     S
Cu1132 N1167   2.011   .     S
F1133  C889    1.363   1_655 S
H1147  C915    1.082   1_655 S
H1156  C926    1.083   1_655 S
H1157  C928    1.082   1_655 S
