data_str_m2_o2_o10_pcu_sym.212
_audit_creation_date              2020-01-03
_audit_creation_method            'Materials Studio'
_symmetry_space_group_name_H-M    'P1'
_symmetry_Int_Tables_number       1
_symmetry_cell_setting            triclinic
loop_
_symmetry_equiv_pos_as_xyz
  x,y,z
_cell_length_a                    26.5078
_cell_length_b                    30.2928
_cell_length_c                    27.8882
_cell_angle_alpha                 90.4796
_cell_angle_beta                  98.1683
_cell_angle_gamma                 92.1181
loop_
_atom_site_label
_atom_site_type_symbol
_atom_site_fract_x
_atom_site_fract_y
_atom_site_fract_z
_atom_site_U_iso_or_equiv
_atom_site_adp_type
_atom_site_occupancy
C1     C     0.16814   0.16492   0.25021   0.00000  Uiso   1.00
C2     C     0.16773   0.33495   0.25024   0.00000  Uiso   1.00
C3     C     0.19766   0.28072   0.05911   0.00000  Uiso   1.00
C4     C     0.13859   0.21743   0.44134   0.00000  Uiso   1.00
C5     C     0.19639   0.28026   0.10941   0.00000  Uiso   1.00
C6     C     0.13891   0.21844   0.39092   0.00000  Uiso   1.00
C7     C     0.13554   0.22088   0.09937   0.00000  Uiso   1.00
C8     C     0.19539   0.28099   0.40023   0.00000  Uiso   1.00
C9     C     0.13507   0.22112   0.04916   0.00000  Uiso   1.00
C10    C     0.19483   0.28157   0.45030   0.00000  Uiso   1.00
C11    C     0.16668   0.25058   0.02736   0.00000  Uiso   1.00
C12    C     0.16652   0.24977   0.47261   0.00000  Uiso   1.00
C13    C     0.06799   0.25037   0.23756   0.00000  Uiso   1.00
C14    C     0.26534   0.25011   0.26246   0.00000  Uiso   1.00
C15    C     0.01294   0.25484   0.23117   0.00000  Uiso   1.00
C16    C     0.32040   0.24637   0.26899   0.00000  Uiso   1.00
C17    C     0.18434   0.04759   0.29422   0.00000  Uiso   1.00
C18    C     0.19603   0.45250   0.21664   0.00000  Uiso   1.00
C19    C     0.18222   0.09372   0.29526   0.00000  Uiso   1.00
C20    C     0.19595   0.40647   0.21687   0.00000  Uiso   1.00
C21    C     0.17109   0.11645   0.25102   0.00000  Uiso   1.00
C22    C     0.17059   0.38317   0.25066   0.00000  Uiso   1.00
C23    C     0.16235   0.09240   0.20719   0.00000  Uiso   1.00
C24    C     0.14802   0.40634   0.28517   0.00000  Uiso   1.00
C25    C     0.16265   0.04657   0.20697   0.00000  Uiso   1.00
C26    C     0.14899   0.45222   0.28516   0.00000  Uiso   1.00
C27    C     0.17316   0.02394   0.25053   0.00000  Uiso   1.00
C28    C     0.17270   0.47553   0.25071   0.00000  Uiso   1.00
Cu29   Cu    0.16667   0.24999   0.29822   0.00000  Uiso   1.00
Cu30   Cu    0.16667   0.25000   0.20179   0.00000  Uiso   1.00
H31    H     0.19568   0.03005   0.32744   0.00000  Uiso   1.00
H32    H     0.21518   0.47017   0.19036   0.00000  Uiso   1.00
H33    H     0.15483   0.10888   0.17288   0.00000  Uiso   1.00
H34    H     0.12872   0.38894   0.31154   0.00000  Uiso   1.00
H35    H     0.15421   0.02879   0.17274   0.00000  Uiso   1.00
H36    H     0.13040   0.46952   0.31152   0.00000  Uiso   1.00
H37    H     0.22344   0.30479   0.04644   0.00000  Uiso   1.00
H38    H     0.11636   0.19093   0.45457   0.00000  Uiso   1.00
H39    H     0.22012   0.30380   0.13267   0.00000  Uiso   1.00
H40    H     0.11656   0.19386   0.36789   0.00000  Uiso   1.00
H41    H     0.10905   0.19796   0.02800   0.00000  Uiso   1.00
H42    H     0.21728   0.30739   0.47092   0.00000  Uiso   1.00
N43    N     0.16667   0.25001   0.12935   0.00000  Uiso   1.00
N44    N     0.16667   0.24999   0.37066   0.00000  Uiso   1.00
O45    O     0.16667   0.18572   0.29072   0.00000  Uiso   1.00
O46    O     0.16666   0.31427   0.20929   0.00000  Uiso   1.00
O47    O     0.16667   0.18573   0.20928   0.00000  Uiso   1.00
O48    O     0.16666   0.31427   0.29072   0.00000  Uiso   1.00
O49    O     0.09161   0.25000   0.28132   0.00000  Uiso   1.00
O50    O     0.24172   0.25000   0.21868   0.00000  Uiso   1.00
O51    O     0.09161   0.25000   0.19988   0.00000  Uiso   1.00
O52    O     0.24172   0.25000   0.30012   0.00000  Uiso   1.00
O53    O     0.32287   0.27599   0.19021   0.00000  Uiso   1.00
C54    C     0.32383   0.24963   0.14839   0.00000  Uiso   1.00
H55    H     0.31952   0.21356   0.15517   0.00000  Uiso   1.00
H56    H     0.02529   0.25770   0.13190   0.00000  Uiso   1.00
H57    H     0.29170   0.25803   0.12080   0.00000  Uiso   1.00
O58    O     0.01054   0.22632   0.31062   0.00000  Uiso   1.00
C59    C     0.01113   0.25471   0.35117   0.00000  Uiso   1.00
H60    H     0.31033   0.24778   0.36908   0.00000  Uiso   1.00
H61    H     0.01482   0.29043   0.34234   0.00000  Uiso   1.00
H62    H     0.04437   0.24749   0.37818   0.00000  Uiso   1.00
O63    O     0.19643   0.11698   0.33844   0.00000  Uiso   1.00
C64    C     0.16314   0.10528   0.37195   0.00000  Uiso   1.00
H65    H     0.12240   0.10776   0.35593   0.00000  Uiso   1.00
H66    H     0.17062   0.12860   0.40320   0.00000  Uiso   1.00
H67    H     0.17038   0.07177   0.38656   0.00000  Uiso   1.00
O68    O     0.21946   0.38458   0.18296   0.00000  Uiso   1.00
C69    C     0.27090   0.37932   0.20251   0.00000  Uiso   1.00
H70    H     0.29014   0.36256   0.17501   0.00000  Uiso   1.00
H71    H     0.27414   0.35817   0.23518   0.00000  Uiso   1.00
H72    H     0.29134   0.41180   0.21125   0.00000  Uiso   1.00
I73    I     0.08404   0.17323   0.12284   0.00000  Uiso   1.00
I74    I     0.24519   0.33019   0.37654   0.00000  Uiso   1.00
C75    C     0.50147   0.16492   0.25021   0.00000  Uiso   1.00
C76    C     0.50106   0.33495   0.25024   0.00000  Uiso   1.00
C77    C     0.53100   0.28072   0.05911   0.00000  Uiso   1.00
C78    C     0.47193   0.21743   0.44134   0.00000  Uiso   1.00
C79    C     0.52972   0.28026   0.10941   0.00000  Uiso   1.00
C80    C     0.47225   0.21844   0.39092   0.00000  Uiso   1.00
C81    C     0.46888   0.22088   0.09937   0.00000  Uiso   1.00
C82    C     0.52872   0.28099   0.40023   0.00000  Uiso   1.00
C83    C     0.46841   0.22112   0.04916   0.00000  Uiso   1.00
C84    C     0.52816   0.28157   0.45030   0.00000  Uiso   1.00
C85    C     0.50002   0.25058   0.02736   0.00000  Uiso   1.00
C86    C     0.49985   0.24977   0.47261   0.00000  Uiso   1.00
C87    C     0.40132   0.25037   0.23756   0.00000  Uiso   1.00
C88    C     0.59867   0.25011   0.26246   0.00000  Uiso   1.00
C89    C     0.34628   0.25484   0.23117   0.00000  Uiso   1.00
C90    C     0.65373   0.24637   0.26899   0.00000  Uiso   1.00
C91    C     0.51767   0.04759   0.29422   0.00000  Uiso   1.00
C92    C     0.52936   0.45250   0.21664   0.00000  Uiso   1.00
C93    C     0.51555   0.09372   0.29526   0.00000  Uiso   1.00
C94    C     0.52928   0.40647   0.21687   0.00000  Uiso   1.00
C95    C     0.50442   0.11645   0.25102   0.00000  Uiso   1.00
C96    C     0.50392   0.38317   0.25066   0.00000  Uiso   1.00
C97    C     0.49568   0.09240   0.20719   0.00000  Uiso   1.00
C98    C     0.48135   0.40634   0.28517   0.00000  Uiso   1.00
C99    C     0.49599   0.04657   0.20697   0.00000  Uiso   1.00
C100   C     0.48233   0.45222   0.28516   0.00000  Uiso   1.00
C101   C     0.50649   0.02394   0.25053   0.00000  Uiso   1.00
C102   C     0.50604   0.47553   0.25071   0.00000  Uiso   1.00
Cu103  Cu    0.50000   0.24999   0.29822   0.00000  Uiso   1.00
Cu104  Cu    0.50000   0.25000   0.20179   0.00000  Uiso   1.00
H105   H     0.52901   0.03005   0.32744   0.00000  Uiso   1.00
H106   H     0.54852   0.47017   0.19036   0.00000  Uiso   1.00
H107   H     0.48817   0.10888   0.17288   0.00000  Uiso   1.00
H108   H     0.46206   0.38894   0.31154   0.00000  Uiso   1.00
H109   H     0.48754   0.02879   0.17274   0.00000  Uiso   1.00
H110   H     0.46373   0.46952   0.31152   0.00000  Uiso   1.00
H111   H     0.55678   0.30479   0.04644   0.00000  Uiso   1.00
H112   H     0.44969   0.19093   0.45457   0.00000  Uiso   1.00
H113   H     0.55345   0.30380   0.13267   0.00000  Uiso   1.00
H114   H     0.44989   0.19386   0.36789   0.00000  Uiso   1.00
H115   H     0.44238   0.19796   0.02800   0.00000  Uiso   1.00
H116   H     0.55061   0.30739   0.47092   0.00000  Uiso   1.00
N117   N     0.50000   0.25001   0.12935   0.00000  Uiso   1.00
N118   N     0.50000   0.24999   0.37066   0.00000  Uiso   1.00
O119   O     0.50000   0.18572   0.29072   0.00000  Uiso   1.00
O120   O     0.50000   0.31427   0.20929   0.00000  Uiso   1.00
O121   O     0.50000   0.18573   0.20928   0.00000  Uiso   1.00
O122   O     0.50000   0.31427   0.29072   0.00000  Uiso   1.00
O123   O     0.42495   0.25000   0.28132   0.00000  Uiso   1.00
O124   O     0.57505   0.25000   0.21868   0.00000  Uiso   1.00
O125   O     0.42495   0.25000   0.19988   0.00000  Uiso   1.00
O126   O     0.57505   0.25000   0.30012   0.00000  Uiso   1.00
O127   O     0.65620   0.27599   0.19021   0.00000  Uiso   1.00
C128   C     0.65716   0.24963   0.14839   0.00000  Uiso   1.00
H129   H     0.65285   0.21356   0.15517   0.00000  Uiso   1.00
H130   H     0.35862   0.25770   0.13190   0.00000  Uiso   1.00
H131   H     0.62503   0.25803   0.12080   0.00000  Uiso   1.00
O132   O     0.34387   0.22632   0.31062   0.00000  Uiso   1.00
C133   C     0.34447   0.25471   0.35117   0.00000  Uiso   1.00
H134   H     0.64366   0.24778   0.36908   0.00000  Uiso   1.00
H135   H     0.34815   0.29043   0.34234   0.00000  Uiso   1.00
H136   H     0.37770   0.24749   0.37818   0.00000  Uiso   1.00
O137   O     0.52976   0.11698   0.33844   0.00000  Uiso   1.00
C138   C     0.49648   0.10528   0.37195   0.00000  Uiso   1.00
H139   H     0.45573   0.10776   0.35593   0.00000  Uiso   1.00
H140   H     0.50396   0.12860   0.40320   0.00000  Uiso   1.00
H141   H     0.50372   0.07177   0.38656   0.00000  Uiso   1.00
O142   O     0.55279   0.38458   0.18296   0.00000  Uiso   1.00
C143   C     0.60423   0.37932   0.20251   0.00000  Uiso   1.00
H144   H     0.62347   0.36256   0.17501   0.00000  Uiso   1.00
H145   H     0.60747   0.35817   0.23518   0.00000  Uiso   1.00
H146   H     0.62467   0.41180   0.21125   0.00000  Uiso   1.00
I147   I     0.41737   0.17323   0.12284   0.00000  Uiso   1.00
I148   I     0.57852   0.33019   0.37654   0.00000  Uiso   1.00
C149   C     0.83481   0.16492   0.25021   0.00000  Uiso   1.00
C150   C     0.83440   0.33495   0.25024   0.00000  Uiso   1.00
C151   C     0.86433   0.28072   0.05911   0.00000  Uiso   1.00
C152   C     0.80526   0.21743   0.44134   0.00000  Uiso   1.00
C153   C     0.86305   0.28026   0.10941   0.00000  Uiso   1.00
C154   C     0.80558   0.21844   0.39092   0.00000  Uiso   1.00
C155   C     0.80221   0.22088   0.09937   0.00000  Uiso   1.00
C156   C     0.86206   0.28099   0.40023   0.00000  Uiso   1.00
C157   C     0.80174   0.22112   0.04916   0.00000  Uiso   1.00
C158   C     0.86150   0.28157   0.45030   0.00000  Uiso   1.00
C159   C     0.83335   0.25058   0.02736   0.00000  Uiso   1.00
C160   C     0.83319   0.24977   0.47261   0.00000  Uiso   1.00
C161   C     0.73466   0.25037   0.23756   0.00000  Uiso   1.00
C162   C     0.93200   0.25011   0.26246   0.00000  Uiso   1.00
C163   C     0.67961   0.25484   0.23117   0.00000  Uiso   1.00
C164   C     0.98706   0.24637   0.26899   0.00000  Uiso   1.00
C165   C     0.85101   0.04759   0.29422   0.00000  Uiso   1.00
C166   C     0.86269   0.45250   0.21664   0.00000  Uiso   1.00
C167   C     0.84889   0.09372   0.29526   0.00000  Uiso   1.00
C168   C     0.86262   0.40647   0.21687   0.00000  Uiso   1.00
C169   C     0.83775   0.11645   0.25102   0.00000  Uiso   1.00
C170   C     0.83726   0.38317   0.25066   0.00000  Uiso   1.00
C171   C     0.82901   0.09240   0.20719   0.00000  Uiso   1.00
C172   C     0.81468   0.40634   0.28517   0.00000  Uiso   1.00
C173   C     0.82932   0.04657   0.20697   0.00000  Uiso   1.00
C174   C     0.81566   0.45222   0.28516   0.00000  Uiso   1.00
C175   C     0.83983   0.02394   0.25053   0.00000  Uiso   1.00
C176   C     0.83937   0.47553   0.25071   0.00000  Uiso   1.00
Cu177  Cu    0.83333   0.24999   0.29822   0.00000  Uiso   1.00
Cu178  Cu    0.83333   0.25000   0.20179   0.00000  Uiso   1.00
H179   H     0.86235   0.03005   0.32744   0.00000  Uiso   1.00
H180   H     0.88185   0.47017   0.19036   0.00000  Uiso   1.00
H181   H     0.82150   0.10888   0.17288   0.00000  Uiso   1.00
H182   H     0.79539   0.38894   0.31154   0.00000  Uiso   1.00
H183   H     0.82087   0.02879   0.17274   0.00000  Uiso   1.00
H184   H     0.79707   0.46952   0.31152   0.00000  Uiso   1.00
H185   H     0.89011   0.30479   0.04644   0.00000  Uiso   1.00
H186   H     0.78303   0.19093   0.45457   0.00000  Uiso   1.00
H187   H     0.88679   0.30380   0.13267   0.00000  Uiso   1.00
H188   H     0.78322   0.19386   0.36789   0.00000  Uiso   1.00
H189   H     0.77572   0.19796   0.02800   0.00000  Uiso   1.00
H190   H     0.88395   0.30739   0.47092   0.00000  Uiso   1.00
N191   N     0.83333   0.25001   0.12935   0.00000  Uiso   1.00
N192   N     0.83333   0.24999   0.37066   0.00000  Uiso   1.00
O193   O     0.83334   0.18572   0.29072   0.00000  Uiso   1.00
O194   O     0.83333   0.31427   0.20929   0.00000  Uiso   1.00
O195   O     0.83334   0.18573   0.20928   0.00000  Uiso   1.00
O196   O     0.83333   0.31427   0.29072   0.00000  Uiso   1.00
O197   O     0.75828   0.25000   0.28132   0.00000  Uiso   1.00
O198   O     0.90839   0.25000   0.21868   0.00000  Uiso   1.00
O199   O     0.75828   0.25000   0.19988   0.00000  Uiso   1.00
O200   O     0.90839   0.25000   0.30012   0.00000  Uiso   1.00
O201   O     0.98954   0.27599   0.19021   0.00000  Uiso   1.00
C202   C     0.99049   0.24963   0.14839   0.00000  Uiso   1.00
H203   H     0.98618   0.21356   0.15517   0.00000  Uiso   1.00
H204   H     0.69196   0.25770   0.13190   0.00000  Uiso   1.00
H205   H     0.95837   0.25803   0.12080   0.00000  Uiso   1.00
O206   O     0.67721   0.22632   0.31062   0.00000  Uiso   1.00
C207   C     0.67780   0.25471   0.35117   0.00000  Uiso   1.00
H208   H     0.97700   0.24778   0.36908   0.00000  Uiso   1.00
H209   H     0.68148   0.29043   0.34234   0.00000  Uiso   1.00
H210   H     0.71104   0.24749   0.37818   0.00000  Uiso   1.00
O211   O     0.86309   0.11698   0.33844   0.00000  Uiso   1.00
C212   C     0.82981   0.10528   0.37195   0.00000  Uiso   1.00
H213   H     0.78906   0.10776   0.35593   0.00000  Uiso   1.00
H214   H     0.83729   0.12860   0.40320   0.00000  Uiso   1.00
H215   H     0.83705   0.07177   0.38656   0.00000  Uiso   1.00
O216   O     0.88612   0.38458   0.18296   0.00000  Uiso   1.00
C217   C     0.93757   0.37932   0.20251   0.00000  Uiso   1.00
H218   H     0.95680   0.36256   0.17501   0.00000  Uiso   1.00
H219   H     0.94081   0.35817   0.23518   0.00000  Uiso   1.00
H220   H     0.95800   0.41180   0.21125   0.00000  Uiso   1.00
I221   I     0.75070   0.17323   0.12284   0.00000  Uiso   1.00
I222   I     0.91186   0.33019   0.37654   0.00000  Uiso   1.00
C223   C     0.16814   0.66492   0.25021   0.00000  Uiso   1.00
C224   C     0.16773   0.83495   0.25024   0.00000  Uiso   1.00
C225   C     0.19766   0.78072   0.05911   0.00000  Uiso   1.00
C226   C     0.13859   0.71743   0.44134   0.00000  Uiso   1.00
C227   C     0.19639   0.78026   0.10941   0.00000  Uiso   1.00
C228   C     0.13891   0.71844   0.39092   0.00000  Uiso   1.00
C229   C     0.13554   0.72088   0.09937   0.00000  Uiso   1.00
C230   C     0.19539   0.78099   0.40023   0.00000  Uiso   1.00
C231   C     0.13507   0.72112   0.04916   0.00000  Uiso   1.00
C232   C     0.19483   0.78157   0.45030   0.00000  Uiso   1.00
C233   C     0.16668   0.75058   0.02736   0.00000  Uiso   1.00
C234   C     0.16652   0.74977   0.47261   0.00000  Uiso   1.00
C235   C     0.06799   0.75037   0.23756   0.00000  Uiso   1.00
C236   C     0.26534   0.75011   0.26246   0.00000  Uiso   1.00
C237   C     0.01294   0.75484   0.23117   0.00000  Uiso   1.00
C238   C     0.32040   0.74637   0.26899   0.00000  Uiso   1.00
C239   C     0.18434   0.54759   0.29422   0.00000  Uiso   1.00
C240   C     0.19603   0.95250   0.21664   0.00000  Uiso   1.00
C241   C     0.18222   0.59372   0.29526   0.00000  Uiso   1.00
C242   C     0.19595   0.90647   0.21687   0.00000  Uiso   1.00
C243   C     0.17109   0.61645   0.25102   0.00000  Uiso   1.00
C244   C     0.17059   0.88317   0.25066   0.00000  Uiso   1.00
C245   C     0.16235   0.59240   0.20719   0.00000  Uiso   1.00
C246   C     0.14802   0.90634   0.28517   0.00000  Uiso   1.00
C247   C     0.16265   0.54657   0.20697   0.00000  Uiso   1.00
C248   C     0.14899   0.95222   0.28516   0.00000  Uiso   1.00
C249   C     0.17316   0.52394   0.25053   0.00000  Uiso   1.00
C250   C     0.17270   0.97553   0.25071   0.00000  Uiso   1.00
Cu251  Cu    0.16667   0.74999   0.29822   0.00000  Uiso   1.00
Cu252  Cu    0.16667   0.75000   0.20179   0.00000  Uiso   1.00
H253   H     0.19568   0.53005   0.32744   0.00000  Uiso   1.00
H254   H     0.21518   0.97017   0.19036   0.00000  Uiso   1.00
H255   H     0.15483   0.60888   0.17288   0.00000  Uiso   1.00
H256   H     0.12872   0.88894   0.31154   0.00000  Uiso   1.00
H257   H     0.15421   0.52879   0.17274   0.00000  Uiso   1.00
H258   H     0.13040   0.96952   0.31152   0.00000  Uiso   1.00
H259   H     0.22344   0.80479   0.04644   0.00000  Uiso   1.00
H260   H     0.11636   0.69093   0.45457   0.00000  Uiso   1.00
H261   H     0.22012   0.80380   0.13267   0.00000  Uiso   1.00
H262   H     0.11656   0.69386   0.36789   0.00000  Uiso   1.00
H263   H     0.10905   0.69796   0.02800   0.00000  Uiso   1.00
H264   H     0.21728   0.80739   0.47092   0.00000  Uiso   1.00
N265   N     0.16667   0.75001   0.12935   0.00000  Uiso   1.00
N266   N     0.16667   0.74999   0.37066   0.00000  Uiso   1.00
O267   O     0.16667   0.68572   0.29072   0.00000  Uiso   1.00
O268   O     0.16666   0.81427   0.20929   0.00000  Uiso   1.00
O269   O     0.16667   0.68573   0.20928   0.00000  Uiso   1.00
O270   O     0.16666   0.81427   0.29072   0.00000  Uiso   1.00
O271   O     0.09161   0.75000   0.28132   0.00000  Uiso   1.00
O272   O     0.24172   0.75000   0.21868   0.00000  Uiso   1.00
O273   O     0.09161   0.75000   0.19988   0.00000  Uiso   1.00
O274   O     0.24172   0.75000   0.30012   0.00000  Uiso   1.00
O275   O     0.32287   0.77599   0.19021   0.00000  Uiso   1.00
C276   C     0.32383   0.74963   0.14839   0.00000  Uiso   1.00
H277   H     0.31952   0.71356   0.15517   0.00000  Uiso   1.00
H278   H     0.02529   0.75770   0.13190   0.00000  Uiso   1.00
H279   H     0.29170   0.75803   0.12080   0.00000  Uiso   1.00
O280   O     0.01054   0.72632   0.31062   0.00000  Uiso   1.00
C281   C     0.01113   0.75471   0.35117   0.00000  Uiso   1.00
H282   H     0.31033   0.74778   0.36908   0.00000  Uiso   1.00
H283   H     0.01482   0.79043   0.34234   0.00000  Uiso   1.00
H284   H     0.04437   0.74749   0.37818   0.00000  Uiso   1.00
O285   O     0.19643   0.61698   0.33844   0.00000  Uiso   1.00
C286   C     0.16314   0.60528   0.37195   0.00000  Uiso   1.00
H287   H     0.12240   0.60776   0.35593   0.00000  Uiso   1.00
H288   H     0.17062   0.62860   0.40320   0.00000  Uiso   1.00
H289   H     0.17038   0.57177   0.38656   0.00000  Uiso   1.00
O290   O     0.21946   0.88458   0.18296   0.00000  Uiso   1.00
C291   C     0.27090   0.87932   0.20251   0.00000  Uiso   1.00
H292   H     0.29014   0.86256   0.17501   0.00000  Uiso   1.00
H293   H     0.27414   0.85817   0.23518   0.00000  Uiso   1.00
H294   H     0.29134   0.91180   0.21125   0.00000  Uiso   1.00
I295   I     0.08404   0.67323   0.12284   0.00000  Uiso   1.00
I296   I     0.24519   0.83019   0.37654   0.00000  Uiso   1.00
C297   C     0.50147   0.66492   0.25021   0.00000  Uiso   1.00
C298   C     0.50106   0.83495   0.25024   0.00000  Uiso   1.00
C299   C     0.53100   0.78072   0.05911   0.00000  Uiso   1.00
C300   C     0.47193   0.71743   0.44134   0.00000  Uiso   1.00
C301   C     0.52972   0.78026   0.10941   0.00000  Uiso   1.00
C302   C     0.47225   0.71844   0.39092   0.00000  Uiso   1.00
C303   C     0.46888   0.72088   0.09937   0.00000  Uiso   1.00
C304   C     0.52872   0.78099   0.40023   0.00000  Uiso   1.00
C305   C     0.46841   0.72112   0.04916   0.00000  Uiso   1.00
C306   C     0.52816   0.78157   0.45030   0.00000  Uiso   1.00
C307   C     0.50002   0.75058   0.02736   0.00000  Uiso   1.00
C308   C     0.49985   0.74977   0.47261   0.00000  Uiso   1.00
C309   C     0.40132   0.75037   0.23756   0.00000  Uiso   1.00
C310   C     0.59867   0.75011   0.26246   0.00000  Uiso   1.00
C311   C     0.34628   0.75484   0.23117   0.00000  Uiso   1.00
C312   C     0.65373   0.74637   0.26899   0.00000  Uiso   1.00
C313   C     0.51767   0.54759   0.29422   0.00000  Uiso   1.00
C314   C     0.52936   0.95250   0.21664   0.00000  Uiso   1.00
C315   C     0.51555   0.59372   0.29526   0.00000  Uiso   1.00
C316   C     0.52928   0.90647   0.21687   0.00000  Uiso   1.00
C317   C     0.50442   0.61645   0.25102   0.00000  Uiso   1.00
C318   C     0.50392   0.88317   0.25066   0.00000  Uiso   1.00
C319   C     0.49568   0.59240   0.20719   0.00000  Uiso   1.00
C320   C     0.48135   0.90634   0.28517   0.00000  Uiso   1.00
C321   C     0.49599   0.54657   0.20697   0.00000  Uiso   1.00
C322   C     0.48233   0.95222   0.28516   0.00000  Uiso   1.00
C323   C     0.50649   0.52394   0.25053   0.00000  Uiso   1.00
C324   C     0.50604   0.97553   0.25071   0.00000  Uiso   1.00
Cu325  Cu    0.50000   0.74999   0.29822   0.00000  Uiso   1.00
Cu326  Cu    0.50000   0.75000   0.20179   0.00000  Uiso   1.00
H327   H     0.52901   0.53005   0.32744   0.00000  Uiso   1.00
H328   H     0.54852   0.97017   0.19036   0.00000  Uiso   1.00
H329   H     0.48817   0.60888   0.17288   0.00000  Uiso   1.00
H330   H     0.46206   0.88894   0.31154   0.00000  Uiso   1.00
H331   H     0.48754   0.52879   0.17274   0.00000  Uiso   1.00
H332   H     0.46373   0.96952   0.31152   0.00000  Uiso   1.00
H333   H     0.55678   0.80479   0.04644   0.00000  Uiso   1.00
H334   H     0.44969   0.69093   0.45457   0.00000  Uiso   1.00
H335   H     0.55345   0.80380   0.13267   0.00000  Uiso   1.00
H336   H     0.44989   0.69386   0.36789   0.00000  Uiso   1.00
H337   H     0.44238   0.69796   0.02800   0.00000  Uiso   1.00
H338   H     0.55061   0.80739   0.47092   0.00000  Uiso   1.00
N339   N     0.50000   0.75001   0.12935   0.00000  Uiso   1.00
N340   N     0.50000   0.74999   0.37066   0.00000  Uiso   1.00
O341   O     0.50000   0.68572   0.29072   0.00000  Uiso   1.00
O342   O     0.50000   0.81427   0.20929   0.00000  Uiso   1.00
O343   O     0.50000   0.68573   0.20928   0.00000  Uiso   1.00
O344   O     0.50000   0.81427   0.29072   0.00000  Uiso   1.00
O345   O     0.42495   0.75000   0.28132   0.00000  Uiso   1.00
O346   O     0.57505   0.75000   0.21868   0.00000  Uiso   1.00
O347   O     0.42495   0.75000   0.19988   0.00000  Uiso   1.00
O348   O     0.57505   0.75000   0.30012   0.00000  Uiso   1.00
O349   O     0.65620   0.77599   0.19021   0.00000  Uiso   1.00
C350   C     0.65716   0.74963   0.14839   0.00000  Uiso   1.00
H351   H     0.65285   0.71356   0.15517   0.00000  Uiso   1.00
H352   H     0.35862   0.75770   0.13190   0.00000  Uiso   1.00
H353   H     0.62503   0.75803   0.12080   0.00000  Uiso   1.00
O354   O     0.34387   0.72632   0.31062   0.00000  Uiso   1.00
C355   C     0.34447   0.75471   0.35117   0.00000  Uiso   1.00
H356   H     0.64366   0.74778   0.36908   0.00000  Uiso   1.00
H357   H     0.34815   0.79043   0.34234   0.00000  Uiso   1.00
H358   H     0.37770   0.74749   0.37818   0.00000  Uiso   1.00
O359   O     0.52976   0.61698   0.33844   0.00000  Uiso   1.00
C360   C     0.49648   0.60528   0.37195   0.00000  Uiso   1.00
H361   H     0.45573   0.60776   0.35593   0.00000  Uiso   1.00
H362   H     0.50396   0.62860   0.40320   0.00000  Uiso   1.00
H363   H     0.50372   0.57177   0.38656   0.00000  Uiso   1.00
O364   O     0.55279   0.88458   0.18296   0.00000  Uiso   1.00
C365   C     0.60423   0.87932   0.20251   0.00000  Uiso   1.00
H366   H     0.62347   0.86256   0.17501   0.00000  Uiso   1.00
H367   H     0.60747   0.85817   0.23518   0.00000  Uiso   1.00
H368   H     0.62467   0.91180   0.21125   0.00000  Uiso   1.00
I369   I     0.41737   0.67323   0.12284   0.00000  Uiso   1.00
I370   I     0.57852   0.83019   0.37654   0.00000  Uiso   1.00
C371   C     0.83481   0.66492   0.25021   0.00000  Uiso   1.00
C372   C     0.83440   0.83495   0.25024   0.00000  Uiso   1.00
C373   C     0.86433   0.78072   0.05911   0.00000  Uiso   1.00
C374   C     0.80526   0.71743   0.44134   0.00000  Uiso   1.00
C375   C     0.86305   0.78026   0.10941   0.00000  Uiso   1.00
C376   C     0.80558   0.71844   0.39092   0.00000  Uiso   1.00
C377   C     0.80221   0.72088   0.09937   0.00000  Uiso   1.00
C378   C     0.86206   0.78099   0.40023   0.00000  Uiso   1.00
C379   C     0.80174   0.72112   0.04916   0.00000  Uiso   1.00
C380   C     0.86150   0.78157   0.45030   0.00000  Uiso   1.00
C381   C     0.83335   0.75058   0.02736   0.00000  Uiso   1.00
C382   C     0.83319   0.74977   0.47261   0.00000  Uiso   1.00
C383   C     0.73466   0.75037   0.23756   0.00000  Uiso   1.00
C384   C     0.93200   0.75011   0.26246   0.00000  Uiso   1.00
C385   C     0.67961   0.75484   0.23117   0.00000  Uiso   1.00
C386   C     0.98706   0.74637   0.26899   0.00000  Uiso   1.00
C387   C     0.85101   0.54759   0.29422   0.00000  Uiso   1.00
C388   C     0.86269   0.95250   0.21664   0.00000  Uiso   1.00
C389   C     0.84889   0.59372   0.29526   0.00000  Uiso   1.00
C390   C     0.86262   0.90647   0.21687   0.00000  Uiso   1.00
C391   C     0.83775   0.61645   0.25102   0.00000  Uiso   1.00
C392   C     0.83726   0.88317   0.25066   0.00000  Uiso   1.00
C393   C     0.82901   0.59240   0.20719   0.00000  Uiso   1.00
C394   C     0.81468   0.90634   0.28517   0.00000  Uiso   1.00
C395   C     0.82932   0.54657   0.20697   0.00000  Uiso   1.00
C396   C     0.81566   0.95222   0.28516   0.00000  Uiso   1.00
C397   C     0.83983   0.52394   0.25053   0.00000  Uiso   1.00
C398   C     0.83937   0.97553   0.25071   0.00000  Uiso   1.00
Cu399  Cu    0.83333   0.74999   0.29822   0.00000  Uiso   1.00
Cu400  Cu    0.83333   0.75000   0.20179   0.00000  Uiso   1.00
H401   H     0.86235   0.53005   0.32744   0.00000  Uiso   1.00
H402   H     0.88185   0.97017   0.19036   0.00000  Uiso   1.00
H403   H     0.82150   0.60888   0.17288   0.00000  Uiso   1.00
H404   H     0.79539   0.88894   0.31154   0.00000  Uiso   1.00
H405   H     0.82087   0.52879   0.17274   0.00000  Uiso   1.00
H406   H     0.79707   0.96952   0.31152   0.00000  Uiso   1.00
H407   H     0.89011   0.80479   0.04644   0.00000  Uiso   1.00
H408   H     0.78303   0.69093   0.45457   0.00000  Uiso   1.00
H409   H     0.88679   0.80380   0.13267   0.00000  Uiso   1.00
H410   H     0.78322   0.69386   0.36789   0.00000  Uiso   1.00
H411   H     0.77572   0.69796   0.02800   0.00000  Uiso   1.00
H412   H     0.88395   0.80739   0.47092   0.00000  Uiso   1.00
N413   N     0.83333   0.75001   0.12935   0.00000  Uiso   1.00
N414   N     0.83333   0.74999   0.37066   0.00000  Uiso   1.00
O415   O     0.83334   0.68572   0.29072   0.00000  Uiso   1.00
O416   O     0.83333   0.81427   0.20929   0.00000  Uiso   1.00
O417   O     0.83334   0.68573   0.20928   0.00000  Uiso   1.00
O418   O     0.83333   0.81427   0.29072   0.00000  Uiso   1.00
O419   O     0.75828   0.75000   0.28132   0.00000  Uiso   1.00
O420   O     0.90839   0.75000   0.21868   0.00000  Uiso   1.00
O421   O     0.75828   0.75000   0.19988   0.00000  Uiso   1.00
O422   O     0.90839   0.75000   0.30012   0.00000  Uiso   1.00
O423   O     0.98954   0.77599   0.19021   0.00000  Uiso   1.00
C424   C     0.99049   0.74963   0.14839   0.00000  Uiso   1.00
H425   H     0.98618   0.71356   0.15517   0.00000  Uiso   1.00
H426   H     0.69196   0.75770   0.13190   0.00000  Uiso   1.00
H427   H     0.95837   0.75803   0.12080   0.00000  Uiso   1.00
O428   O     0.67721   0.72632   0.31062   0.00000  Uiso   1.00
C429   C     0.67780   0.75471   0.35117   0.00000  Uiso   1.00
H430   H     0.97700   0.74778   0.36908   0.00000  Uiso   1.00
H431   H     0.68148   0.79043   0.34234   0.00000  Uiso   1.00
H432   H     0.71104   0.74749   0.37818   0.00000  Uiso   1.00
O433   O     0.86309   0.61698   0.33844   0.00000  Uiso   1.00
C434   C     0.82981   0.60528   0.37195   0.00000  Uiso   1.00
H435   H     0.78906   0.60776   0.35593   0.00000  Uiso   1.00
H436   H     0.83729   0.62860   0.40320   0.00000  Uiso   1.00
H437   H     0.83705   0.57177   0.38656   0.00000  Uiso   1.00
O438   O     0.88612   0.88458   0.18296   0.00000  Uiso   1.00
C439   C     0.93757   0.87932   0.20251   0.00000  Uiso   1.00
H440   H     0.95680   0.86256   0.17501   0.00000  Uiso   1.00
H441   H     0.94081   0.85817   0.23518   0.00000  Uiso   1.00
H442   H     0.95800   0.91180   0.21125   0.00000  Uiso   1.00
I443   I     0.75070   0.67323   0.12284   0.00000  Uiso   1.00
I444   I     0.91186   0.83019   0.37654   0.00000  Uiso   1.00
C445   C     0.16814   0.16492   0.75021   0.00000  Uiso   1.00
C446   C     0.16773   0.33495   0.75024   0.00000  Uiso   1.00
C447   C     0.19766   0.28072   0.55911   0.00000  Uiso   1.00
C448   C     0.13859   0.21743   0.94134   0.00000  Uiso   1.00
C449   C     0.19639   0.28026   0.60941   0.00000  Uiso   1.00
C450   C     0.13891   0.21844   0.89092   0.00000  Uiso   1.00
C451   C     0.13554   0.22088   0.59937   0.00000  Uiso   1.00
C452   C     0.19539   0.28099   0.90023   0.00000  Uiso   1.00
C453   C     0.13507   0.22112   0.54916   0.00000  Uiso   1.00
C454   C     0.19483   0.28157   0.95030   0.00000  Uiso   1.00
C455   C     0.16668   0.25058   0.52736   0.00000  Uiso   1.00
C456   C     0.16652   0.24977   0.97261   0.00000  Uiso   1.00
C457   C     0.06799   0.25037   0.73756   0.00000  Uiso   1.00
C458   C     0.26534   0.25011   0.76246   0.00000  Uiso   1.00
C459   C     0.01294   0.25484   0.73117   0.00000  Uiso   1.00
C460   C     0.32040   0.24637   0.76899   0.00000  Uiso   1.00
C461   C     0.18434   0.04759   0.79422   0.00000  Uiso   1.00
C462   C     0.19603   0.45250   0.71664   0.00000  Uiso   1.00
C463   C     0.18222   0.09372   0.79526   0.00000  Uiso   1.00
C464   C     0.19595   0.40647   0.71687   0.00000  Uiso   1.00
C465   C     0.17109   0.11645   0.75102   0.00000  Uiso   1.00
C466   C     0.17059   0.38317   0.75066   0.00000  Uiso   1.00
C467   C     0.16235   0.09240   0.70719   0.00000  Uiso   1.00
C468   C     0.14802   0.40634   0.78517   0.00000  Uiso   1.00
C469   C     0.16265   0.04657   0.70697   0.00000  Uiso   1.00
C470   C     0.14899   0.45222   0.78516   0.00000  Uiso   1.00
C471   C     0.17316   0.02394   0.75053   0.00000  Uiso   1.00
C472   C     0.17270   0.47553   0.75071   0.00000  Uiso   1.00
Cu473  Cu    0.16667   0.24999   0.79822   0.00000  Uiso   1.00
Cu474  Cu    0.16667   0.25000   0.70179   0.00000  Uiso   1.00
H475   H     0.19568   0.03005   0.82744   0.00000  Uiso   1.00
H476   H     0.21518   0.47017   0.69036   0.00000  Uiso   1.00
H477   H     0.15483   0.10888   0.67288   0.00000  Uiso   1.00
H478   H     0.12872   0.38894   0.81154   0.00000  Uiso   1.00
H479   H     0.15421   0.02879   0.67274   0.00000  Uiso   1.00
H480   H     0.13040   0.46952   0.81152   0.00000  Uiso   1.00
H481   H     0.22344   0.30479   0.54644   0.00000  Uiso   1.00
H482   H     0.11636   0.19093   0.95457   0.00000  Uiso   1.00
H483   H     0.22012   0.30380   0.63267   0.00000  Uiso   1.00
H484   H     0.11656   0.19386   0.86789   0.00000  Uiso   1.00
H485   H     0.10905   0.19796   0.52800   0.00000  Uiso   1.00
H486   H     0.21728   0.30739   0.97092   0.00000  Uiso   1.00
N487   N     0.16667   0.25001   0.62935   0.00000  Uiso   1.00
N488   N     0.16667   0.24999   0.87066   0.00000  Uiso   1.00
O489   O     0.16667   0.18572   0.79072   0.00000  Uiso   1.00
O490   O     0.16666   0.31427   0.70929   0.00000  Uiso   1.00
O491   O     0.16667   0.18573   0.70928   0.00000  Uiso   1.00
O492   O     0.16666   0.31427   0.79072   0.00000  Uiso   1.00
O493   O     0.09161   0.25000   0.78132   0.00000  Uiso   1.00
O494   O     0.24172   0.25000   0.71868   0.00000  Uiso   1.00
O495   O     0.09161   0.25000   0.69988   0.00000  Uiso   1.00
O496   O     0.24172   0.25000   0.80012   0.00000  Uiso   1.00
O497   O     0.32287   0.27599   0.69021   0.00000  Uiso   1.00
C498   C     0.32383   0.24963   0.64839   0.00000  Uiso   1.00
H499   H     0.31952   0.21356   0.65517   0.00000  Uiso   1.00
H500   H     0.02529   0.25770   0.63190   0.00000  Uiso   1.00
H501   H     0.29170   0.25803   0.62080   0.00000  Uiso   1.00
O502   O     0.01054   0.22632   0.81062   0.00000  Uiso   1.00
C503   C     0.01113   0.25471   0.85117   0.00000  Uiso   1.00
H504   H     0.31033   0.24778   0.86908   0.00000  Uiso   1.00
H505   H     0.01482   0.29043   0.84234   0.00000  Uiso   1.00
H506   H     0.04437   0.24749   0.87818   0.00000  Uiso   1.00
O507   O     0.19643   0.11698   0.83844   0.00000  Uiso   1.00
C508   C     0.16314   0.10528   0.87195   0.00000  Uiso   1.00
H509   H     0.12240   0.10776   0.85593   0.00000  Uiso   1.00
H510   H     0.17062   0.12860   0.90320   0.00000  Uiso   1.00
H511   H     0.17038   0.07177   0.88656   0.00000  Uiso   1.00
O512   O     0.21946   0.38458   0.68296   0.00000  Uiso   1.00
C513   C     0.27090   0.37932   0.70251   0.00000  Uiso   1.00
H514   H     0.29014   0.36256   0.67501   0.00000  Uiso   1.00
H515   H     0.27414   0.35817   0.73518   0.00000  Uiso   1.00
H516   H     0.29134   0.41180   0.71125   0.00000  Uiso   1.00
I517   I     0.08404   0.17323   0.62284   0.00000  Uiso   1.00
I518   I     0.24519   0.33019   0.87654   0.00000  Uiso   1.00
C519   C     0.50147   0.16492   0.75021   0.00000  Uiso   1.00
C520   C     0.50106   0.33495   0.75024   0.00000  Uiso   1.00
C521   C     0.53100   0.28072   0.55911   0.00000  Uiso   1.00
C522   C     0.47193   0.21743   0.94134   0.00000  Uiso   1.00
C523   C     0.52972   0.28026   0.60941   0.00000  Uiso   1.00
C524   C     0.47225   0.21844   0.89092   0.00000  Uiso   1.00
C525   C     0.46888   0.22088   0.59937   0.00000  Uiso   1.00
C526   C     0.52872   0.28099   0.90023   0.00000  Uiso   1.00
C527   C     0.46841   0.22112   0.54916   0.00000  Uiso   1.00
C528   C     0.52816   0.28157   0.95030   0.00000  Uiso   1.00
C529   C     0.50002   0.25058   0.52736   0.00000  Uiso   1.00
C530   C     0.49985   0.24977   0.97261   0.00000  Uiso   1.00
C531   C     0.40132   0.25037   0.73756   0.00000  Uiso   1.00
C532   C     0.59867   0.25011   0.76246   0.00000  Uiso   1.00
C533   C     0.34628   0.25484   0.73117   0.00000  Uiso   1.00
C534   C     0.65373   0.24637   0.76899   0.00000  Uiso   1.00
C535   C     0.51767   0.04759   0.79422   0.00000  Uiso   1.00
C536   C     0.52936   0.45250   0.71664   0.00000  Uiso   1.00
C537   C     0.51555   0.09372   0.79526   0.00000  Uiso   1.00
C538   C     0.52928   0.40647   0.71687   0.00000  Uiso   1.00
C539   C     0.50442   0.11645   0.75102   0.00000  Uiso   1.00
C540   C     0.50392   0.38317   0.75066   0.00000  Uiso   1.00
C541   C     0.49568   0.09240   0.70719   0.00000  Uiso   1.00
C542   C     0.48135   0.40634   0.78517   0.00000  Uiso   1.00
C543   C     0.49599   0.04657   0.70697   0.00000  Uiso   1.00
C544   C     0.48233   0.45222   0.78516   0.00000  Uiso   1.00
C545   C     0.50649   0.02394   0.75053   0.00000  Uiso   1.00
C546   C     0.50604   0.47553   0.75071   0.00000  Uiso   1.00
Cu547  Cu    0.50000   0.24999   0.79822   0.00000  Uiso   1.00
Cu548  Cu    0.50000   0.25000   0.70179   0.00000  Uiso   1.00
H549   H     0.52901   0.03005   0.82744   0.00000  Uiso   1.00
H550   H     0.54852   0.47017   0.69036   0.00000  Uiso   1.00
H551   H     0.48817   0.10888   0.67288   0.00000  Uiso   1.00
H552   H     0.46206   0.38894   0.81154   0.00000  Uiso   1.00
H553   H     0.48754   0.02879   0.67274   0.00000  Uiso   1.00
H554   H     0.46373   0.46952   0.81152   0.00000  Uiso   1.00
H555   H     0.55678   0.30479   0.54644   0.00000  Uiso   1.00
H556   H     0.44969   0.19093   0.95457   0.00000  Uiso   1.00
H557   H     0.55345   0.30380   0.63267   0.00000  Uiso   1.00
H558   H     0.44989   0.19386   0.86789   0.00000  Uiso   1.00
H559   H     0.44238   0.19796   0.52800   0.00000  Uiso   1.00
H560   H     0.55061   0.30739   0.97092   0.00000  Uiso   1.00
N561   N     0.50000   0.25001   0.62935   0.00000  Uiso   1.00
N562   N     0.50000   0.24999   0.87066   0.00000  Uiso   1.00
O563   O     0.50000   0.18572   0.79072   0.00000  Uiso   1.00
O564   O     0.50000   0.31427   0.70929   0.00000  Uiso   1.00
O565   O     0.50000   0.18573   0.70928   0.00000  Uiso   1.00
O566   O     0.50000   0.31427   0.79072   0.00000  Uiso   1.00
O567   O     0.42495   0.25000   0.78132   0.00000  Uiso   1.00
O568   O     0.57505   0.25000   0.71868   0.00000  Uiso   1.00
O569   O     0.42495   0.25000   0.69988   0.00000  Uiso   1.00
O570   O     0.57505   0.25000   0.80012   0.00000  Uiso   1.00
O571   O     0.65620   0.27599   0.69021   0.00000  Uiso   1.00
C572   C     0.65716   0.24963   0.64839   0.00000  Uiso   1.00
H573   H     0.65285   0.21356   0.65517   0.00000  Uiso   1.00
H574   H     0.35862   0.25770   0.63190   0.00000  Uiso   1.00
H575   H     0.62503   0.25803   0.62080   0.00000  Uiso   1.00
O576   O     0.34387   0.22632   0.81062   0.00000  Uiso   1.00
C577   C     0.34447   0.25471   0.85117   0.00000  Uiso   1.00
H578   H     0.64366   0.24778   0.86908   0.00000  Uiso   1.00
H579   H     0.34815   0.29043   0.84234   0.00000  Uiso   1.00
H580   H     0.37770   0.24749   0.87818   0.00000  Uiso   1.00
O581   O     0.52976   0.11698   0.83844   0.00000  Uiso   1.00
C582   C     0.49648   0.10528   0.87195   0.00000  Uiso   1.00
H583   H     0.45573   0.10776   0.85593   0.00000  Uiso   1.00
H584   H     0.50396   0.12860   0.90320   0.00000  Uiso   1.00
H585   H     0.50372   0.07177   0.88656   0.00000  Uiso   1.00
O586   O     0.55279   0.38458   0.68296   0.00000  Uiso   1.00
C587   C     0.60423   0.37932   0.70251   0.00000  Uiso   1.00
H588   H     0.62347   0.36256   0.67501   0.00000  Uiso   1.00
H589   H     0.60747   0.35817   0.73518   0.00000  Uiso   1.00
H590   H     0.62467   0.41180   0.71125   0.00000  Uiso   1.00
I591   I     0.41737   0.17323   0.62284   0.00000  Uiso   1.00
I592   I     0.57852   0.33019   0.87654   0.00000  Uiso   1.00
C593   C     0.83481   0.16492   0.75021   0.00000  Uiso   1.00
C594   C     0.83440   0.33495   0.75024   0.00000  Uiso   1.00
C595   C     0.86433   0.28072   0.55911   0.00000  Uiso   1.00
C596   C     0.80526   0.21743   0.94134   0.00000  Uiso   1.00
C597   C     0.86305   0.28026   0.60941   0.00000  Uiso   1.00
C598   C     0.80558   0.21844   0.89092   0.00000  Uiso   1.00
C599   C     0.80221   0.22088   0.59937   0.00000  Uiso   1.00
C600   C     0.86206   0.28099   0.90023   0.00000  Uiso   1.00
C601   C     0.80174   0.22112   0.54916   0.00000  Uiso   1.00
C602   C     0.86150   0.28157   0.95030   0.00000  Uiso   1.00
C603   C     0.83335   0.25058   0.52736   0.00000  Uiso   1.00
C604   C     0.83319   0.24977   0.97261   0.00000  Uiso   1.00
C605   C     0.73466   0.25037   0.73756   0.00000  Uiso   1.00
C606   C     0.93200   0.25011   0.76246   0.00000  Uiso   1.00
C607   C     0.67961   0.25484   0.73117   0.00000  Uiso   1.00
C608   C     0.98706   0.24637   0.76899   0.00000  Uiso   1.00
C609   C     0.85101   0.04759   0.79422   0.00000  Uiso   1.00
C610   C     0.86269   0.45250   0.71664   0.00000  Uiso   1.00
C611   C     0.84889   0.09372   0.79526   0.00000  Uiso   1.00
C612   C     0.86262   0.40647   0.71687   0.00000  Uiso   1.00
C613   C     0.83775   0.11645   0.75102   0.00000  Uiso   1.00
C614   C     0.83726   0.38317   0.75066   0.00000  Uiso   1.00
C615   C     0.82901   0.09240   0.70719   0.00000  Uiso   1.00
C616   C     0.81468   0.40634   0.78517   0.00000  Uiso   1.00
C617   C     0.82932   0.04657   0.70697   0.00000  Uiso   1.00
C618   C     0.81566   0.45222   0.78516   0.00000  Uiso   1.00
C619   C     0.83983   0.02394   0.75053   0.00000  Uiso   1.00
C620   C     0.83937   0.47553   0.75071   0.00000  Uiso   1.00
Cu621  Cu    0.83333   0.24999   0.79822   0.00000  Uiso   1.00
Cu622  Cu    0.83333   0.25000   0.70179   0.00000  Uiso   1.00
H623   H     0.86235   0.03005   0.82744   0.00000  Uiso   1.00
H624   H     0.88185   0.47017   0.69036   0.00000  Uiso   1.00
H625   H     0.82150   0.10888   0.67288   0.00000  Uiso   1.00
H626   H     0.79539   0.38894   0.81154   0.00000  Uiso   1.00
H627   H     0.82087   0.02879   0.67274   0.00000  Uiso   1.00
H628   H     0.79707   0.46952   0.81152   0.00000  Uiso   1.00
H629   H     0.89011   0.30479   0.54644   0.00000  Uiso   1.00
H630   H     0.78303   0.19093   0.95457   0.00000  Uiso   1.00
H631   H     0.88679   0.30380   0.63267   0.00000  Uiso   1.00
H632   H     0.78322   0.19386   0.86789   0.00000  Uiso   1.00
H633   H     0.77572   0.19796   0.52800   0.00000  Uiso   1.00
H634   H     0.88395   0.30739   0.97092   0.00000  Uiso   1.00
N635   N     0.83333   0.25001   0.62935   0.00000  Uiso   1.00
N636   N     0.83333   0.24999   0.87066   0.00000  Uiso   1.00
O637   O     0.83334   0.18572   0.79072   0.00000  Uiso   1.00
O638   O     0.83333   0.31427   0.70929   0.00000  Uiso   1.00
O639   O     0.83334   0.18573   0.70928   0.00000  Uiso   1.00
O640   O     0.83333   0.31427   0.79072   0.00000  Uiso   1.00
O641   O     0.75828   0.25000   0.78132   0.00000  Uiso   1.00
O642   O     0.90839   0.25000   0.71868   0.00000  Uiso   1.00
O643   O     0.75828   0.25000   0.69988   0.00000  Uiso   1.00
O644   O     0.90839   0.25000   0.80012   0.00000  Uiso   1.00
O645   O     0.98954   0.27599   0.69021   0.00000  Uiso   1.00
C646   C     0.99049   0.24963   0.64839   0.00000  Uiso   1.00
H647   H     0.98618   0.21356   0.65517   0.00000  Uiso   1.00
H648   H     0.69196   0.25770   0.63190   0.00000  Uiso   1.00
H649   H     0.95837   0.25803   0.62080   0.00000  Uiso   1.00
O650   O     0.67721   0.22632   0.81062   0.00000  Uiso   1.00
C651   C     0.67780   0.25471   0.85117   0.00000  Uiso   1.00
H652   H     0.97700   0.24778   0.86908   0.00000  Uiso   1.00
H653   H     0.68148   0.29043   0.84234   0.00000  Uiso   1.00
H654   H     0.71104   0.24749   0.87818   0.00000  Uiso   1.00
O655   O     0.86309   0.11698   0.83844   0.00000  Uiso   1.00
C656   C     0.82981   0.10528   0.87195   0.00000  Uiso   1.00
H657   H     0.78906   0.10776   0.85593   0.00000  Uiso   1.00
H658   H     0.83729   0.12860   0.90320   0.00000  Uiso   1.00
H659   H     0.83705   0.07177   0.88656   0.00000  Uiso   1.00
O660   O     0.88612   0.38458   0.68296   0.00000  Uiso   1.00
C661   C     0.93757   0.37932   0.70251   0.00000  Uiso   1.00
H662   H     0.95680   0.36256   0.67501   0.00000  Uiso   1.00
H663   H     0.94081   0.35817   0.73518   0.00000  Uiso   1.00
H664   H     0.95800   0.41180   0.71125   0.00000  Uiso   1.00
I665   I     0.75070   0.17323   0.62284   0.00000  Uiso   1.00
I666   I     0.91186   0.33019   0.87654   0.00000  Uiso   1.00
C667   C     0.16814   0.66492   0.75021   0.00000  Uiso   1.00
C668   C     0.16773   0.83495   0.75024   0.00000  Uiso   1.00
C669   C     0.19766   0.78072   0.55911   0.00000  Uiso   1.00
C670   C     0.13859   0.71743   0.94134   0.00000  Uiso   1.00
C671   C     0.19639   0.78026   0.60941   0.00000  Uiso   1.00
C672   C     0.13891   0.71844   0.89092   0.00000  Uiso   1.00
C673   C     0.13554   0.72088   0.59937   0.00000  Uiso   1.00
C674   C     0.19539   0.78099   0.90023   0.00000  Uiso   1.00
C675   C     0.13507   0.72112   0.54916   0.00000  Uiso   1.00
C676   C     0.19483   0.78157   0.95030   0.00000  Uiso   1.00
C677   C     0.16668   0.75058   0.52736   0.00000  Uiso   1.00
C678   C     0.16652   0.74977   0.97261   0.00000  Uiso   1.00
C679   C     0.06799   0.75037   0.73756   0.00000  Uiso   1.00
C680   C     0.26534   0.75011   0.76246   0.00000  Uiso   1.00
C681   C     0.01294   0.75484   0.73117   0.00000  Uiso   1.00
C682   C     0.32040   0.74637   0.76899   0.00000  Uiso   1.00
C683   C     0.18434   0.54759   0.79422   0.00000  Uiso   1.00
C684   C     0.19603   0.95250   0.71664   0.00000  Uiso   1.00
C685   C     0.18222   0.59372   0.79526   0.00000  Uiso   1.00
C686   C     0.19595   0.90647   0.71687   0.00000  Uiso   1.00
C687   C     0.17109   0.61645   0.75102   0.00000  Uiso   1.00
C688   C     0.17059   0.88317   0.75066   0.00000  Uiso   1.00
C689   C     0.16235   0.59240   0.70719   0.00000  Uiso   1.00
C690   C     0.14802   0.90634   0.78517   0.00000  Uiso   1.00
C691   C     0.16265   0.54657   0.70697   0.00000  Uiso   1.00
C692   C     0.14899   0.95222   0.78516   0.00000  Uiso   1.00
C693   C     0.17316   0.52394   0.75053   0.00000  Uiso   1.00
C694   C     0.17270   0.97553   0.75071   0.00000  Uiso   1.00
Cu695  Cu    0.16667   0.74999   0.79822   0.00000  Uiso   1.00
Cu696  Cu    0.16667   0.75000   0.70179   0.00000  Uiso   1.00
H697   H     0.19568   0.53005   0.82744   0.00000  Uiso   1.00
H698   H     0.21518   0.97017   0.69036   0.00000  Uiso   1.00
H699   H     0.15483   0.60888   0.67288   0.00000  Uiso   1.00
H700   H     0.12872   0.88894   0.81154   0.00000  Uiso   1.00
H701   H     0.15421   0.52879   0.67274   0.00000  Uiso   1.00
H702   H     0.13040   0.96952   0.81152   0.00000  Uiso   1.00
H703   H     0.22344   0.80479   0.54644   0.00000  Uiso   1.00
H704   H     0.11636   0.69093   0.95457   0.00000  Uiso   1.00
H705   H     0.22012   0.80380   0.63267   0.00000  Uiso   1.00
H706   H     0.11656   0.69386   0.86789   0.00000  Uiso   1.00
H707   H     0.10905   0.69796   0.52800   0.00000  Uiso   1.00
H708   H     0.21728   0.80739   0.97092   0.00000  Uiso   1.00
N709   N     0.16667   0.75001   0.62935   0.00000  Uiso   1.00
N710   N     0.16667   0.74999   0.87066   0.00000  Uiso   1.00
O711   O     0.16667   0.68572   0.79072   0.00000  Uiso   1.00
O712   O     0.16666   0.81427   0.70929   0.00000  Uiso   1.00
O713   O     0.16667   0.68573   0.70928   0.00000  Uiso   1.00
O714   O     0.16666   0.81427   0.79072   0.00000  Uiso   1.00
O715   O     0.09161   0.75000   0.78132   0.00000  Uiso   1.00
O716   O     0.24172   0.75000   0.71868   0.00000  Uiso   1.00
O717   O     0.09161   0.75000   0.69988   0.00000  Uiso   1.00
O718   O     0.24172   0.75000   0.80012   0.00000  Uiso   1.00
O719   O     0.32287   0.77599   0.69021   0.00000  Uiso   1.00
C720   C     0.32383   0.74963   0.64839   0.00000  Uiso   1.00
H721   H     0.31952   0.71356   0.65517   0.00000  Uiso   1.00
H722   H     0.02529   0.75770   0.63190   0.00000  Uiso   1.00
H723   H     0.29170   0.75803   0.62080   0.00000  Uiso   1.00
O724   O     0.01054   0.72632   0.81062   0.00000  Uiso   1.00
C725   C     0.01113   0.75471   0.85117   0.00000  Uiso   1.00
H726   H     0.31033   0.74778   0.86908   0.00000  Uiso   1.00
H727   H     0.01482   0.79043   0.84234   0.00000  Uiso   1.00
H728   H     0.04437   0.74749   0.87818   0.00000  Uiso   1.00
O729   O     0.19643   0.61698   0.83844   0.00000  Uiso   1.00
C730   C     0.16314   0.60528   0.87195   0.00000  Uiso   1.00
H731   H     0.12240   0.60776   0.85593   0.00000  Uiso   1.00
H732   H     0.17062   0.62860   0.90320   0.00000  Uiso   1.00
H733   H     0.17038   0.57177   0.88656   0.00000  Uiso   1.00
O734   O     0.21946   0.88458   0.68296   0.00000  Uiso   1.00
C735   C     0.27090   0.87932   0.70251   0.00000  Uiso   1.00
H736   H     0.29014   0.86256   0.67501   0.00000  Uiso   1.00
H737   H     0.27414   0.85817   0.73518   0.00000  Uiso   1.00
H738   H     0.29134   0.91180   0.71125   0.00000  Uiso   1.00
I739   I     0.08404   0.67323   0.62284   0.00000  Uiso   1.00
I740   I     0.24519   0.83019   0.87654   0.00000  Uiso   1.00
C741   C     0.50147   0.66492   0.75021   0.00000  Uiso   1.00
C742   C     0.50106   0.83495   0.75024   0.00000  Uiso   1.00
C743   C     0.53100   0.78072   0.55911   0.00000  Uiso   1.00
C744   C     0.47193   0.71743   0.94134   0.00000  Uiso   1.00
C745   C     0.52972   0.78026   0.60941   0.00000  Uiso   1.00
C746   C     0.47225   0.71844   0.89092   0.00000  Uiso   1.00
C747   C     0.46888   0.72088   0.59937   0.00000  Uiso   1.00
C748   C     0.52872   0.78099   0.90023   0.00000  Uiso   1.00
C749   C     0.46841   0.72112   0.54916   0.00000  Uiso   1.00
C750   C     0.52816   0.78157   0.95030   0.00000  Uiso   1.00
C751   C     0.50002   0.75058   0.52736   0.00000  Uiso   1.00
C752   C     0.49985   0.74977   0.97261   0.00000  Uiso   1.00
C753   C     0.40132   0.75037   0.73756   0.00000  Uiso   1.00
C754   C     0.59867   0.75011   0.76246   0.00000  Uiso   1.00
C755   C     0.34628   0.75484   0.73117   0.00000  Uiso   1.00
C756   C     0.65373   0.74637   0.76899   0.00000  Uiso   1.00
C757   C     0.51767   0.54759   0.79422   0.00000  Uiso   1.00
C758   C     0.52936   0.95250   0.71664   0.00000  Uiso   1.00
C759   C     0.51555   0.59372   0.79526   0.00000  Uiso   1.00
C760   C     0.52928   0.90647   0.71687   0.00000  Uiso   1.00
C761   C     0.50442   0.61645   0.75102   0.00000  Uiso   1.00
C762   C     0.50392   0.88317   0.75066   0.00000  Uiso   1.00
C763   C     0.49568   0.59240   0.70719   0.00000  Uiso   1.00
C764   C     0.48135   0.90634   0.78517   0.00000  Uiso   1.00
C765   C     0.49599   0.54657   0.70697   0.00000  Uiso   1.00
C766   C     0.48233   0.95222   0.78516   0.00000  Uiso   1.00
C767   C     0.50649   0.52394   0.75053   0.00000  Uiso   1.00
C768   C     0.50604   0.97553   0.75071   0.00000  Uiso   1.00
Cu769  Cu    0.50000   0.74999   0.79822   0.00000  Uiso   1.00
Cu770  Cu    0.50000   0.75000   0.70179   0.00000  Uiso   1.00
H771   H     0.52901   0.53005   0.82744   0.00000  Uiso   1.00
H772   H     0.54852   0.97017   0.69036   0.00000  Uiso   1.00
H773   H     0.48817   0.60888   0.67288   0.00000  Uiso   1.00
H774   H     0.46206   0.88894   0.81154   0.00000  Uiso   1.00
H775   H     0.48754   0.52879   0.67274   0.00000  Uiso   1.00
H776   H     0.46373   0.96952   0.81152   0.00000  Uiso   1.00
H777   H     0.55678   0.80479   0.54644   0.00000  Uiso   1.00
H778   H     0.44969   0.69093   0.95457   0.00000  Uiso   1.00
H779   H     0.55345   0.80380   0.63267   0.00000  Uiso   1.00
H780   H     0.44989   0.69386   0.86789   0.00000  Uiso   1.00
H781   H     0.44238   0.69796   0.52800   0.00000  Uiso   1.00
H782   H     0.55061   0.80739   0.97092   0.00000  Uiso   1.00
N783   N     0.50000   0.75001   0.62935   0.00000  Uiso   1.00
N784   N     0.50000   0.74999   0.87066   0.00000  Uiso   1.00
O785   O     0.50000   0.68572   0.79072   0.00000  Uiso   1.00
O786   O     0.50000   0.81427   0.70929   0.00000  Uiso   1.00
O787   O     0.50000   0.68573   0.70928   0.00000  Uiso   1.00
O788   O     0.50000   0.81427   0.79072   0.00000  Uiso   1.00
O789   O     0.42495   0.75000   0.78132   0.00000  Uiso   1.00
O790   O     0.57505   0.75000   0.71868   0.00000  Uiso   1.00
O791   O     0.42495   0.75000   0.69988   0.00000  Uiso   1.00
O792   O     0.57505   0.75000   0.80012   0.00000  Uiso   1.00
O793   O     0.65620   0.77599   0.69021   0.00000  Uiso   1.00
C794   C     0.65716   0.74963   0.64839   0.00000  Uiso   1.00
H795   H     0.65285   0.71356   0.65517   0.00000  Uiso   1.00
H796   H     0.35862   0.75770   0.63190   0.00000  Uiso   1.00
H797   H     0.62503   0.75803   0.62080   0.00000  Uiso   1.00
O798   O     0.34387   0.72632   0.81062   0.00000  Uiso   1.00
C799   C     0.34447   0.75471   0.85117   0.00000  Uiso   1.00
H800   H     0.64366   0.74778   0.86908   0.00000  Uiso   1.00
H801   H     0.34815   0.79043   0.84234   0.00000  Uiso   1.00
H802   H     0.37770   0.74749   0.87818   0.00000  Uiso   1.00
O803   O     0.52976   0.61698   0.83844   0.00000  Uiso   1.00
C804   C     0.49648   0.60528   0.87195   0.00000  Uiso   1.00
H805   H     0.45573   0.60776   0.85593   0.00000  Uiso   1.00
H806   H     0.50396   0.62860   0.90320   0.00000  Uiso   1.00
H807   H     0.50372   0.57177   0.88656   0.00000  Uiso   1.00
O808   O     0.55279   0.88458   0.68296   0.00000  Uiso   1.00
C809   C     0.60423   0.87932   0.70251   0.00000  Uiso   1.00
H810   H     0.62347   0.86256   0.67501   0.00000  Uiso   1.00
H811   H     0.60747   0.85817   0.73518   0.00000  Uiso   1.00
H812   H     0.62467   0.91180   0.71125   0.00000  Uiso   1.00
I813   I     0.41737   0.67323   0.62284   0.00000  Uiso   1.00
I814   I     0.57852   0.83019   0.87654   0.00000  Uiso   1.00
C815   C     0.83481   0.66492   0.75021   0.00000  Uiso   1.00
C816   C     0.83440   0.83495   0.75024   0.00000  Uiso   1.00
C817   C     0.86433   0.78072   0.55911   0.00000  Uiso   1.00
C818   C     0.80526   0.71743   0.94134   0.00000  Uiso   1.00
C819   C     0.86305   0.78026   0.60941   0.00000  Uiso   1.00
C820   C     0.80558   0.71844   0.89092   0.00000  Uiso   1.00
C821   C     0.80221   0.72088   0.59937   0.00000  Uiso   1.00
C822   C     0.86206   0.78099   0.90023   0.00000  Uiso   1.00
C823   C     0.80174   0.72112   0.54916   0.00000  Uiso   1.00
C824   C     0.86150   0.78157   0.95030   0.00000  Uiso   1.00
C825   C     0.83335   0.75058   0.52736   0.00000  Uiso   1.00
C826   C     0.83319   0.74977   0.97261   0.00000  Uiso   1.00
C827   C     0.73466   0.75037   0.73756   0.00000  Uiso   1.00
C828   C     0.93200   0.75011   0.76246   0.00000  Uiso   1.00
C829   C     0.67961   0.75484   0.73117   0.00000  Uiso   1.00
C830   C     0.98706   0.74637   0.76899   0.00000  Uiso   1.00
C831   C     0.85101   0.54759   0.79422   0.00000  Uiso   1.00
C832   C     0.86269   0.95250   0.71664   0.00000  Uiso   1.00
C833   C     0.84889   0.59372   0.79526   0.00000  Uiso   1.00
C834   C     0.86262   0.90647   0.71687   0.00000  Uiso   1.00
C835   C     0.83775   0.61645   0.75102   0.00000  Uiso   1.00
C836   C     0.83726   0.88317   0.75066   0.00000  Uiso   1.00
C837   C     0.82901   0.59240   0.70719   0.00000  Uiso   1.00
C838   C     0.81468   0.90634   0.78517   0.00000  Uiso   1.00
C839   C     0.82932   0.54657   0.70697   0.00000  Uiso   1.00
C840   C     0.81566   0.95222   0.78516   0.00000  Uiso   1.00
C841   C     0.83983   0.52394   0.75053   0.00000  Uiso   1.00
C842   C     0.83937   0.97553   0.75071   0.00000  Uiso   1.00
Cu843  Cu    0.83333   0.74999   0.79822   0.00000  Uiso   1.00
Cu844  Cu    0.83333   0.75000   0.70179   0.00000  Uiso   1.00
H845   H     0.86235   0.53005   0.82744   0.00000  Uiso   1.00
H846   H     0.88185   0.97017   0.69036   0.00000  Uiso   1.00
H847   H     0.82150   0.60888   0.67288   0.00000  Uiso   1.00
H848   H     0.79539   0.88894   0.81154   0.00000  Uiso   1.00
H849   H     0.82087   0.52879   0.67274   0.00000  Uiso   1.00
H850   H     0.79707   0.96952   0.81152   0.00000  Uiso   1.00
H851   H     0.89011   0.80479   0.54644   0.00000  Uiso   1.00
H852   H     0.78303   0.69093   0.95457   0.00000  Uiso   1.00
H853   H     0.88679   0.80380   0.63267   0.00000  Uiso   1.00
H854   H     0.78322   0.69386   0.86789   0.00000  Uiso   1.00
H855   H     0.77572   0.69796   0.52800   0.00000  Uiso   1.00
H856   H     0.88395   0.80739   0.97092   0.00000  Uiso   1.00
N857   N     0.83333   0.75001   0.62935   0.00000  Uiso   1.00
N858   N     0.83333   0.74999   0.87066   0.00000  Uiso   1.00
O859   O     0.83334   0.68572   0.79072   0.00000  Uiso   1.00
O860   O     0.83333   0.81427   0.70929   0.00000  Uiso   1.00
O861   O     0.83334   0.68573   0.70928   0.00000  Uiso   1.00
O862   O     0.83333   0.81427   0.79072   0.00000  Uiso   1.00
O863   O     0.75828   0.75000   0.78132   0.00000  Uiso   1.00
O864   O     0.90839   0.75000   0.71868   0.00000  Uiso   1.00
O865   O     0.75828   0.75000   0.69988   0.00000  Uiso   1.00
O866   O     0.90839   0.75000   0.80012   0.00000  Uiso   1.00
O867   O     0.98954   0.77599   0.69021   0.00000  Uiso   1.00
C868   C     0.99049   0.74963   0.64839   0.00000  Uiso   1.00
H869   H     0.98618   0.71356   0.65517   0.00000  Uiso   1.00
H870   H     0.69196   0.75770   0.63190   0.00000  Uiso   1.00
H871   H     0.95837   0.75803   0.62080   0.00000  Uiso   1.00
O872   O     0.67721   0.72632   0.81062   0.00000  Uiso   1.00
C873   C     0.67780   0.75471   0.85117   0.00000  Uiso   1.00
H874   H     0.97700   0.74778   0.86908   0.00000  Uiso   1.00
H875   H     0.68148   0.79043   0.84234   0.00000  Uiso   1.00
H876   H     0.71104   0.74749   0.87818   0.00000  Uiso   1.00
O877   O     0.86309   0.61698   0.83844   0.00000  Uiso   1.00
C878   C     0.82981   0.60528   0.87195   0.00000  Uiso   1.00
H879   H     0.78906   0.60776   0.85593   0.00000  Uiso   1.00
H880   H     0.83729   0.62860   0.90320   0.00000  Uiso   1.00
H881   H     0.83705   0.57177   0.88656   0.00000  Uiso   1.00
O882   O     0.88612   0.88458   0.68296   0.00000  Uiso   1.00
C883   C     0.93757   0.87932   0.70251   0.00000  Uiso   1.00
H884   H     0.95680   0.86256   0.67501   0.00000  Uiso   1.00
H885   H     0.94081   0.85817   0.73518   0.00000  Uiso   1.00
H886   H     0.95800   0.91180   0.71125   0.00000  Uiso   1.00
I887   I     0.75070   0.67323   0.62284   0.00000  Uiso   1.00
I888   I     0.91186   0.83019   0.87654   0.00000  Uiso   1.00
loop_
_geom_bond_atom_site_label_1
_geom_bond_atom_site_label_2
_geom_bond_distance
_geom_bond_site_symmetry_2
_ccdc_geom_bond_type
C1     C21     1.473   .     S
C1     O45     1.295   .     A
C1     O47     1.305   .     A
C2     C22     1.460   .     S
C2     O48     1.299   .     A
C2     O46     1.294   .     A
C3     C11     1.420   .     A
C3     C5      1.408   .     A
C3     H37     1.077   .     S
C4     H38     1.077   .     S
C4     C12     1.420   .     A
C4     C6      1.408   .     A
C5     N43     1.360   .     A
C5     H39     1.081   .     S
C6     N44     1.360   .     A
C6     H40     1.081   .     S
C7     N43     1.377   .     A
C7     I73     2.121   .     S
C7     C9      1.399   .     A
C8     I74     2.126   .     S
C8     C10     1.399   .     A
C8     N44     1.378   .     A
C9     H41     1.076   .     S
C9     C11     1.402   .     A
C10    H42     1.076   .     S
C10    C12     1.402   .     A
C11    C456    1.526   1_554 S
C12    C455    1.526   .     S
C13    O49     1.290   .     A
C13    C15     1.456   .     S
C13    O51     1.297   .     A
C14    O52     1.297   .     A
C14    O50     1.290   .     A
C14    C16     1.454   .     S
C15    C164    1.359   1_455 S
C15    O201    1.393   1_455 S
C16    C89     1.359   .     S
C16    O132    1.392   .     S
C17    H31     1.082   .     S
C17    C27     1.397   .     A
C17    C19     1.401   .     A
C18    C28     1.400   .     A
C18    H32     1.083   .     S
C18    C20     1.394   .     A
C19    C21     1.418   .     A
C19    O63     1.387   .     S
C20    C22     1.412   .     A
C20    O68     1.382   .     S
C21    C23     1.404   .     A
C22    C24     1.400   .     A
C23    C25     1.389   .     A
C23    H33     1.080   .     S
C24    H34     1.084   .     S
C24    C26     1.389   .     A
C25    C27     1.398   .     A
C25    H35     1.083   .     S
C26    H36     1.083   .     S
C26    C28     1.402   .     A
C27    C250    1.466   1_545 S
C28    C249    1.466   .     S
Cu29   Cu30    2.689   .     S
Cu29   O49     1.978   .     S
Cu29   N44     2.020   .     S
Cu29   O45     1.956   .     S
Cu29   O48     1.960   .     S
Cu29   O52     1.983   .     S
Cu30   O51     1.983   .     S
Cu30   O50     1.978   .     S
Cu30   O46     1.956   .     S
Cu30   N43     2.020   .     S
Cu30   O47     1.960   .     S
O53    C54     1.412   .     S
O53    C89     1.393   .     S
C54    H57     1.102   .     S
C54    H55     1.115   .     S
C54    H130    1.108   .     S
H56    C202    1.108   1_455 S
O58    C59     1.413   .     S
O58    C164    1.392   1_455 S
C59    H61     1.116   .     S
C59    H62     1.104   .     S
C59    H208    1.108   1_455 S
H60    C133    1.108   .     S
O63    C64     1.412   .     S
C64    H65     1.114   .     S
C64    H67     1.110   .     S
C64    H66     1.108   .     S
O68    C69     1.410   .     S
C69    H72     1.113   .     S
C69    H71     1.114   .     S
C69    H70     1.109   .     S
C75    C95     1.473   .     S
C75    O119    1.295   .     A
C75    O121    1.305   .     A
C76    C96     1.460   .     S
C76    O122    1.299   .     A
C76    O120    1.294   .     A
C77    C85     1.420   .     A
C77    C79     1.408   .     A
C77    H111    1.077   .     S
C78    H112    1.077   .     S
C78    C86     1.420   .     A
C78    C80     1.408   .     A
C79    N117    1.360   .     A
C79    H113    1.081   .     S
C80    N118    1.360   .     A
C80    H114    1.081   .     S
C81    N117    1.377   .     A
C81    I147    2.121   .     S
C81    C83     1.399   .     A
C82    I148    2.126   .     S
C82    C84     1.399   .     A
C82    N118    1.378   .     A
C83    H115    1.076   .     S
C83    C85     1.402   .     A
C84    H116    1.076   .     S
C84    C86     1.402   .     A
C85    C530    1.526   1_554 S
C86    C529    1.526   .     S
C87    O123    1.290   .     A
C87    C89     1.456   .     S
C87    O125    1.297   .     A
C88    O126    1.297   .     A
C88    O124    1.290   .     A
C88    C90     1.454   .     S
C90    C163    1.359   .     S
C90    O206    1.392   .     S
C91    H105    1.082   .     S
C91    C101    1.397   .     A
C91    C93     1.401   .     A
C92    C102    1.400   .     A
C92    H106    1.083   .     S
C92    C94     1.394   .     A
C93    C95     1.418   .     A
C93    O137    1.387   .     S
C94    C96     1.412   .     A
C94    O142    1.382   .     S
C95    C97     1.404   .     A
C96    C98     1.400   .     A
C97    C99     1.389   .     A
C97    H107    1.080   .     S
C98    H108    1.084   .     S
C98    C100    1.389   .     A
C99    C101    1.398   .     A
C99    H109    1.083   .     S
C100   H110    1.083   .     S
C100   C102    1.402   .     A
C101   C324    1.466   1_545 S
C102   C323    1.466   .     S
Cu103  Cu104   2.689   .     S
Cu103  O123    1.978   .     S
Cu103  N118    2.020   .     S
Cu103  O119    1.956   .     S
Cu103  O122    1.960   .     S
Cu103  O126    1.983   .     S
Cu104  O125    1.983   .     S
Cu104  O124    1.978   .     S
Cu104  O120    1.956   .     S
Cu104  N117    2.020   .     S
Cu104  O121    1.960   .     S
O127   C128    1.412   .     S
O127   C163    1.393   .     S
C128   H131    1.102   .     S
C128   H129    1.115   .     S
C128   H204    1.108   .     S
O132   C133    1.413   .     S
C133   H135    1.116   .     S
C133   H136    1.104   .     S
H134   C207    1.108   .     S
O137   C138    1.412   .     S
C138   H139    1.114   .     S
C138   H141    1.110   .     S
C138   H140    1.108   .     S
O142   C143    1.410   .     S
C143   H146    1.113   .     S
C143   H145    1.114   .     S
C143   H144    1.109   .     S
C149   C169    1.473   .     S
C149   O193    1.295   .     A
C149   O195    1.305   .     A
C150   C170    1.460   .     S
C150   O196    1.299   .     A
C150   O194    1.294   .     A
C151   C159    1.420   .     A
C151   C153    1.408   .     A
C151   H185    1.077   .     S
C152   H186    1.077   .     S
C152   C160    1.420   .     A
C152   C154    1.408   .     A
C153   N191    1.360   .     A
C153   H187    1.081   .     S
C154   N192    1.360   .     A
C154   H188    1.081   .     S
C155   N191    1.377   .     A
C155   I221    2.121   .     S
C155   C157    1.399   .     A
C156   I222    2.126   .     S
C156   C158    1.399   .     A
C156   N192    1.378   .     A
C157   H189    1.076   .     S
C157   C159    1.402   .     A
C158   H190    1.076   .     S
C158   C160    1.402   .     A
C159   C604    1.526   1_554 S
C160   C603    1.526   .     S
C161   O197    1.290   .     A
C161   C163    1.456   .     S
C161   O199    1.297   .     A
C162   O200    1.297   .     A
C162   O198    1.290   .     A
C162   C164    1.454   .     S
C164   C15     1.359   1_655 S
C164   O58     1.392   1_655 S
C165   H179    1.082   .     S
C165   C175    1.397   .     A
C165   C167    1.401   .     A
C166   C176    1.400   .     A
C166   H180    1.083   .     S
C166   C168    1.394   .     A
C167   C169    1.418   .     A
C167   O211    1.387   .     S
C168   C170    1.412   .     A
C168   O216    1.382   .     S
C169   C171    1.404   .     A
C170   C172    1.400   .     A
C171   C173    1.389   .     A
C171   H181    1.080   .     S
C172   H182    1.084   .     S
C172   C174    1.389   .     A
C173   C175    1.398   .     A
C173   H183    1.083   .     S
C174   H184    1.083   .     S
C174   C176    1.402   .     A
C175   C398    1.466   1_545 S
C176   C397    1.466   .     S
Cu177  Cu178   2.689   .     S
Cu177  O197    1.978   .     S
Cu177  N192    2.020   .     S
Cu177  O193    1.956   .     S
Cu177  O196    1.960   .     S
Cu177  O200    1.983   .     S
Cu178  O199    1.983   .     S
Cu178  O198    1.978   .     S
Cu178  O194    1.956   .     S
Cu178  N191    2.020   .     S
Cu178  O195    1.960   .     S
O201   C202    1.412   .     S
O201   C15     1.393   1_655 S
C202   H205    1.102   .     S
C202   H203    1.115   .     S
C202   H56     1.108   1_655 S
O206   C207    1.413   .     S
C207   H209    1.116   .     S
C207   H210    1.104   .     S
H208   C59     1.108   1_655 S
O211   C212    1.412   .     S
C212   H213    1.114   .     S
C212   H215    1.110   .     S
C212   H214    1.108   .     S
O216   C217    1.410   .     S
C217   H220    1.113   .     S
C217   H219    1.114   .     S
C217   H218    1.109   .     S
C223   C243    1.473   .     S
C223   O267    1.295   .     A
C223   O269    1.305   .     A
C224   C244    1.460   .     S
C224   O270    1.299   .     A
C224   O268    1.294   .     A
C225   C233    1.420   .     A
C225   C227    1.408   .     A
C225   H259    1.077   .     S
C226   H260    1.077   .     S
C226   C234    1.420   .     A
C226   C228    1.408   .     A
C227   N265    1.360   .     A
C227   H261    1.081   .     S
C228   N266    1.360   .     A
C228   H262    1.081   .     S
C229   N265    1.377   .     A
C229   I295    2.121   .     S
C229   C231    1.399   .     A
C230   I296    2.126   .     S
C230   C232    1.399   .     A
C230   N266    1.378   .     A
C231   H263    1.076   .     S
C231   C233    1.402   .     A
C232   H264    1.076   .     S
C232   C234    1.402   .     A
C233   C678    1.526   1_554 S
C234   C677    1.526   .     S
C235   O271    1.290   .     A
C235   C237    1.456   .     S
C235   O273    1.297   .     A
C236   O274    1.297   .     A
C236   O272    1.290   .     A
C236   C238    1.454   .     S
C237   C386    1.359   1_455 S
C237   O423    1.393   1_455 S
C238   C311    1.359   .     S
C238   O354    1.392   .     S
C239   H253    1.082   .     S
C239   C249    1.397   .     A
C239   C241    1.401   .     A
C240   C250    1.400   .     A
C240   H254    1.083   .     S
C240   C242    1.394   .     A
C241   C243    1.418   .     A
C241   O285    1.387   .     S
C242   C244    1.412   .     A
C242   O290    1.382   .     S
C243   C245    1.404   .     A
C244   C246    1.400   .     A
C245   C247    1.389   .     A
C245   H255    1.080   .     S
C246   H256    1.084   .     S
C246   C248    1.389   .     A
C247   C249    1.398   .     A
C247   H257    1.083   .     S
C248   H258    1.083   .     S
C248   C250    1.402   .     A
C250   C27     1.466   1_565 S
Cu251  Cu252   2.689   .     S
Cu251  O271    1.978   .     S
Cu251  N266    2.020   .     S
Cu251  O267    1.956   .     S
Cu251  O270    1.960   .     S
Cu251  O274    1.983   .     S
Cu252  O273    1.983   .     S
Cu252  O272    1.978   .     S
Cu252  O268    1.956   .     S
Cu252  N265    2.020   .     S
Cu252  O269    1.960   .     S
O275   C276    1.412   .     S
O275   C311    1.393   .     S
C276   H279    1.102   .     S
C276   H277    1.115   .     S
C276   H352    1.108   .     S
H278   C424    1.108   1_455 S
O280   C281    1.413   .     S
O280   C386    1.392   1_455 S
C281   H283    1.116   .     S
C281   H284    1.104   .     S
C281   H430    1.108   1_455 S
H282   C355    1.108   .     S
O285   C286    1.412   .     S
C286   H287    1.114   .     S
C286   H289    1.110   .     S
C286   H288    1.108   .     S
O290   C291    1.410   .     S
C291   H294    1.113   .     S
C291   H293    1.114   .     S
C291   H292    1.109   .     S
C297   C317    1.473   .     S
C297   O341    1.295   .     A
C297   O343    1.305   .     A
C298   C318    1.460   .     S
C298   O344    1.299   .     A
C298   O342    1.294   .     A
C299   C307    1.420   .     A
C299   C301    1.408   .     A
C299   H333    1.077   .     S
C300   H334    1.077   .     S
C300   C308    1.420   .     A
C300   C302    1.408   .     A
C301   N339    1.360   .     A
C301   H335    1.081   .     S
C302   N340    1.360   .     A
C302   H336    1.081   .     S
C303   N339    1.377   .     A
C303   I369    2.121   .     S
C303   C305    1.399   .     A
C304   I370    2.126   .     S
C304   C306    1.399   .     A
C304   N340    1.378   .     A
C305   H337    1.076   .     S
C305   C307    1.402   .     A
C306   H338    1.076   .     S
C306   C308    1.402   .     A
C307   C752    1.526   1_554 S
C308   C751    1.526   .     S
C309   O345    1.290   .     A
C309   C311    1.456   .     S
C309   O347    1.297   .     A
C310   O348    1.297   .     A
C310   O346    1.290   .     A
C310   C312    1.454   .     S
C312   C385    1.359   .     S
C312   O428    1.392   .     S
C313   H327    1.082   .     S
C313   C323    1.397   .     A
C313   C315    1.401   .     A
C314   C324    1.400   .     A
C314   H328    1.083   .     S
C314   C316    1.394   .     A
C315   C317    1.418   .     A
C315   O359    1.387   .     S
C316   C318    1.412   .     A
C316   O364    1.382   .     S
C317   C319    1.404   .     A
C318   C320    1.400   .     A
C319   C321    1.389   .     A
C319   H329    1.080   .     S
C320   H330    1.084   .     S
C320   C322    1.389   .     A
C321   C323    1.398   .     A
C321   H331    1.083   .     S
C322   H332    1.083   .     S
C322   C324    1.402   .     A
C324   C101    1.466   1_565 S
Cu325  Cu326   2.689   .     S
Cu325  O345    1.978   .     S
Cu325  N340    2.020   .     S
Cu325  O341    1.956   .     S
Cu325  O344    1.960   .     S
Cu325  O348    1.983   .     S
Cu326  O347    1.983   .     S
Cu326  O346    1.978   .     S
Cu326  O342    1.956   .     S
Cu326  N339    2.020   .     S
Cu326  O343    1.960   .     S
O349   C350    1.412   .     S
O349   C385    1.393   .     S
C350   H353    1.102   .     S
C350   H351    1.115   .     S
C350   H426    1.108   .     S
O354   C355    1.413   .     S
C355   H357    1.116   .     S
C355   H358    1.104   .     S
H356   C429    1.108   .     S
O359   C360    1.412   .     S
C360   H361    1.114   .     S
C360   H363    1.110   .     S
C360   H362    1.108   .     S
O364   C365    1.410   .     S
C365   H368    1.113   .     S
C365   H367    1.114   .     S
C365   H366    1.109   .     S
C371   C391    1.473   .     S
C371   O415    1.295   .     A
C371   O417    1.305   .     A
C372   C392    1.460   .     S
C372   O418    1.299   .     A
C372   O416    1.294   .     A
C373   C381    1.420   .     A
C373   C375    1.408   .     A
C373   H407    1.077   .     S
C374   H408    1.077   .     S
C374   C382    1.420   .     A
C374   C376    1.408   .     A
C375   N413    1.360   .     A
C375   H409    1.081   .     S
C376   N414    1.360   .     A
C376   H410    1.081   .     S
C377   N413    1.377   .     A
C377   I443    2.121   .     S
C377   C379    1.399   .     A
C378   I444    2.126   .     S
C378   C380    1.399   .     A
C378   N414    1.378   .     A
C379   H411    1.076   .     S
C379   C381    1.402   .     A
C380   H412    1.076   .     S
C380   C382    1.402   .     A
C381   C826    1.526   1_554 S
C382   C825    1.526   .     S
C383   O419    1.290   .     A
C383   C385    1.456   .     S
C383   O421    1.297   .     A
C384   O422    1.297   .     A
C384   O420    1.290   .     A
C384   C386    1.454   .     S
C386   C237    1.359   1_655 S
C386   O280    1.392   1_655 S
C387   H401    1.082   .     S
C387   C397    1.397   .     A
C387   C389    1.401   .     A
C388   C398    1.400   .     A
C388   H402    1.083   .     S
C388   C390    1.394   .     A
C389   C391    1.418   .     A
C389   O433    1.387   .     S
C390   C392    1.412   .     A
C390   O438    1.382   .     S
C391   C393    1.404   .     A
C392   C394    1.400   .     A
C393   C395    1.389   .     A
C393   H403    1.080   .     S
C394   H404    1.084   .     S
C394   C396    1.389   .     A
C395   C397    1.398   .     A
C395   H405    1.083   .     S
C396   H406    1.083   .     S
C396   C398    1.402   .     A
C398   C175    1.466   1_565 S
Cu399  Cu400   2.689   .     S
Cu399  O419    1.978   .     S
Cu399  N414    2.020   .     S
Cu399  O415    1.956   .     S
Cu399  O418    1.960   .     S
Cu399  O422    1.983   .     S
Cu400  O421    1.983   .     S
Cu400  O420    1.978   .     S
Cu400  O416    1.956   .     S
Cu400  N413    2.020   .     S
Cu400  O417    1.960   .     S
O423   C424    1.412   .     S
O423   C237    1.393   1_655 S
C424   H427    1.102   .     S
C424   H425    1.115   .     S
C424   H278    1.108   1_655 S
O428   C429    1.413   .     S
C429   H431    1.116   .     S
C429   H432    1.104   .     S
H430   C281    1.108   1_655 S
O433   C434    1.412   .     S
C434   H435    1.114   .     S
C434   H437    1.110   .     S
C434   H436    1.108   .     S
O438   C439    1.410   .     S
C439   H442    1.113   .     S
C439   H441    1.114   .     S
C439   H440    1.109   .     S
C445   C465    1.473   .     S
C445   O489    1.295   .     A
C445   O491    1.305   .     A
C446   C466    1.460   .     S
C446   O492    1.299   .     A
C446   O490    1.294   .     A
C447   C455    1.420   .     A
C447   C449    1.408   .     A
C447   H481    1.077   .     S
C448   H482    1.077   .     S
C448   C456    1.420   .     A
C448   C450    1.408   .     A
C449   N487    1.360   .     A
C449   H483    1.081   .     S
C450   N488    1.360   .     A
C450   H484    1.081   .     S
C451   N487    1.377   .     A
C451   I517    2.121   .     S
C451   C453    1.399   .     A
C452   I518    2.126   .     S
C452   C454    1.399   .     A
C452   N488    1.378   .     A
C453   H485    1.076   .     S
C453   C455    1.402   .     A
C454   H486    1.076   .     S
C454   C456    1.402   .     A
C456   C11     1.526   1_556 S
C457   O493    1.290   .     A
C457   C459    1.456   .     S
C457   O495    1.297   .     A
C458   O496    1.297   .     A
C458   O494    1.290   .     A
C458   C460    1.454   .     S
C459   C608    1.359   1_455 S
C459   O645    1.393   1_455 S
C460   C533    1.359   .     S
C460   O576    1.392   .     S
C461   H475    1.082   .     S
C461   C471    1.397   .     A
C461   C463    1.401   .     A
C462   C472    1.400   .     A
C462   H476    1.083   .     S
C462   C464    1.394   .     A
C463   C465    1.418   .     A
C463   O507    1.387   .     S
C464   C466    1.412   .     A
C464   O512    1.382   .     S
C465   C467    1.404   .     A
C466   C468    1.400   .     A
C467   C469    1.389   .     A
C467   H477    1.080   .     S
C468   H478    1.084   .     S
C468   C470    1.389   .     A
C469   C471    1.398   .     A
C469   H479    1.083   .     S
C470   H480    1.083   .     S
C470   C472    1.402   .     A
C471   C694    1.466   1_545 S
C472   C693    1.466   .     S
Cu473  Cu474   2.689   .     S
Cu473  O493    1.978   .     S
Cu473  N488    2.020   .     S
Cu473  O489    1.956   .     S
Cu473  O492    1.960   .     S
Cu473  O496    1.983   .     S
Cu474  O495    1.983   .     S
Cu474  O494    1.978   .     S
Cu474  O490    1.956   .     S
Cu474  N487    2.020   .     S
Cu474  O491    1.960   .     S
O497   C498    1.412   .     S
O497   C533    1.393   .     S
C498   H501    1.102   .     S
C498   H499    1.115   .     S
C498   H574    1.108   .     S
H500   C646    1.108   1_455 S
O502   C503    1.413   .     S
O502   C608    1.392   1_455 S
C503   H505    1.116   .     S
C503   H506    1.104   .     S
C503   H652    1.108   1_455 S
H504   C577    1.108   .     S
O507   C508    1.412   .     S
C508   H509    1.114   .     S
C508   H511    1.110   .     S
C508   H510    1.108   .     S
O512   C513    1.410   .     S
C513   H516    1.113   .     S
C513   H515    1.114   .     S
C513   H514    1.109   .     S
C519   C539    1.473   .     S
C519   O563    1.295   .     A
C519   O565    1.305   .     A
C520   C540    1.460   .     S
C520   O566    1.299   .     A
C520   O564    1.294   .     A
C521   C529    1.420   .     A
C521   C523    1.408   .     A
C521   H555    1.077   .     S
C522   H556    1.077   .     S
C522   C530    1.420   .     A
C522   C524    1.408   .     A
C523   N561    1.360   .     A
C523   H557    1.081   .     S
C524   N562    1.360   .     A
C524   H558    1.081   .     S
C525   N561    1.377   .     A
C525   I591    2.121   .     S
C525   C527    1.399   .     A
C526   I592    2.126   .     S
C526   C528    1.399   .     A
C526   N562    1.378   .     A
C527   H559    1.076   .     S
C527   C529    1.402   .     A
C528   H560    1.076   .     S
C528   C530    1.402   .     A
C530   C85     1.526   1_556 S
C531   O567    1.290   .     A
C531   C533    1.456   .     S
C531   O569    1.297   .     A
C532   O570    1.297   .     A
C532   O568    1.290   .     A
C532   C534    1.454   .     S
C534   C607    1.359   .     S
C534   O650    1.392   .     S
C535   H549    1.082   .     S
C535   C545    1.397   .     A
C535   C537    1.401   .     A
C536   C546    1.400   .     A
C536   H550    1.083   .     S
C536   C538    1.394   .     A
C537   C539    1.418   .     A
C537   O581    1.387   .     S
C538   C540    1.412   .     A
C538   O586    1.382   .     S
C539   C541    1.404   .     A
C540   C542    1.400   .     A
C541   C543    1.389   .     A
C541   H551    1.080   .     S
C542   H552    1.084   .     S
C542   C544    1.389   .     A
C543   C545    1.398   .     A
C543   H553    1.083   .     S
C544   H554    1.083   .     S
C544   C546    1.402   .     A
C545   C768    1.466   1_545 S
C546   C767    1.466   .     S
Cu547  Cu548   2.689   .     S
Cu547  O567    1.978   .     S
Cu547  N562    2.020   .     S
Cu547  O563    1.956   .     S
Cu547  O566    1.960   .     S
Cu547  O570    1.983   .     S
Cu548  O569    1.983   .     S
Cu548  O568    1.978   .     S
Cu548  O564    1.956   .     S
Cu548  N561    2.020   .     S
Cu548  O565    1.960   .     S
O571   C572    1.412   .     S
O571   C607    1.393   .     S
C572   H575    1.102   .     S
C572   H573    1.115   .     S
C572   H648    1.108   .     S
O576   C577    1.413   .     S
C577   H579    1.116   .     S
C577   H580    1.104   .     S
H578   C651    1.108   .     S
O581   C582    1.412   .     S
C582   H583    1.114   .     S
C582   H585    1.110   .     S
C582   H584    1.108   .     S
O586   C587    1.410   .     S
C587   H590    1.113   .     S
C587   H589    1.114   .     S
C587   H588    1.109   .     S
C593   C613    1.473   .     S
C593   O637    1.295   .     A
C593   O639    1.305   .     A
C594   C614    1.460   .     S
C594   O640    1.299   .     A
C594   O638    1.294   .     A
C595   C603    1.420   .     A
C595   C597    1.408   .     A
C595   H629    1.077   .     S
C596   H630    1.077   .     S
C596   C604    1.420   .     A
C596   C598    1.408   .     A
C597   N635    1.360   .     A
C597   H631    1.081   .     S
C598   N636    1.360   .     A
C598   H632    1.081   .     S
C599   N635    1.377   .     A
C599   I665    2.121   .     S
C599   C601    1.399   .     A
C600   I666    2.126   .     S
C600   C602    1.399   .     A
C600   N636    1.378   .     A
C601   H633    1.076   .     S
C601   C603    1.402   .     A
C602   H634    1.076   .     S
C602   C604    1.402   .     A
C604   C159    1.526   1_556 S
C605   O641    1.290   .     A
C605   C607    1.456   .     S
C605   O643    1.297   .     A
C606   O644    1.297   .     A
C606   O642    1.290   .     A
C606   C608    1.454   .     S
C608   C459    1.359   1_655 S
C608   O502    1.392   1_655 S
C609   H623    1.082   .     S
C609   C619    1.397   .     A
C609   C611    1.401   .     A
C610   C620    1.400   .     A
C610   H624    1.083   .     S
C610   C612    1.394   .     A
C611   C613    1.418   .     A
C611   O655    1.387   .     S
C612   C614    1.412   .     A
C612   O660    1.382   .     S
C613   C615    1.404   .     A
C614   C616    1.400   .     A
C615   C617    1.389   .     A
C615   H625    1.080   .     S
C616   H626    1.084   .     S
C616   C618    1.389   .     A
C617   C619    1.398   .     A
C617   H627    1.083   .     S
C618   H628    1.083   .     S
C618   C620    1.402   .     A
C619   C842    1.466   1_545 S
C620   C841    1.466   .     S
Cu621  Cu622   2.689   .     S
Cu621  O641    1.978   .     S
Cu621  N636    2.020   .     S
Cu621  O637    1.956   .     S
Cu621  O640    1.960   .     S
Cu621  O644    1.983   .     S
Cu622  O643    1.983   .     S
Cu622  O642    1.978   .     S
Cu622  O638    1.956   .     S
Cu622  N635    2.020   .     S
Cu622  O639    1.960   .     S
O645   C646    1.412   .     S
O645   C459    1.393   1_655 S
C646   H649    1.102   .     S
C646   H647    1.115   .     S
C646   H500    1.108   1_655 S
O650   C651    1.413   .     S
C651   H653    1.116   .     S
C651   H654    1.104   .     S
H652   C503    1.108   1_655 S
O655   C656    1.412   .     S
C656   H657    1.114   .     S
C656   H659    1.110   .     S
C656   H658    1.108   .     S
O660   C661    1.410   .     S
C661   H664    1.113   .     S
C661   H663    1.114   .     S
C661   H662    1.109   .     S
C667   C687    1.473   .     S
C667   O711    1.295   .     A
C667   O713    1.305   .     A
C668   C688    1.460   .     S
C668   O714    1.299   .     A
C668   O712    1.294   .     A
C669   C677    1.420   .     A
C669   C671    1.408   .     A
C669   H703    1.077   .     S
C670   H704    1.077   .     S
C670   C678    1.420   .     A
C670   C672    1.408   .     A
C671   N709    1.360   .     A
C671   H705    1.081   .     S
C672   N710    1.360   .     A
C672   H706    1.081   .     S
C673   N709    1.377   .     A
C673   I739    2.121   .     S
C673   C675    1.399   .     A
C674   I740    2.126   .     S
C674   C676    1.399   .     A
C674   N710    1.378   .     A
C675   H707    1.076   .     S
C675   C677    1.402   .     A
C676   H708    1.076   .     S
C676   C678    1.402   .     A
C678   C233    1.526   1_556 S
C679   O715    1.290   .     A
C679   C681    1.456   .     S
C679   O717    1.297   .     A
C680   O718    1.297   .     A
C680   O716    1.290   .     A
C680   C682    1.454   .     S
C681   C830    1.359   1_455 S
C681   O867    1.393   1_455 S
C682   C755    1.359   .     S
C682   O798    1.392   .     S
C683   H697    1.082   .     S
C683   C693    1.397   .     A
C683   C685    1.401   .     A
C684   C694    1.400   .     A
C684   H698    1.083   .     S
C684   C686    1.394   .     A
C685   C687    1.418   .     A
C685   O729    1.387   .     S
C686   C688    1.412   .     A
C686   O734    1.382   .     S
C687   C689    1.404   .     A
C688   C690    1.400   .     A
C689   C691    1.389   .     A
C689   H699    1.080   .     S
C690   H700    1.084   .     S
C690   C692    1.389   .     A
C691   C693    1.398   .     A
C691   H701    1.083   .     S
C692   H702    1.083   .     S
C692   C694    1.402   .     A
C694   C471    1.466   1_565 S
Cu695  Cu696   2.689   .     S
Cu695  O715    1.978   .     S
Cu695  N710    2.020   .     S
Cu695  O711    1.956   .     S
Cu695  O714    1.960   .     S
Cu695  O718    1.983   .     S
Cu696  O717    1.983   .     S
Cu696  O716    1.978   .     S
Cu696  O712    1.956   .     S
Cu696  N709    2.020   .     S
Cu696  O713    1.960   .     S
O719   C720    1.412   .     S
O719   C755    1.393   .     S
C720   H723    1.102   .     S
C720   H721    1.115   .     S
C720   H796    1.108   .     S
H722   C868    1.108   1_455 S
O724   C725    1.413   .     S
O724   C830    1.392   1_455 S
C725   H727    1.116   .     S
C725   H728    1.104   .     S
C725   H874    1.108   1_455 S
H726   C799    1.108   .     S
O729   C730    1.412   .     S
C730   H731    1.114   .     S
C730   H733    1.110   .     S
C730   H732    1.108   .     S
O734   C735    1.410   .     S
C735   H738    1.113   .     S
C735   H737    1.114   .     S
C735   H736    1.109   .     S
C741   C761    1.473   .     S
C741   O785    1.295   .     A
C741   O787    1.305   .     A
C742   C762    1.460   .     S
C742   O788    1.299   .     A
C742   O786    1.294   .     A
C743   C751    1.420   .     A
C743   C745    1.408   .     A
C743   H777    1.077   .     S
C744   H778    1.077   .     S
C744   C752    1.420   .     A
C744   C746    1.408   .     A
C745   N783    1.360   .     A
C745   H779    1.081   .     S
C746   N784    1.360   .     A
C746   H780    1.081   .     S
C747   N783    1.377   .     A
C747   I813    2.121   .     S
C747   C749    1.399   .     A
C748   I814    2.126   .     S
C748   C750    1.399   .     A
C748   N784    1.378   .     A
C749   H781    1.076   .     S
C749   C751    1.402   .     A
C750   H782    1.076   .     S
C750   C752    1.402   .     A
C752   C307    1.526   1_556 S
C753   O789    1.290   .     A
C753   C755    1.456   .     S
C753   O791    1.297   .     A
C754   O792    1.297   .     A
C754   O790    1.290   .     A
C754   C756    1.454   .     S
C756   C829    1.359   .     S
C756   O872    1.392   .     S
C757   H771    1.082   .     S
C757   C767    1.397   .     A
C757   C759    1.401   .     A
C758   C768    1.400   .     A
C758   H772    1.083   .     S
C758   C760    1.394   .     A
C759   C761    1.418   .     A
C759   O803    1.387   .     S
C760   C762    1.412   .     A
C760   O808    1.382   .     S
C761   C763    1.404   .     A
C762   C764    1.400   .     A
C763   C765    1.389   .     A
C763   H773    1.080   .     S
C764   H774    1.084   .     S
C764   C766    1.389   .     A
C765   C767    1.398   .     A
C765   H775    1.083   .     S
C766   H776    1.083   .     S
C766   C768    1.402   .     A
C768   C545    1.466   1_565 S
Cu769  Cu770   2.689   .     S
Cu769  O789    1.978   .     S
Cu769  N784    2.020   .     S
Cu769  O785    1.956   .     S
Cu769  O788    1.960   .     S
Cu769  O792    1.983   .     S
Cu770  O791    1.983   .     S
Cu770  O790    1.978   .     S
Cu770  O786    1.956   .     S
Cu770  N783    2.020   .     S
Cu770  O787    1.960   .     S
O793   C794    1.412   .     S
O793   C829    1.393   .     S
C794   H797    1.102   .     S
C794   H795    1.115   .     S
C794   H870    1.108   .     S
O798   C799    1.413   .     S
C799   H801    1.116   .     S
C799   H802    1.104   .     S
H800   C873    1.108   .     S
O803   C804    1.412   .     S
C804   H805    1.114   .     S
C804   H807    1.110   .     S
C804   H806    1.108   .     S
O808   C809    1.410   .     S
C809   H812    1.113   .     S
C809   H811    1.114   .     S
C809   H810    1.109   .     S
C815   C835    1.473   .     S
C815   O859    1.295   .     A
C815   O861    1.305   .     A
C816   C836    1.460   .     S
C816   O862    1.299   .     A
C816   O860    1.294   .     A
C817   C825    1.420   .     A
C817   C819    1.408   .     A
C817   H851    1.077   .     S
C818   H852    1.077   .     S
C818   C826    1.420   .     A
C818   C820    1.408   .     A
C819   N857    1.360   .     A
C819   H853    1.081   .     S
C820   N858    1.360   .     A
C820   H854    1.081   .     S
C821   N857    1.377   .     A
C821   I887    2.121   .     S
C821   C823    1.399   .     A
C822   I888    2.126   .     S
C822   C824    1.399   .     A
C822   N858    1.378   .     A
C823   H855    1.076   .     S
C823   C825    1.402   .     A
C824   H856    1.076   .     S
C824   C826    1.402   .     A
C826   C381    1.526   1_556 S
C827   O863    1.290   .     A
C827   C829    1.456   .     S
C827   O865    1.297   .     A
C828   O866    1.297   .     A
C828   O864    1.290   .     A
C828   C830    1.454   .     S
C830   C681    1.359   1_655 S
C830   O724    1.392   1_655 S
C831   H845    1.082   .     S
C831   C841    1.397   .     A
C831   C833    1.401   .     A
C832   C842    1.400   .     A
C832   H846    1.083   .     S
C832   C834    1.394   .     A
C833   C835    1.418   .     A
C833   O877    1.387   .     S
C834   C836    1.412   .     A
C834   O882    1.382   .     S
C835   C837    1.404   .     A
C836   C838    1.400   .     A
C837   C839    1.389   .     A
C837   H847    1.080   .     S
C838   H848    1.084   .     S
C838   C840    1.389   .     A
C839   C841    1.398   .     A
C839   H849    1.083   .     S
C840   H850    1.083   .     S
C840   C842    1.402   .     A
C842   C619    1.466   1_565 S
Cu843  Cu844   2.689   .     S
Cu843  O863    1.978   .     S
Cu843  N858    2.020   .     S
Cu843  O859    1.956   .     S
Cu843  O862    1.960   .     S
Cu843  O866    1.983   .     S
Cu844  O865    1.983   .     S
Cu844  O864    1.978   .     S
Cu844  O860    1.956   .     S
Cu844  N857    2.020   .     S
Cu844  O861    1.960   .     S
O867   C868    1.412   .     S
O867   C681    1.393   1_655 S
C868   H871    1.102   .     S
C868   H869    1.115   .     S
C868   H722    1.108   1_655 S
O872   C873    1.413   .     S
C873   H875    1.116   .     S
C873   H876    1.104   .     S
H874   C725    1.108   1_655 S
O877   C878    1.412   .     S
C878   H879    1.114   .     S
C878   H881    1.110   .     S
C878   H880    1.108   .     S
O882   C883    1.410   .     S
C883   H886    1.113   .     S
C883   H885    1.114   .     S
C883   H884    1.109   .     S
