data_str_m2_o1_o16_pcu_sym.27
_audit_creation_date              2020-01-03
_audit_creation_method            'Materials Studio'
_symmetry_space_group_name_H-M    'P1'
_symmetry_Int_Tables_number       1
_symmetry_cell_setting            triclinic
loop_
_symmetry_equiv_pos_as_xyz
  x,y,z
_cell_length_a                    28.6051
_cell_length_b                    32.5186
_cell_length_c                    27.0947
_cell_angle_alpha                 90.4731
_cell_angle_beta                  73.6344
_cell_angle_gamma                 90.2868
loop_
_atom_site_label
_atom_site_type_symbol
_atom_site_fract_x
_atom_site_fract_y
_atom_site_fract_z
_atom_site_U_iso_or_equiv
_atom_site_adp_type
_atom_site_occupancy
C1     C     0.16672   0.24593   0.25018   0.00000  Uiso   1.00
C2     C     0.12762   0.17911   0.40607   0.00000  Uiso   1.00
C3     C     0.21036   0.31223   0.24337   0.00000  Uiso   1.00
C4     C     0.14127   0.17107   0.34960   0.00000  Uiso   1.00
C5     C     0.21007   0.02146   0.24339   0.00000  Uiso   1.00
C6     C     0.16601   0.04266   0.25087   0.00000  Uiso   1.00
C7     C     0.12204   0.02074   0.25880   0.00000  Uiso   1.00
C8     C     0.12255   0.31155   0.25850   0.00000  Uiso   1.00
C9     C     0.16662   0.29049   0.25067   0.00000  Uiso   1.00
C10    C     0.30311   0.19843   0.27160   0.00000  Uiso   1.00
C11    C     0.01896   0.19796   0.27268   0.00000  Uiso   1.00
C12    C     0.14609   0.17334   0.48919   0.00000  Uiso   1.00
C13    C     0.03089   0.13598   0.22585   0.00000  Uiso   1.00
C14    C     0.31455   0.13576   0.22649   0.00000  Uiso   1.00
C15    C     0.16642   0.08735   0.25035   0.00000  Uiso   1.00
C16    C     0.19230   0.16582   0.15051   0.00000  Uiso   1.00
C17    C     0.26165   0.13968   0.01468   0.00000  Uiso   1.00
C18    C     0.20581   0.16192   0.09478   0.00000  Uiso   1.00
C19    C     0.07852   0.18639   0.43257   0.00000  Uiso   1.00
C20    C     0.06297   0.18508   0.48597   0.00000  Uiso   1.00
C21    C     0.09536   0.17513   0.01382   0.00000  Uiso   1.00
C22    C     0.16237   0.17718   0.43492   0.00000  Uiso   1.00
C23    C     0.18150   0.16658   0.01611   0.00000  Uiso   1.00
C24    C     0.22924   0.15417   0.48835   0.00000  Uiso   1.00
C25    C     0.24510   0.16155   0.43569   0.00000  Uiso   1.00
C26    C     0.21314   0.17880   0.41176   0.00000  Uiso   1.00
C27    C     0.17264   0.17476   0.06873   0.00000  Uiso   1.00
C28    C     0.24941   0.14289   0.06799   0.00000  Uiso   1.00
Cu29   Cu    0.11978   0.16666   0.25000   0.00000  Uiso   1.00
Cu30   Cu    0.21355   0.16667   0.25000   0.00000  Uiso   1.00
F31    F     0.07847   0.04006   0.26744   0.00000  Uiso   1.00
F32    F     0.06039   0.10573   0.20003   0.00000  Uiso   1.00
F33    F     0.29283   0.15824   0.40908   0.00000  Uiso   1.00
F34    F     0.30509   0.12274   0.48903   0.00000  Uiso   1.00
F35    F     0.13587   0.20037   0.09332   0.00000  Uiso   1.00
F36    F     0.04518   0.19415   0.40681   0.00000  Uiso   1.00
F37    F     0.07593   0.16433   0.06369   0.00000  Uiso   1.00
F38    F     0.01546   0.19174   0.01106   0.00000  Uiso   1.00
F39    F     0.23245   0.20387   0.37158   0.00000  Uiso   1.00
H40    H     0.27448   0.13158   0.08813   0.00000  Uiso   1.00
H41    H     0.24439   0.03767   0.23721   0.00000  Uiso   1.00
H42    H     0.08831   0.29519   0.26473   0.00000  Uiso   1.00
H43    H     0.28062   0.22451   0.28779   0.00000  Uiso   1.00
H44    H     0.03271   0.22301   0.29114   0.00000  Uiso   1.00
H45    H     0.30087   0.11109   0.20735   0.00000  Uiso   1.00
H46    H     0.24481   0.29644   0.23725   0.00000  Uiso   1.00
N47    N     0.04931   0.16666   0.24998   0.00000  Uiso   1.00
N48    N     0.28402   0.16669   0.24999   0.00000  Uiso   1.00
O49    O     0.12708   0.22678   0.25000   0.00000  Uiso   1.00
O50    O     0.20627   0.22679   0.25000   0.00000  Uiso   1.00
O51    O     0.10775   0.16665   0.32549   0.00000  Uiso   1.00
O52    O     0.18694   0.16666   0.32549   0.00000  Uiso   1.00
O53    O     0.12706   0.10654   0.24999   0.00000  Uiso   1.00
O54    O     0.20625   0.10655   0.24999   0.00000  Uiso   1.00
O55    O     0.14640   0.16667   0.17451   0.00000  Uiso   1.00
O56    O     0.22559   0.16668   0.17451   0.00000  Uiso   1.00
C57    C     0.50005   0.24593   0.25018   0.00000  Uiso   1.00
C58    C     0.46096   0.17911   0.40607   0.00000  Uiso   1.00
C59    C     0.54370   0.31223   0.24337   0.00000  Uiso   1.00
C60    C     0.47460   0.17107   0.34960   0.00000  Uiso   1.00
C61    C     0.54340   0.02146   0.24339   0.00000  Uiso   1.00
C62    C     0.49934   0.04266   0.25087   0.00000  Uiso   1.00
C63    C     0.45537   0.02074   0.25880   0.00000  Uiso   1.00
C64    C     0.45588   0.31155   0.25850   0.00000  Uiso   1.00
C65    C     0.49995   0.29049   0.25067   0.00000  Uiso   1.00
C66    C     0.63644   0.19843   0.27160   0.00000  Uiso   1.00
C67    C     0.35229   0.19796   0.27268   0.00000  Uiso   1.00
C68    C     0.47942   0.17334   0.48919   0.00000  Uiso   1.00
C69    C     0.36422   0.13598   0.22585   0.00000  Uiso   1.00
C70    C     0.64788   0.13576   0.22649   0.00000  Uiso   1.00
C71    C     0.49975   0.08735   0.25035   0.00000  Uiso   1.00
C72    C     0.52563   0.16582   0.15051   0.00000  Uiso   1.00
C73    C     0.59498   0.13968   0.01468   0.00000  Uiso   1.00
C74    C     0.53915   0.16192   0.09478   0.00000  Uiso   1.00
C75    C     0.41185   0.18639   0.43257   0.00000  Uiso   1.00
C76    C     0.39630   0.18508   0.48597   0.00000  Uiso   1.00
C77    C     0.42869   0.17513   0.01382   0.00000  Uiso   1.00
C78    C     0.49570   0.17718   0.43492   0.00000  Uiso   1.00
C79    C     0.51483   0.16658   0.01611   0.00000  Uiso   1.00
C80    C     0.56257   0.15417   0.48835   0.00000  Uiso   1.00
C81    C     0.57843   0.16155   0.43569   0.00000  Uiso   1.00
C82    C     0.54647   0.17880   0.41176   0.00000  Uiso   1.00
C83    C     0.50597   0.17476   0.06873   0.00000  Uiso   1.00
C84    C     0.58274   0.14289   0.06799   0.00000  Uiso   1.00
Cu85   Cu    0.45311   0.16666   0.25000   0.00000  Uiso   1.00
Cu86   Cu    0.54689   0.16667   0.25000   0.00000  Uiso   1.00
F87    F     0.41180   0.04006   0.26744   0.00000  Uiso   1.00
F88    F     0.39373   0.10573   0.20003   0.00000  Uiso   1.00
F89    F     0.62616   0.15824   0.40908   0.00000  Uiso   1.00
F90    F     0.63842   0.12274   0.48903   0.00000  Uiso   1.00
F91    F     0.46920   0.20037   0.09332   0.00000  Uiso   1.00
F92    F     0.37852   0.19415   0.40681   0.00000  Uiso   1.00
F93    F     0.40926   0.16433   0.06369   0.00000  Uiso   1.00
F94    F     0.34879   0.19174   0.01106   0.00000  Uiso   1.00
F95    F     0.56579   0.20387   0.37158   0.00000  Uiso   1.00
H96    H     0.60781   0.13158   0.08813   0.00000  Uiso   1.00
H97    H     0.57772   0.03767   0.23721   0.00000  Uiso   1.00
H98    H     0.42164   0.29519   0.26473   0.00000  Uiso   1.00
H99    H     0.61396   0.22451   0.28779   0.00000  Uiso   1.00
H100   H     0.36604   0.22301   0.29114   0.00000  Uiso   1.00
H101   H     0.63420   0.11109   0.20735   0.00000  Uiso   1.00
H102   H     0.57814   0.29644   0.23725   0.00000  Uiso   1.00
N103   N     0.38265   0.16666   0.24998   0.00000  Uiso   1.00
N104   N     0.61735   0.16669   0.24999   0.00000  Uiso   1.00
O105   O     0.46042   0.22678   0.25000   0.00000  Uiso   1.00
O106   O     0.53961   0.22679   0.25000   0.00000  Uiso   1.00
O107   O     0.44108   0.16665   0.32549   0.00000  Uiso   1.00
O108   O     0.52027   0.16666   0.32549   0.00000  Uiso   1.00
O109   O     0.46039   0.10654   0.24999   0.00000  Uiso   1.00
O110   O     0.53958   0.10655   0.24999   0.00000  Uiso   1.00
O111   O     0.47973   0.16667   0.17451   0.00000  Uiso   1.00
O112   O     0.55892   0.16668   0.17451   0.00000  Uiso   1.00
C113   C     0.83338   0.24593   0.25018   0.00000  Uiso   1.00
C114   C     0.79429   0.17911   0.40607   0.00000  Uiso   1.00
C115   C     0.87703   0.31223   0.24337   0.00000  Uiso   1.00
C116   C     0.80794   0.17107   0.34960   0.00000  Uiso   1.00
C117   C     0.87673   0.02146   0.24339   0.00000  Uiso   1.00
C118   C     0.83268   0.04266   0.25087   0.00000  Uiso   1.00
C119   C     0.78870   0.02074   0.25880   0.00000  Uiso   1.00
C120   C     0.78921   0.31155   0.25850   0.00000  Uiso   1.00
C121   C     0.83329   0.29049   0.25067   0.00000  Uiso   1.00
C122   C     0.96977   0.19843   0.27160   0.00000  Uiso   1.00
C123   C     0.68562   0.19796   0.27268   0.00000  Uiso   1.00
C124   C     0.81275   0.17334   0.48919   0.00000  Uiso   1.00
C125   C     0.69755   0.13598   0.22585   0.00000  Uiso   1.00
C126   C     0.98122   0.13576   0.22649   0.00000  Uiso   1.00
C127   C     0.83308   0.08735   0.25035   0.00000  Uiso   1.00
C128   C     0.85897   0.16582   0.15051   0.00000  Uiso   1.00
C129   C     0.92832   0.13968   0.01468   0.00000  Uiso   1.00
C130   C     0.87248   0.16192   0.09478   0.00000  Uiso   1.00
C131   C     0.74518   0.18639   0.43257   0.00000  Uiso   1.00
C132   C     0.72963   0.18508   0.48597   0.00000  Uiso   1.00
C133   C     0.76202   0.17513   0.01382   0.00000  Uiso   1.00
C134   C     0.82904   0.17718   0.43492   0.00000  Uiso   1.00
C135   C     0.84817   0.16658   0.01611   0.00000  Uiso   1.00
C136   C     0.89590   0.15417   0.48835   0.00000  Uiso   1.00
C137   C     0.91177   0.16155   0.43569   0.00000  Uiso   1.00
C138   C     0.87981   0.17880   0.41176   0.00000  Uiso   1.00
C139   C     0.83931   0.17476   0.06873   0.00000  Uiso   1.00
C140   C     0.91607   0.14289   0.06799   0.00000  Uiso   1.00
Cu141  Cu    0.78645   0.16666   0.25000   0.00000  Uiso   1.00
Cu142  Cu    0.88022   0.16667   0.25000   0.00000  Uiso   1.00
F143   F     0.74514   0.04006   0.26744   0.00000  Uiso   1.00
F144   F     0.72706   0.10573   0.20003   0.00000  Uiso   1.00
F145   F     0.95950   0.15824   0.40908   0.00000  Uiso   1.00
F146   F     0.97175   0.12274   0.48903   0.00000  Uiso   1.00
F147   F     0.80254   0.20037   0.09332   0.00000  Uiso   1.00
F148   F     0.71185   0.19415   0.40681   0.00000  Uiso   1.00
F149   F     0.74260   0.16433   0.06369   0.00000  Uiso   1.00
F150   F     0.68212   0.19174   0.01106   0.00000  Uiso   1.00
F151   F     0.89912   0.20387   0.37158   0.00000  Uiso   1.00
H152   H     0.94115   0.13158   0.08813   0.00000  Uiso   1.00
H153   H     0.91105   0.03767   0.23721   0.00000  Uiso   1.00
H154   H     0.75497   0.29519   0.26473   0.00000  Uiso   1.00
H155   H     0.94729   0.22451   0.28779   0.00000  Uiso   1.00
H156   H     0.69937   0.22301   0.29114   0.00000  Uiso   1.00
H157   H     0.96754   0.11109   0.20735   0.00000  Uiso   1.00
H158   H     0.91147   0.29644   0.23725   0.00000  Uiso   1.00
N159   N     0.71598   0.16666   0.24998   0.00000  Uiso   1.00
N160   N     0.95069   0.16669   0.24999   0.00000  Uiso   1.00
O161   O     0.79375   0.22678   0.25000   0.00000  Uiso   1.00
O162   O     0.87294   0.22679   0.25000   0.00000  Uiso   1.00
O163   O     0.77441   0.16665   0.32549   0.00000  Uiso   1.00
O164   O     0.85360   0.16666   0.32549   0.00000  Uiso   1.00
O165   O     0.79373   0.10654   0.24999   0.00000  Uiso   1.00
O166   O     0.87292   0.10655   0.24999   0.00000  Uiso   1.00
O167   O     0.81306   0.16667   0.17451   0.00000  Uiso   1.00
O168   O     0.89225   0.16668   0.17451   0.00000  Uiso   1.00
C169   C     0.16672   0.57926   0.25018   0.00000  Uiso   1.00
C170   C     0.12762   0.51244   0.40607   0.00000  Uiso   1.00
C171   C     0.21036   0.64556   0.24337   0.00000  Uiso   1.00
C172   C     0.14127   0.50441   0.34960   0.00000  Uiso   1.00
C173   C     0.21007   0.35479   0.24339   0.00000  Uiso   1.00
C174   C     0.16601   0.37600   0.25087   0.00000  Uiso   1.00
C175   C     0.12204   0.35407   0.25880   0.00000  Uiso   1.00
C176   C     0.12255   0.64488   0.25850   0.00000  Uiso   1.00
C177   C     0.16662   0.62382   0.25067   0.00000  Uiso   1.00
C178   C     0.30311   0.53177   0.27160   0.00000  Uiso   1.00
C179   C     0.01896   0.53130   0.27268   0.00000  Uiso   1.00
C180   C     0.14609   0.50667   0.48919   0.00000  Uiso   1.00
C181   C     0.03089   0.46931   0.22585   0.00000  Uiso   1.00
C182   C     0.31455   0.46909   0.22649   0.00000  Uiso   1.00
C183   C     0.16642   0.42069   0.25035   0.00000  Uiso   1.00
C184   C     0.19230   0.49915   0.15051   0.00000  Uiso   1.00
C185   C     0.26165   0.47301   0.01468   0.00000  Uiso   1.00
C186   C     0.20581   0.49526   0.09478   0.00000  Uiso   1.00
C187   C     0.07852   0.51973   0.43257   0.00000  Uiso   1.00
C188   C     0.06297   0.51841   0.48597   0.00000  Uiso   1.00
C189   C     0.09536   0.50847   0.01382   0.00000  Uiso   1.00
C190   C     0.16237   0.51052   0.43492   0.00000  Uiso   1.00
C191   C     0.18150   0.49991   0.01611   0.00000  Uiso   1.00
C192   C     0.22924   0.48750   0.48835   0.00000  Uiso   1.00
C193   C     0.24510   0.49488   0.43569   0.00000  Uiso   1.00
C194   C     0.21314   0.51213   0.41176   0.00000  Uiso   1.00
C195   C     0.17264   0.50809   0.06873   0.00000  Uiso   1.00
C196   C     0.24941   0.47622   0.06799   0.00000  Uiso   1.00
Cu197  Cu    0.11978   0.49999   0.25000   0.00000  Uiso   1.00
Cu198  Cu    0.21355   0.50001   0.25000   0.00000  Uiso   1.00
F199   F     0.07847   0.37339   0.26744   0.00000  Uiso   1.00
F200   F     0.06039   0.43906   0.20003   0.00000  Uiso   1.00
F201   F     0.29283   0.49157   0.40908   0.00000  Uiso   1.00
F202   F     0.30509   0.45608   0.48903   0.00000  Uiso   1.00
F203   F     0.13587   0.53370   0.09332   0.00000  Uiso   1.00
F204   F     0.04518   0.52749   0.40681   0.00000  Uiso   1.00
F205   F     0.07593   0.49766   0.06369   0.00000  Uiso   1.00
F206   F     0.01546   0.52507   0.01106   0.00000  Uiso   1.00
F207   F     0.23245   0.53720   0.37158   0.00000  Uiso   1.00
H208   H     0.27448   0.46491   0.08813   0.00000  Uiso   1.00
H209   H     0.24439   0.37100   0.23721   0.00000  Uiso   1.00
H210   H     0.08831   0.62853   0.26473   0.00000  Uiso   1.00
H211   H     0.28062   0.55784   0.28779   0.00000  Uiso   1.00
H212   H     0.03271   0.55634   0.29114   0.00000  Uiso   1.00
H213   H     0.30087   0.44443   0.20735   0.00000  Uiso   1.00
H214   H     0.24481   0.62977   0.23725   0.00000  Uiso   1.00
N215   N     0.04931   0.49999   0.24998   0.00000  Uiso   1.00
N216   N     0.28402   0.50002   0.24999   0.00000  Uiso   1.00
O217   O     0.12708   0.56011   0.25000   0.00000  Uiso   1.00
O218   O     0.20627   0.56012   0.25000   0.00000  Uiso   1.00
O219   O     0.10775   0.49998   0.32549   0.00000  Uiso   1.00
O220   O     0.18694   0.49999   0.32549   0.00000  Uiso   1.00
O221   O     0.12706   0.43988   0.24999   0.00000  Uiso   1.00
O222   O     0.20625   0.43989   0.24999   0.00000  Uiso   1.00
O223   O     0.14640   0.50001   0.17451   0.00000  Uiso   1.00
O224   O     0.22559   0.50002   0.17451   0.00000  Uiso   1.00
C225   C     0.50005   0.57926   0.25018   0.00000  Uiso   1.00
C226   C     0.46096   0.51244   0.40607   0.00000  Uiso   1.00
C227   C     0.54370   0.64556   0.24337   0.00000  Uiso   1.00
C228   C     0.47460   0.50441   0.34960   0.00000  Uiso   1.00
C229   C     0.54340   0.35479   0.24339   0.00000  Uiso   1.00
C230   C     0.49934   0.37600   0.25087   0.00000  Uiso   1.00
C231   C     0.45537   0.35407   0.25880   0.00000  Uiso   1.00
C232   C     0.45588   0.64488   0.25850   0.00000  Uiso   1.00
C233   C     0.49995   0.62382   0.25067   0.00000  Uiso   1.00
C234   C     0.63644   0.53177   0.27160   0.00000  Uiso   1.00
C235   C     0.35229   0.53130   0.27268   0.00000  Uiso   1.00
C236   C     0.47942   0.50667   0.48919   0.00000  Uiso   1.00
C237   C     0.36422   0.46931   0.22585   0.00000  Uiso   1.00
C238   C     0.64788   0.46909   0.22649   0.00000  Uiso   1.00
C239   C     0.49975   0.42069   0.25035   0.00000  Uiso   1.00
C240   C     0.52563   0.49915   0.15051   0.00000  Uiso   1.00
C241   C     0.59498   0.47301   0.01468   0.00000  Uiso   1.00
C242   C     0.53915   0.49526   0.09478   0.00000  Uiso   1.00
C243   C     0.41185   0.51973   0.43257   0.00000  Uiso   1.00
C244   C     0.39630   0.51841   0.48597   0.00000  Uiso   1.00
C245   C     0.42869   0.50847   0.01382   0.00000  Uiso   1.00
C246   C     0.49570   0.51052   0.43492   0.00000  Uiso   1.00
C247   C     0.51483   0.49991   0.01611   0.00000  Uiso   1.00
C248   C     0.56257   0.48750   0.48835   0.00000  Uiso   1.00
C249   C     0.57843   0.49488   0.43569   0.00000  Uiso   1.00
C250   C     0.54647   0.51213   0.41176   0.00000  Uiso   1.00
C251   C     0.50597   0.50809   0.06873   0.00000  Uiso   1.00
C252   C     0.58274   0.47622   0.06799   0.00000  Uiso   1.00
Cu253  Cu    0.45311   0.49999   0.25000   0.00000  Uiso   1.00
Cu254  Cu    0.54689   0.50001   0.25000   0.00000  Uiso   1.00
F255   F     0.41180   0.37339   0.26744   0.00000  Uiso   1.00
F256   F     0.39373   0.43906   0.20003   0.00000  Uiso   1.00
F257   F     0.62616   0.49157   0.40908   0.00000  Uiso   1.00
F258   F     0.63842   0.45608   0.48903   0.00000  Uiso   1.00
F259   F     0.46920   0.53370   0.09332   0.00000  Uiso   1.00
F260   F     0.37852   0.52749   0.40681   0.00000  Uiso   1.00
F261   F     0.40926   0.49766   0.06369   0.00000  Uiso   1.00
F262   F     0.34879   0.52507   0.01106   0.00000  Uiso   1.00
F263   F     0.56579   0.53720   0.37158   0.00000  Uiso   1.00
H264   H     0.60781   0.46491   0.08813   0.00000  Uiso   1.00
H265   H     0.57772   0.37100   0.23721   0.00000  Uiso   1.00
H266   H     0.42164   0.62853   0.26473   0.00000  Uiso   1.00
H267   H     0.61396   0.55784   0.28779   0.00000  Uiso   1.00
H268   H     0.36604   0.55634   0.29114   0.00000  Uiso   1.00
H269   H     0.63420   0.44443   0.20735   0.00000  Uiso   1.00
H270   H     0.57814   0.62977   0.23725   0.00000  Uiso   1.00
N271   N     0.38265   0.49999   0.24998   0.00000  Uiso   1.00
N272   N     0.61735   0.50002   0.24999   0.00000  Uiso   1.00
O273   O     0.46042   0.56011   0.25000   0.00000  Uiso   1.00
O274   O     0.53961   0.56012   0.25000   0.00000  Uiso   1.00
O275   O     0.44108   0.49998   0.32549   0.00000  Uiso   1.00
O276   O     0.52027   0.49999   0.32549   0.00000  Uiso   1.00
O277   O     0.46039   0.43988   0.24999   0.00000  Uiso   1.00
O278   O     0.53958   0.43989   0.24999   0.00000  Uiso   1.00
O279   O     0.47973   0.50001   0.17451   0.00000  Uiso   1.00
O280   O     0.55892   0.50002   0.17451   0.00000  Uiso   1.00
C281   C     0.83338   0.57926   0.25018   0.00000  Uiso   1.00
C282   C     0.79429   0.51244   0.40607   0.00000  Uiso   1.00
C283   C     0.87703   0.64556   0.24337   0.00000  Uiso   1.00
C284   C     0.80794   0.50441   0.34960   0.00000  Uiso   1.00
C285   C     0.87673   0.35479   0.24339   0.00000  Uiso   1.00
C286   C     0.83268   0.37600   0.25087   0.00000  Uiso   1.00
C287   C     0.78870   0.35407   0.25880   0.00000  Uiso   1.00
C288   C     0.78921   0.64488   0.25850   0.00000  Uiso   1.00
C289   C     0.83329   0.62382   0.25067   0.00000  Uiso   1.00
C290   C     0.96977   0.53177   0.27160   0.00000  Uiso   1.00
C291   C     0.68562   0.53130   0.27268   0.00000  Uiso   1.00
C292   C     0.81275   0.50667   0.48919   0.00000  Uiso   1.00
C293   C     0.69755   0.46931   0.22585   0.00000  Uiso   1.00
C294   C     0.98122   0.46909   0.22649   0.00000  Uiso   1.00
C295   C     0.83308   0.42069   0.25035   0.00000  Uiso   1.00
C296   C     0.85897   0.49915   0.15051   0.00000  Uiso   1.00
C297   C     0.92832   0.47301   0.01468   0.00000  Uiso   1.00
C298   C     0.87248   0.49526   0.09478   0.00000  Uiso   1.00
C299   C     0.74518   0.51973   0.43257   0.00000  Uiso   1.00
C300   C     0.72963   0.51841   0.48597   0.00000  Uiso   1.00
C301   C     0.76202   0.50847   0.01382   0.00000  Uiso   1.00
C302   C     0.82904   0.51052   0.43492   0.00000  Uiso   1.00
C303   C     0.84817   0.49991   0.01611   0.00000  Uiso   1.00
C304   C     0.89590   0.48750   0.48835   0.00000  Uiso   1.00
C305   C     0.91177   0.49488   0.43569   0.00000  Uiso   1.00
C306   C     0.87981   0.51213   0.41176   0.00000  Uiso   1.00
C307   C     0.83931   0.50809   0.06873   0.00000  Uiso   1.00
C308   C     0.91607   0.47622   0.06799   0.00000  Uiso   1.00
Cu309  Cu    0.78645   0.49999   0.25000   0.00000  Uiso   1.00
Cu310  Cu    0.88022   0.50001   0.25000   0.00000  Uiso   1.00
F311   F     0.74514   0.37339   0.26744   0.00000  Uiso   1.00
F312   F     0.72706   0.43906   0.20003   0.00000  Uiso   1.00
F313   F     0.95950   0.49157   0.40908   0.00000  Uiso   1.00
F314   F     0.97175   0.45608   0.48903   0.00000  Uiso   1.00
F315   F     0.80254   0.53370   0.09332   0.00000  Uiso   1.00
F316   F     0.71185   0.52749   0.40681   0.00000  Uiso   1.00
F317   F     0.74260   0.49766   0.06369   0.00000  Uiso   1.00
F318   F     0.68212   0.52507   0.01106   0.00000  Uiso   1.00
F319   F     0.89912   0.53720   0.37158   0.00000  Uiso   1.00
H320   H     0.94115   0.46491   0.08813   0.00000  Uiso   1.00
H321   H     0.91105   0.37100   0.23721   0.00000  Uiso   1.00
H322   H     0.75497   0.62853   0.26473   0.00000  Uiso   1.00
H323   H     0.94729   0.55784   0.28779   0.00000  Uiso   1.00
H324   H     0.69937   0.55634   0.29114   0.00000  Uiso   1.00
H325   H     0.96754   0.44443   0.20735   0.00000  Uiso   1.00
H326   H     0.91147   0.62977   0.23725   0.00000  Uiso   1.00
N327   N     0.71598   0.49999   0.24998   0.00000  Uiso   1.00
N328   N     0.95069   0.50002   0.24999   0.00000  Uiso   1.00
O329   O     0.79375   0.56011   0.25000   0.00000  Uiso   1.00
O330   O     0.87294   0.56012   0.25000   0.00000  Uiso   1.00
O331   O     0.77441   0.49998   0.32549   0.00000  Uiso   1.00
O332   O     0.85360   0.49999   0.32549   0.00000  Uiso   1.00
O333   O     0.79373   0.43988   0.24999   0.00000  Uiso   1.00
O334   O     0.87292   0.43989   0.24999   0.00000  Uiso   1.00
O335   O     0.81306   0.50001   0.17451   0.00000  Uiso   1.00
O336   O     0.89225   0.50002   0.17451   0.00000  Uiso   1.00
C337   C     0.16672   0.91259   0.25018   0.00000  Uiso   1.00
C338   C     0.12762   0.84578   0.40607   0.00000  Uiso   1.00
C339   C     0.21036   0.97890   0.24337   0.00000  Uiso   1.00
C340   C     0.14127   0.83774   0.34960   0.00000  Uiso   1.00
C341   C     0.21007   0.68812   0.24339   0.00000  Uiso   1.00
C342   C     0.16601   0.70933   0.25087   0.00000  Uiso   1.00
C343   C     0.12204   0.68740   0.25880   0.00000  Uiso   1.00
C344   C     0.12255   0.97822   0.25850   0.00000  Uiso   1.00
C345   C     0.16662   0.95715   0.25067   0.00000  Uiso   1.00
C346   C     0.30311   0.86510   0.27160   0.00000  Uiso   1.00
C347   C     0.01896   0.86463   0.27268   0.00000  Uiso   1.00
C348   C     0.14609   0.84000   0.48919   0.00000  Uiso   1.00
C349   C     0.03089   0.80264   0.22585   0.00000  Uiso   1.00
C350   C     0.31455   0.80242   0.22649   0.00000  Uiso   1.00
C351   C     0.16642   0.75402   0.25035   0.00000  Uiso   1.00
C352   C     0.19230   0.83249   0.15051   0.00000  Uiso   1.00
C353   C     0.26165   0.80634   0.01468   0.00000  Uiso   1.00
C354   C     0.20581   0.82859   0.09478   0.00000  Uiso   1.00
C355   C     0.07852   0.85306   0.43257   0.00000  Uiso   1.00
C356   C     0.06297   0.85175   0.48597   0.00000  Uiso   1.00
C357   C     0.09536   0.84180   0.01382   0.00000  Uiso   1.00
C358   C     0.16237   0.84385   0.43492   0.00000  Uiso   1.00
C359   C     0.18150   0.83324   0.01611   0.00000  Uiso   1.00
C360   C     0.22924   0.82083   0.48835   0.00000  Uiso   1.00
C361   C     0.24510   0.82822   0.43569   0.00000  Uiso   1.00
C362   C     0.21314   0.84546   0.41176   0.00000  Uiso   1.00
C363   C     0.17264   0.84143   0.06873   0.00000  Uiso   1.00
C364   C     0.24941   0.80955   0.06799   0.00000  Uiso   1.00
Cu365  Cu    0.11978   0.83333   0.25000   0.00000  Uiso   1.00
Cu366  Cu    0.21355   0.83334   0.25000   0.00000  Uiso   1.00
F367   F     0.07847   0.70672   0.26744   0.00000  Uiso   1.00
F368   F     0.06039   0.77240   0.20003   0.00000  Uiso   1.00
F369   F     0.29283   0.82491   0.40908   0.00000  Uiso   1.00
F370   F     0.30509   0.78941   0.48903   0.00000  Uiso   1.00
F371   F     0.13587   0.86704   0.09332   0.00000  Uiso   1.00
F372   F     0.04518   0.86082   0.40681   0.00000  Uiso   1.00
F373   F     0.07593   0.83099   0.06369   0.00000  Uiso   1.00
F374   F     0.01546   0.85840   0.01106   0.00000  Uiso   1.00
F375   F     0.23245   0.87054   0.37158   0.00000  Uiso   1.00
H376   H     0.27448   0.79824   0.08813   0.00000  Uiso   1.00
H377   H     0.24439   0.70434   0.23721   0.00000  Uiso   1.00
H378   H     0.08831   0.96186   0.26473   0.00000  Uiso   1.00
H379   H     0.28062   0.89117   0.28779   0.00000  Uiso   1.00
H380   H     0.03271   0.88968   0.29114   0.00000  Uiso   1.00
H381   H     0.30087   0.77776   0.20735   0.00000  Uiso   1.00
H382   H     0.24481   0.96310   0.23725   0.00000  Uiso   1.00
N383   N     0.04931   0.83332   0.24998   0.00000  Uiso   1.00
N384   N     0.28402   0.83335   0.24999   0.00000  Uiso   1.00
O385   O     0.12708   0.89345   0.25000   0.00000  Uiso   1.00
O386   O     0.20627   0.89346   0.25000   0.00000  Uiso   1.00
O387   O     0.10775   0.83332   0.32549   0.00000  Uiso   1.00
O388   O     0.18694   0.83333   0.32549   0.00000  Uiso   1.00
O389   O     0.12706   0.77321   0.24999   0.00000  Uiso   1.00
O390   O     0.20625   0.77322   0.24999   0.00000  Uiso   1.00
O391   O     0.14640   0.83334   0.17451   0.00000  Uiso   1.00
O392   O     0.22559   0.83335   0.17451   0.00000  Uiso   1.00
C393   C     0.50005   0.91259   0.25018   0.00000  Uiso   1.00
C394   C     0.46096   0.84578   0.40607   0.00000  Uiso   1.00
C395   C     0.54370   0.97890   0.24337   0.00000  Uiso   1.00
C396   C     0.47460   0.83774   0.34960   0.00000  Uiso   1.00
C397   C     0.54340   0.68812   0.24339   0.00000  Uiso   1.00
C398   C     0.49934   0.70933   0.25087   0.00000  Uiso   1.00
C399   C     0.45537   0.68740   0.25880   0.00000  Uiso   1.00
C400   C     0.45588   0.97822   0.25850   0.00000  Uiso   1.00
C401   C     0.49995   0.95715   0.25067   0.00000  Uiso   1.00
C402   C     0.63644   0.86510   0.27160   0.00000  Uiso   1.00
C403   C     0.35229   0.86463   0.27268   0.00000  Uiso   1.00
C404   C     0.47942   0.84000   0.48919   0.00000  Uiso   1.00
C405   C     0.36422   0.80264   0.22585   0.00000  Uiso   1.00
C406   C     0.64788   0.80242   0.22649   0.00000  Uiso   1.00
C407   C     0.49975   0.75402   0.25035   0.00000  Uiso   1.00
C408   C     0.52563   0.83249   0.15051   0.00000  Uiso   1.00
C409   C     0.59498   0.80634   0.01468   0.00000  Uiso   1.00
C410   C     0.53915   0.82859   0.09478   0.00000  Uiso   1.00
C411   C     0.41185   0.85306   0.43257   0.00000  Uiso   1.00
C412   C     0.39630   0.85175   0.48597   0.00000  Uiso   1.00
C413   C     0.42869   0.84180   0.01382   0.00000  Uiso   1.00
C414   C     0.49570   0.84385   0.43492   0.00000  Uiso   1.00
C415   C     0.51483   0.83324   0.01611   0.00000  Uiso   1.00
C416   C     0.56257   0.82083   0.48835   0.00000  Uiso   1.00
C417   C     0.57843   0.82822   0.43569   0.00000  Uiso   1.00
C418   C     0.54647   0.84546   0.41176   0.00000  Uiso   1.00
C419   C     0.50597   0.84143   0.06873   0.00000  Uiso   1.00
C420   C     0.58274   0.80955   0.06799   0.00000  Uiso   1.00
Cu421  Cu    0.45311   0.83333   0.25000   0.00000  Uiso   1.00
Cu422  Cu    0.54689   0.83334   0.25000   0.00000  Uiso   1.00
F423   F     0.41180   0.70672   0.26744   0.00000  Uiso   1.00
F424   F     0.39373   0.77240   0.20003   0.00000  Uiso   1.00
F425   F     0.62616   0.82491   0.40908   0.00000  Uiso   1.00
F426   F     0.63842   0.78941   0.48903   0.00000  Uiso   1.00
F427   F     0.46920   0.86704   0.09332   0.00000  Uiso   1.00
F428   F     0.37852   0.86082   0.40681   0.00000  Uiso   1.00
F429   F     0.40926   0.83099   0.06369   0.00000  Uiso   1.00
F430   F     0.34879   0.85840   0.01106   0.00000  Uiso   1.00
F431   F     0.56579   0.87054   0.37158   0.00000  Uiso   1.00
H432   H     0.60781   0.79824   0.08813   0.00000  Uiso   1.00
H433   H     0.57772   0.70434   0.23721   0.00000  Uiso   1.00
H434   H     0.42164   0.96186   0.26473   0.00000  Uiso   1.00
H435   H     0.61396   0.89117   0.28779   0.00000  Uiso   1.00
H436   H     0.36604   0.88968   0.29114   0.00000  Uiso   1.00
H437   H     0.63420   0.77776   0.20735   0.00000  Uiso   1.00
H438   H     0.57814   0.96310   0.23725   0.00000  Uiso   1.00
N439   N     0.38265   0.83332   0.24998   0.00000  Uiso   1.00
N440   N     0.61735   0.83335   0.24999   0.00000  Uiso   1.00
O441   O     0.46042   0.89345   0.25000   0.00000  Uiso   1.00
O442   O     0.53961   0.89346   0.25000   0.00000  Uiso   1.00
O443   O     0.44108   0.83332   0.32549   0.00000  Uiso   1.00
O444   O     0.52027   0.83333   0.32549   0.00000  Uiso   1.00
O445   O     0.46039   0.77321   0.24999   0.00000  Uiso   1.00
O446   O     0.53958   0.77322   0.24999   0.00000  Uiso   1.00
O447   O     0.47973   0.83334   0.17451   0.00000  Uiso   1.00
O448   O     0.55892   0.83335   0.17451   0.00000  Uiso   1.00
C449   C     0.83338   0.91259   0.25018   0.00000  Uiso   1.00
C450   C     0.79429   0.84578   0.40607   0.00000  Uiso   1.00
C451   C     0.87703   0.97890   0.24337   0.00000  Uiso   1.00
C452   C     0.80794   0.83774   0.34960   0.00000  Uiso   1.00
C453   C     0.87673   0.68812   0.24339   0.00000  Uiso   1.00
C454   C     0.83268   0.70933   0.25087   0.00000  Uiso   1.00
C455   C     0.78870   0.68740   0.25880   0.00000  Uiso   1.00
C456   C     0.78921   0.97822   0.25850   0.00000  Uiso   1.00
C457   C     0.83329   0.95715   0.25067   0.00000  Uiso   1.00
C458   C     0.96977   0.86510   0.27160   0.00000  Uiso   1.00
C459   C     0.68562   0.86463   0.27268   0.00000  Uiso   1.00
C460   C     0.81275   0.84000   0.48919   0.00000  Uiso   1.00
C461   C     0.69755   0.80264   0.22585   0.00000  Uiso   1.00
C462   C     0.98122   0.80242   0.22649   0.00000  Uiso   1.00
C463   C     0.83308   0.75402   0.25035   0.00000  Uiso   1.00
C464   C     0.85897   0.83249   0.15051   0.00000  Uiso   1.00
C465   C     0.92832   0.80634   0.01468   0.00000  Uiso   1.00
C466   C     0.87248   0.82859   0.09478   0.00000  Uiso   1.00
C467   C     0.74518   0.85306   0.43257   0.00000  Uiso   1.00
C468   C     0.72963   0.85175   0.48597   0.00000  Uiso   1.00
C469   C     0.76202   0.84180   0.01382   0.00000  Uiso   1.00
C470   C     0.82904   0.84385   0.43492   0.00000  Uiso   1.00
C471   C     0.84817   0.83324   0.01611   0.00000  Uiso   1.00
C472   C     0.89590   0.82083   0.48835   0.00000  Uiso   1.00
C473   C     0.91177   0.82822   0.43569   0.00000  Uiso   1.00
C474   C     0.87981   0.84546   0.41176   0.00000  Uiso   1.00
C475   C     0.83931   0.84143   0.06873   0.00000  Uiso   1.00
C476   C     0.91607   0.80955   0.06799   0.00000  Uiso   1.00
Cu477  Cu    0.78645   0.83333   0.25000   0.00000  Uiso   1.00
Cu478  Cu    0.88022   0.83334   0.25000   0.00000  Uiso   1.00
F479   F     0.74514   0.70672   0.26744   0.00000  Uiso   1.00
F480   F     0.72706   0.77240   0.20003   0.00000  Uiso   1.00
F481   F     0.95950   0.82491   0.40908   0.00000  Uiso   1.00
F482   F     0.97175   0.78941   0.48903   0.00000  Uiso   1.00
F483   F     0.80254   0.86704   0.09332   0.00000  Uiso   1.00
F484   F     0.71185   0.86082   0.40681   0.00000  Uiso   1.00
F485   F     0.74260   0.83099   0.06369   0.00000  Uiso   1.00
F486   F     0.68212   0.85840   0.01106   0.00000  Uiso   1.00
F487   F     0.89912   0.87054   0.37158   0.00000  Uiso   1.00
H488   H     0.94115   0.79824   0.08813   0.00000  Uiso   1.00
H489   H     0.91105   0.70434   0.23721   0.00000  Uiso   1.00
H490   H     0.75497   0.96186   0.26473   0.00000  Uiso   1.00
H491   H     0.94729   0.89117   0.28779   0.00000  Uiso   1.00
H492   H     0.69937   0.88968   0.29114   0.00000  Uiso   1.00
H493   H     0.96754   0.77776   0.20735   0.00000  Uiso   1.00
H494   H     0.91147   0.96310   0.23725   0.00000  Uiso   1.00
N495   N     0.71598   0.83332   0.24998   0.00000  Uiso   1.00
N496   N     0.95069   0.83335   0.24999   0.00000  Uiso   1.00
O497   O     0.79375   0.89345   0.25000   0.00000  Uiso   1.00
O498   O     0.87294   0.89346   0.25000   0.00000  Uiso   1.00
O499   O     0.77441   0.83332   0.32549   0.00000  Uiso   1.00
O500   O     0.85360   0.83333   0.32549   0.00000  Uiso   1.00
O501   O     0.79373   0.77321   0.24999   0.00000  Uiso   1.00
O502   O     0.87292   0.77322   0.24999   0.00000  Uiso   1.00
O503   O     0.81306   0.83334   0.17451   0.00000  Uiso   1.00
O504   O     0.89225   0.83335   0.17451   0.00000  Uiso   1.00
C505   C     0.16672   0.24593   0.75018   0.00000  Uiso   1.00
C506   C     0.12762   0.17911   0.90607   0.00000  Uiso   1.00
C507   C     0.21036   0.31223   0.74337   0.00000  Uiso   1.00
C508   C     0.14127   0.17107   0.84960   0.00000  Uiso   1.00
C509   C     0.21007   0.02146   0.74339   0.00000  Uiso   1.00
C510   C     0.16601   0.04266   0.75087   0.00000  Uiso   1.00
C511   C     0.12204   0.02074   0.75880   0.00000  Uiso   1.00
C512   C     0.12255   0.31155   0.75850   0.00000  Uiso   1.00
C513   C     0.16662   0.29049   0.75067   0.00000  Uiso   1.00
C514   C     0.30311   0.19843   0.77160   0.00000  Uiso   1.00
C515   C     0.01896   0.19796   0.77268   0.00000  Uiso   1.00
C516   C     0.14609   0.17334   0.98919   0.00000  Uiso   1.00
C517   C     0.03089   0.13598   0.72585   0.00000  Uiso   1.00
C518   C     0.31455   0.13576   0.72649   0.00000  Uiso   1.00
C519   C     0.16642   0.08735   0.75035   0.00000  Uiso   1.00
C520   C     0.19230   0.16582   0.65051   0.00000  Uiso   1.00
C521   C     0.26165   0.13968   0.51468   0.00000  Uiso   1.00
C522   C     0.20581   0.16192   0.59478   0.00000  Uiso   1.00
C523   C     0.07852   0.18639   0.93257   0.00000  Uiso   1.00
C524   C     0.06297   0.18508   0.98597   0.00000  Uiso   1.00
C525   C     0.09536   0.17513   0.51382   0.00000  Uiso   1.00
C526   C     0.16237   0.17718   0.93492   0.00000  Uiso   1.00
C527   C     0.18150   0.16658   0.51611   0.00000  Uiso   1.00
C528   C     0.22924   0.15417   0.98835   0.00000  Uiso   1.00
C529   C     0.24510   0.16155   0.93569   0.00000  Uiso   1.00
C530   C     0.21314   0.17880   0.91176   0.00000  Uiso   1.00
C531   C     0.17264   0.17476   0.56873   0.00000  Uiso   1.00
C532   C     0.24941   0.14289   0.56799   0.00000  Uiso   1.00
Cu533  Cu    0.11978   0.16666   0.75000   0.00000  Uiso   1.00
Cu534  Cu    0.21355   0.16667   0.75000   0.00000  Uiso   1.00
F535   F     0.07847   0.04006   0.76744   0.00000  Uiso   1.00
F536   F     0.06039   0.10573   0.70003   0.00000  Uiso   1.00
F537   F     0.29283   0.15824   0.90908   0.00000  Uiso   1.00
F538   F     0.30509   0.12274   0.98903   0.00000  Uiso   1.00
F539   F     0.13587   0.20037   0.59332   0.00000  Uiso   1.00
F540   F     0.04518   0.19415   0.90681   0.00000  Uiso   1.00
F541   F     0.07593   0.16433   0.56369   0.00000  Uiso   1.00
F542   F     0.01546   0.19174   0.51106   0.00000  Uiso   1.00
F543   F     0.23245   0.20387   0.87158   0.00000  Uiso   1.00
H544   H     0.27448   0.13158   0.58813   0.00000  Uiso   1.00
H545   H     0.24439   0.03767   0.73721   0.00000  Uiso   1.00
H546   H     0.08831   0.29519   0.76473   0.00000  Uiso   1.00
H547   H     0.28062   0.22451   0.78779   0.00000  Uiso   1.00
H548   H     0.03271   0.22301   0.79114   0.00000  Uiso   1.00
H549   H     0.30087   0.11109   0.70735   0.00000  Uiso   1.00
H550   H     0.24481   0.29644   0.73725   0.00000  Uiso   1.00
N551   N     0.04931   0.16666   0.74998   0.00000  Uiso   1.00
N552   N     0.28402   0.16669   0.74999   0.00000  Uiso   1.00
O553   O     0.12708   0.22678   0.75000   0.00000  Uiso   1.00
O554   O     0.20627   0.22679   0.75000   0.00000  Uiso   1.00
O555   O     0.10775   0.16665   0.82549   0.00000  Uiso   1.00
O556   O     0.18694   0.16666   0.82549   0.00000  Uiso   1.00
O557   O     0.12706   0.10654   0.74999   0.00000  Uiso   1.00
O558   O     0.20625   0.10655   0.74999   0.00000  Uiso   1.00
O559   O     0.14640   0.16667   0.67451   0.00000  Uiso   1.00
O560   O     0.22559   0.16668   0.67451   0.00000  Uiso   1.00
C561   C     0.50005   0.24593   0.75018   0.00000  Uiso   1.00
C562   C     0.46096   0.17911   0.90607   0.00000  Uiso   1.00
C563   C     0.54370   0.31223   0.74337   0.00000  Uiso   1.00
C564   C     0.47460   0.17107   0.84960   0.00000  Uiso   1.00
C565   C     0.54340   0.02146   0.74339   0.00000  Uiso   1.00
C566   C     0.49934   0.04266   0.75087   0.00000  Uiso   1.00
C567   C     0.45537   0.02074   0.75880   0.00000  Uiso   1.00
C568   C     0.45588   0.31155   0.75850   0.00000  Uiso   1.00
C569   C     0.49995   0.29049   0.75067   0.00000  Uiso   1.00
C570   C     0.63644   0.19843   0.77160   0.00000  Uiso   1.00
C571   C     0.35229   0.19796   0.77268   0.00000  Uiso   1.00
C572   C     0.47942   0.17334   0.98919   0.00000  Uiso   1.00
C573   C     0.36422   0.13598   0.72585   0.00000  Uiso   1.00
C574   C     0.64788   0.13576   0.72649   0.00000  Uiso   1.00
C575   C     0.49975   0.08735   0.75035   0.00000  Uiso   1.00
C576   C     0.52563   0.16582   0.65051   0.00000  Uiso   1.00
C577   C     0.59498   0.13968   0.51468   0.00000  Uiso   1.00
C578   C     0.53915   0.16192   0.59478   0.00000  Uiso   1.00
C579   C     0.41185   0.18639   0.93257   0.00000  Uiso   1.00
C580   C     0.39630   0.18508   0.98597   0.00000  Uiso   1.00
C581   C     0.42869   0.17513   0.51382   0.00000  Uiso   1.00
C582   C     0.49570   0.17718   0.93492   0.00000  Uiso   1.00
C583   C     0.51483   0.16658   0.51611   0.00000  Uiso   1.00
C584   C     0.56257   0.15417   0.98835   0.00000  Uiso   1.00
C585   C     0.57843   0.16155   0.93569   0.00000  Uiso   1.00
C586   C     0.54647   0.17880   0.91176   0.00000  Uiso   1.00
C587   C     0.50597   0.17476   0.56873   0.00000  Uiso   1.00
C588   C     0.58274   0.14289   0.56799   0.00000  Uiso   1.00
Cu589  Cu    0.45311   0.16666   0.75000   0.00000  Uiso   1.00
Cu590  Cu    0.54689   0.16667   0.75000   0.00000  Uiso   1.00
F591   F     0.41180   0.04006   0.76744   0.00000  Uiso   1.00
F592   F     0.39373   0.10573   0.70003   0.00000  Uiso   1.00
F593   F     0.62616   0.15824   0.90908   0.00000  Uiso   1.00
F594   F     0.63842   0.12274   0.98903   0.00000  Uiso   1.00
F595   F     0.46920   0.20037   0.59332   0.00000  Uiso   1.00
F596   F     0.37852   0.19415   0.90681   0.00000  Uiso   1.00
F597   F     0.40926   0.16433   0.56369   0.00000  Uiso   1.00
F598   F     0.34879   0.19174   0.51106   0.00000  Uiso   1.00
F599   F     0.56579   0.20387   0.87158   0.00000  Uiso   1.00
H600   H     0.60781   0.13158   0.58813   0.00000  Uiso   1.00
H601   H     0.57772   0.03767   0.73721   0.00000  Uiso   1.00
H602   H     0.42164   0.29519   0.76473   0.00000  Uiso   1.00
H603   H     0.61396   0.22451   0.78779   0.00000  Uiso   1.00
H604   H     0.36604   0.22301   0.79114   0.00000  Uiso   1.00
H605   H     0.63420   0.11109   0.70735   0.00000  Uiso   1.00
H606   H     0.57814   0.29644   0.73725   0.00000  Uiso   1.00
N607   N     0.38265   0.16666   0.74998   0.00000  Uiso   1.00
N608   N     0.61735   0.16669   0.74999   0.00000  Uiso   1.00
O609   O     0.46042   0.22678   0.75000   0.00000  Uiso   1.00
O610   O     0.53961   0.22679   0.75000   0.00000  Uiso   1.00
O611   O     0.44108   0.16665   0.82549   0.00000  Uiso   1.00
O612   O     0.52027   0.16666   0.82549   0.00000  Uiso   1.00
O613   O     0.46039   0.10654   0.74999   0.00000  Uiso   1.00
O614   O     0.53958   0.10655   0.74999   0.00000  Uiso   1.00
O615   O     0.47973   0.16667   0.67451   0.00000  Uiso   1.00
O616   O     0.55892   0.16668   0.67451   0.00000  Uiso   1.00
C617   C     0.83338   0.24593   0.75018   0.00000  Uiso   1.00
C618   C     0.79429   0.17911   0.90607   0.00000  Uiso   1.00
C619   C     0.87703   0.31223   0.74337   0.00000  Uiso   1.00
C620   C     0.80794   0.17107   0.84960   0.00000  Uiso   1.00
C621   C     0.87673   0.02146   0.74339   0.00000  Uiso   1.00
C622   C     0.83268   0.04266   0.75087   0.00000  Uiso   1.00
C623   C     0.78870   0.02074   0.75880   0.00000  Uiso   1.00
C624   C     0.78921   0.31155   0.75850   0.00000  Uiso   1.00
C625   C     0.83329   0.29049   0.75067   0.00000  Uiso   1.00
C626   C     0.96977   0.19843   0.77160   0.00000  Uiso   1.00
C627   C     0.68562   0.19796   0.77268   0.00000  Uiso   1.00
C628   C     0.81275   0.17334   0.98919   0.00000  Uiso   1.00
C629   C     0.69755   0.13598   0.72585   0.00000  Uiso   1.00
C630   C     0.98122   0.13576   0.72649   0.00000  Uiso   1.00
C631   C     0.83308   0.08735   0.75035   0.00000  Uiso   1.00
C632   C     0.85897   0.16582   0.65051   0.00000  Uiso   1.00
C633   C     0.92832   0.13968   0.51468   0.00000  Uiso   1.00
C634   C     0.87248   0.16192   0.59478   0.00000  Uiso   1.00
C635   C     0.74518   0.18639   0.93257   0.00000  Uiso   1.00
C636   C     0.72963   0.18508   0.98597   0.00000  Uiso   1.00
C637   C     0.76202   0.17513   0.51382   0.00000  Uiso   1.00
C638   C     0.82904   0.17718   0.93492   0.00000  Uiso   1.00
C639   C     0.84817   0.16658   0.51611   0.00000  Uiso   1.00
C640   C     0.89590   0.15417   0.98835   0.00000  Uiso   1.00
C641   C     0.91177   0.16155   0.93569   0.00000  Uiso   1.00
C642   C     0.87981   0.17880   0.91176   0.00000  Uiso   1.00
C643   C     0.83931   0.17476   0.56873   0.00000  Uiso   1.00
C644   C     0.91607   0.14289   0.56799   0.00000  Uiso   1.00
Cu645  Cu    0.78645   0.16666   0.75000   0.00000  Uiso   1.00
Cu646  Cu    0.88022   0.16667   0.75000   0.00000  Uiso   1.00
F647   F     0.74514   0.04006   0.76744   0.00000  Uiso   1.00
F648   F     0.72706   0.10573   0.70003   0.00000  Uiso   1.00
F649   F     0.95950   0.15824   0.90908   0.00000  Uiso   1.00
F650   F     0.97175   0.12274   0.98903   0.00000  Uiso   1.00
F651   F     0.80254   0.20037   0.59332   0.00000  Uiso   1.00
F652   F     0.71185   0.19415   0.90681   0.00000  Uiso   1.00
F653   F     0.74260   0.16433   0.56369   0.00000  Uiso   1.00
F654   F     0.68212   0.19174   0.51106   0.00000  Uiso   1.00
F655   F     0.89912   0.20387   0.87158   0.00000  Uiso   1.00
H656   H     0.94115   0.13158   0.58813   0.00000  Uiso   1.00
H657   H     0.91105   0.03767   0.73721   0.00000  Uiso   1.00
H658   H     0.75497   0.29519   0.76473   0.00000  Uiso   1.00
H659   H     0.94729   0.22451   0.78779   0.00000  Uiso   1.00
H660   H     0.69937   0.22301   0.79114   0.00000  Uiso   1.00
H661   H     0.96754   0.11109   0.70735   0.00000  Uiso   1.00
H662   H     0.91147   0.29644   0.73725   0.00000  Uiso   1.00
N663   N     0.71598   0.16666   0.74998   0.00000  Uiso   1.00
N664   N     0.95069   0.16669   0.74999   0.00000  Uiso   1.00
O665   O     0.79375   0.22678   0.75000   0.00000  Uiso   1.00
O666   O     0.87294   0.22679   0.75000   0.00000  Uiso   1.00
O667   O     0.77441   0.16665   0.82549   0.00000  Uiso   1.00
O668   O     0.85360   0.16666   0.82549   0.00000  Uiso   1.00
O669   O     0.79373   0.10654   0.74999   0.00000  Uiso   1.00
O670   O     0.87292   0.10655   0.74999   0.00000  Uiso   1.00
O671   O     0.81306   0.16667   0.67451   0.00000  Uiso   1.00
O672   O     0.89225   0.16668   0.67451   0.00000  Uiso   1.00
C673   C     0.16672   0.57926   0.75018   0.00000  Uiso   1.00
C674   C     0.12762   0.51244   0.90607   0.00000  Uiso   1.00
C675   C     0.21036   0.64556   0.74337   0.00000  Uiso   1.00
C676   C     0.14127   0.50441   0.84960   0.00000  Uiso   1.00
C677   C     0.21007   0.35479   0.74339   0.00000  Uiso   1.00
C678   C     0.16601   0.37600   0.75087   0.00000  Uiso   1.00
C679   C     0.12204   0.35407   0.75880   0.00000  Uiso   1.00
C680   C     0.12255   0.64488   0.75850   0.00000  Uiso   1.00
C681   C     0.16662   0.62382   0.75067   0.00000  Uiso   1.00
C682   C     0.30311   0.53177   0.77160   0.00000  Uiso   1.00
C683   C     0.01896   0.53130   0.77268   0.00000  Uiso   1.00
C684   C     0.14609   0.50667   0.98919   0.00000  Uiso   1.00
C685   C     0.03089   0.46931   0.72585   0.00000  Uiso   1.00
C686   C     0.31455   0.46909   0.72649   0.00000  Uiso   1.00
C687   C     0.16642   0.42069   0.75035   0.00000  Uiso   1.00
C688   C     0.19230   0.49915   0.65051   0.00000  Uiso   1.00
C689   C     0.26165   0.47301   0.51468   0.00000  Uiso   1.00
C690   C     0.20581   0.49526   0.59478   0.00000  Uiso   1.00
C691   C     0.07852   0.51973   0.93257   0.00000  Uiso   1.00
C692   C     0.06297   0.51841   0.98597   0.00000  Uiso   1.00
C693   C     0.09536   0.50847   0.51382   0.00000  Uiso   1.00
C694   C     0.16237   0.51052   0.93492   0.00000  Uiso   1.00
C695   C     0.18150   0.49991   0.51611   0.00000  Uiso   1.00
C696   C     0.22924   0.48750   0.98835   0.00000  Uiso   1.00
C697   C     0.24510   0.49488   0.93569   0.00000  Uiso   1.00
C698   C     0.21314   0.51213   0.91176   0.00000  Uiso   1.00
C699   C     0.17264   0.50809   0.56873   0.00000  Uiso   1.00
C700   C     0.24941   0.47622   0.56799   0.00000  Uiso   1.00
Cu701  Cu    0.11978   0.49999   0.75000   0.00000  Uiso   1.00
Cu702  Cu    0.21355   0.50001   0.75000   0.00000  Uiso   1.00
F703   F     0.07847   0.37339   0.76744   0.00000  Uiso   1.00
F704   F     0.06039   0.43906   0.70003   0.00000  Uiso   1.00
F705   F     0.29283   0.49157   0.90908   0.00000  Uiso   1.00
F706   F     0.30509   0.45608   0.98903   0.00000  Uiso   1.00
F707   F     0.13587   0.53370   0.59332   0.00000  Uiso   1.00
F708   F     0.04518   0.52749   0.90681   0.00000  Uiso   1.00
F709   F     0.07593   0.49766   0.56369   0.00000  Uiso   1.00
F710   F     0.01546   0.52507   0.51106   0.00000  Uiso   1.00
F711   F     0.23245   0.53720   0.87158   0.00000  Uiso   1.00
H712   H     0.27448   0.46491   0.58813   0.00000  Uiso   1.00
H713   H     0.24439   0.37100   0.73721   0.00000  Uiso   1.00
H714   H     0.08831   0.62853   0.76473   0.00000  Uiso   1.00
H715   H     0.28062   0.55784   0.78779   0.00000  Uiso   1.00
H716   H     0.03271   0.55634   0.79114   0.00000  Uiso   1.00
H717   H     0.30087   0.44443   0.70735   0.00000  Uiso   1.00
H718   H     0.24481   0.62977   0.73725   0.00000  Uiso   1.00
N719   N     0.04931   0.49999   0.74998   0.00000  Uiso   1.00
N720   N     0.28402   0.50002   0.74999   0.00000  Uiso   1.00
O721   O     0.12708   0.56011   0.75000   0.00000  Uiso   1.00
O722   O     0.20627   0.56012   0.75000   0.00000  Uiso   1.00
O723   O     0.10775   0.49998   0.82549   0.00000  Uiso   1.00
O724   O     0.18694   0.49999   0.82549   0.00000  Uiso   1.00
O725   O     0.12706   0.43988   0.74999   0.00000  Uiso   1.00
O726   O     0.20625   0.43989   0.74999   0.00000  Uiso   1.00
O727   O     0.14640   0.50001   0.67451   0.00000  Uiso   1.00
O728   O     0.22559   0.50002   0.67451   0.00000  Uiso   1.00
C729   C     0.50005   0.57926   0.75018   0.00000  Uiso   1.00
C730   C     0.46096   0.51244   0.90607   0.00000  Uiso   1.00
C731   C     0.54370   0.64556   0.74337   0.00000  Uiso   1.00
C732   C     0.47460   0.50441   0.84960   0.00000  Uiso   1.00
C733   C     0.54340   0.35479   0.74339   0.00000  Uiso   1.00
C734   C     0.49934   0.37600   0.75087   0.00000  Uiso   1.00
C735   C     0.45537   0.35407   0.75880   0.00000  Uiso   1.00
C736   C     0.45588   0.64488   0.75850   0.00000  Uiso   1.00
C737   C     0.49995   0.62382   0.75067   0.00000  Uiso   1.00
C738   C     0.63644   0.53177   0.77160   0.00000  Uiso   1.00
C739   C     0.35229   0.53130   0.77268   0.00000  Uiso   1.00
C740   C     0.47942   0.50667   0.98919   0.00000  Uiso   1.00
C741   C     0.36422   0.46931   0.72585   0.00000  Uiso   1.00
C742   C     0.64788   0.46909   0.72649   0.00000  Uiso   1.00
C743   C     0.49975   0.42069   0.75035   0.00000  Uiso   1.00
C744   C     0.52563   0.49915   0.65051   0.00000  Uiso   1.00
C745   C     0.59498   0.47301   0.51468   0.00000  Uiso   1.00
C746   C     0.53915   0.49526   0.59478   0.00000  Uiso   1.00
C747   C     0.41185   0.51973   0.93257   0.00000  Uiso   1.00
C748   C     0.39630   0.51841   0.98597   0.00000  Uiso   1.00
C749   C     0.42869   0.50847   0.51382   0.00000  Uiso   1.00
C750   C     0.49570   0.51052   0.93492   0.00000  Uiso   1.00
C751   C     0.51483   0.49991   0.51611   0.00000  Uiso   1.00
C752   C     0.56257   0.48750   0.98835   0.00000  Uiso   1.00
C753   C     0.57843   0.49488   0.93569   0.00000  Uiso   1.00
C754   C     0.54647   0.51213   0.91176   0.00000  Uiso   1.00
C755   C     0.50597   0.50809   0.56873   0.00000  Uiso   1.00
C756   C     0.58274   0.47622   0.56799   0.00000  Uiso   1.00
Cu757  Cu    0.45311   0.49999   0.75000   0.00000  Uiso   1.00
Cu758  Cu    0.54689   0.50001   0.75000   0.00000  Uiso   1.00
F759   F     0.41180   0.37339   0.76744   0.00000  Uiso   1.00
F760   F     0.39373   0.43906   0.70003   0.00000  Uiso   1.00
F761   F     0.62616   0.49157   0.90908   0.00000  Uiso   1.00
F762   F     0.63842   0.45608   0.98903   0.00000  Uiso   1.00
F763   F     0.46920   0.53370   0.59332   0.00000  Uiso   1.00
F764   F     0.37852   0.52749   0.90681   0.00000  Uiso   1.00
F765   F     0.40926   0.49766   0.56369   0.00000  Uiso   1.00
F766   F     0.34879   0.52507   0.51106   0.00000  Uiso   1.00
F767   F     0.56579   0.53720   0.87158   0.00000  Uiso   1.00
H768   H     0.60781   0.46491   0.58813   0.00000  Uiso   1.00
H769   H     0.57772   0.37100   0.73721   0.00000  Uiso   1.00
H770   H     0.42164   0.62853   0.76473   0.00000  Uiso   1.00
H771   H     0.61396   0.55784   0.78779   0.00000  Uiso   1.00
H772   H     0.36604   0.55634   0.79114   0.00000  Uiso   1.00
H773   H     0.63420   0.44443   0.70735   0.00000  Uiso   1.00
H774   H     0.57814   0.62977   0.73725   0.00000  Uiso   1.00
N775   N     0.38265   0.49999   0.74998   0.00000  Uiso   1.00
N776   N     0.61735   0.50002   0.74999   0.00000  Uiso   1.00
O777   O     0.46042   0.56011   0.75000   0.00000  Uiso   1.00
O778   O     0.53961   0.56012   0.75000   0.00000  Uiso   1.00
O779   O     0.44108   0.49998   0.82549   0.00000  Uiso   1.00
O780   O     0.52027   0.49999   0.82549   0.00000  Uiso   1.00
O781   O     0.46039   0.43988   0.74999   0.00000  Uiso   1.00
O782   O     0.53958   0.43989   0.74999   0.00000  Uiso   1.00
O783   O     0.47973   0.50001   0.67451   0.00000  Uiso   1.00
O784   O     0.55892   0.50002   0.67451   0.00000  Uiso   1.00
C785   C     0.83338   0.57926   0.75018   0.00000  Uiso   1.00
C786   C     0.79429   0.51244   0.90607   0.00000  Uiso   1.00
C787   C     0.87703   0.64556   0.74337   0.00000  Uiso   1.00
C788   C     0.80794   0.50441   0.84960   0.00000  Uiso   1.00
C789   C     0.87673   0.35479   0.74339   0.00000  Uiso   1.00
C790   C     0.83268   0.37600   0.75087   0.00000  Uiso   1.00
C791   C     0.78870   0.35407   0.75880   0.00000  Uiso   1.00
C792   C     0.78921   0.64488   0.75850   0.00000  Uiso   1.00
C793   C     0.83329   0.62382   0.75067   0.00000  Uiso   1.00
C794   C     0.96977   0.53177   0.77160   0.00000  Uiso   1.00
C795   C     0.68562   0.53130   0.77268   0.00000  Uiso   1.00
C796   C     0.81275   0.50667   0.98919   0.00000  Uiso   1.00
C797   C     0.69755   0.46931   0.72585   0.00000  Uiso   1.00
C798   C     0.98122   0.46909   0.72649   0.00000  Uiso   1.00
C799   C     0.83308   0.42069   0.75035   0.00000  Uiso   1.00
C800   C     0.85897   0.49915   0.65051   0.00000  Uiso   1.00
C801   C     0.92832   0.47301   0.51468   0.00000  Uiso   1.00
C802   C     0.87248   0.49526   0.59478   0.00000  Uiso   1.00
C803   C     0.74518   0.51973   0.93257   0.00000  Uiso   1.00
C804   C     0.72963   0.51841   0.98597   0.00000  Uiso   1.00
C805   C     0.76202   0.50847   0.51382   0.00000  Uiso   1.00
C806   C     0.82904   0.51052   0.93492   0.00000  Uiso   1.00
C807   C     0.84817   0.49991   0.51611   0.00000  Uiso   1.00
C808   C     0.89590   0.48750   0.98835   0.00000  Uiso   1.00
C809   C     0.91177   0.49488   0.93569   0.00000  Uiso   1.00
C810   C     0.87981   0.51213   0.91176   0.00000  Uiso   1.00
C811   C     0.83931   0.50809   0.56873   0.00000  Uiso   1.00
C812   C     0.91607   0.47622   0.56799   0.00000  Uiso   1.00
Cu813  Cu    0.78645   0.49999   0.75000   0.00000  Uiso   1.00
Cu814  Cu    0.88022   0.50001   0.75000   0.00000  Uiso   1.00
F815   F     0.74514   0.37339   0.76744   0.00000  Uiso   1.00
F816   F     0.72706   0.43906   0.70003   0.00000  Uiso   1.00
F817   F     0.95950   0.49157   0.90908   0.00000  Uiso   1.00
F818   F     0.97175   0.45608   0.98903   0.00000  Uiso   1.00
F819   F     0.80254   0.53370   0.59332   0.00000  Uiso   1.00
F820   F     0.71185   0.52749   0.90681   0.00000  Uiso   1.00
F821   F     0.74260   0.49766   0.56369   0.00000  Uiso   1.00
F822   F     0.68212   0.52507   0.51106   0.00000  Uiso   1.00
F823   F     0.89912   0.53720   0.87158   0.00000  Uiso   1.00
H824   H     0.94115   0.46491   0.58813   0.00000  Uiso   1.00
H825   H     0.91105   0.37100   0.73721   0.00000  Uiso   1.00
H826   H     0.75497   0.62853   0.76473   0.00000  Uiso   1.00
H827   H     0.94729   0.55784   0.78779   0.00000  Uiso   1.00
H828   H     0.69937   0.55634   0.79114   0.00000  Uiso   1.00
H829   H     0.96754   0.44443   0.70735   0.00000  Uiso   1.00
H830   H     0.91147   0.62977   0.73725   0.00000  Uiso   1.00
N831   N     0.71598   0.49999   0.74998   0.00000  Uiso   1.00
N832   N     0.95069   0.50002   0.74999   0.00000  Uiso   1.00
O833   O     0.79375   0.56011   0.75000   0.00000  Uiso   1.00
O834   O     0.87294   0.56012   0.75000   0.00000  Uiso   1.00
O835   O     0.77441   0.49998   0.82549   0.00000  Uiso   1.00
O836   O     0.85360   0.49999   0.82549   0.00000  Uiso   1.00
O837   O     0.79373   0.43988   0.74999   0.00000  Uiso   1.00
O838   O     0.87292   0.43989   0.74999   0.00000  Uiso   1.00
O839   O     0.81306   0.50001   0.67451   0.00000  Uiso   1.00
O840   O     0.89225   0.50002   0.67451   0.00000  Uiso   1.00
C841   C     0.16672   0.91259   0.75018   0.00000  Uiso   1.00
C842   C     0.12762   0.84578   0.90607   0.00000  Uiso   1.00
C843   C     0.21036   0.97890   0.74337   0.00000  Uiso   1.00
C844   C     0.14127   0.83774   0.84960   0.00000  Uiso   1.00
C845   C     0.21007   0.68812   0.74339   0.00000  Uiso   1.00
C846   C     0.16601   0.70933   0.75087   0.00000  Uiso   1.00
C847   C     0.12204   0.68740   0.75880   0.00000  Uiso   1.00
C848   C     0.12255   0.97822   0.75850   0.00000  Uiso   1.00
C849   C     0.16662   0.95715   0.75067   0.00000  Uiso   1.00
C850   C     0.30311   0.86510   0.77160   0.00000  Uiso   1.00
C851   C     0.01896   0.86463   0.77268   0.00000  Uiso   1.00
C852   C     0.14609   0.84000   0.98919   0.00000  Uiso   1.00
C853   C     0.03089   0.80264   0.72585   0.00000  Uiso   1.00
C854   C     0.31455   0.80242   0.72649   0.00000  Uiso   1.00
C855   C     0.16642   0.75402   0.75035   0.00000  Uiso   1.00
C856   C     0.19230   0.83249   0.65051   0.00000  Uiso   1.00
C857   C     0.26165   0.80634   0.51468   0.00000  Uiso   1.00
C858   C     0.20581   0.82859   0.59478   0.00000  Uiso   1.00
C859   C     0.07852   0.85306   0.93257   0.00000  Uiso   1.00
C860   C     0.06297   0.85175   0.98597   0.00000  Uiso   1.00
C861   C     0.09536   0.84180   0.51382   0.00000  Uiso   1.00
C862   C     0.16237   0.84385   0.93492   0.00000  Uiso   1.00
C863   C     0.18150   0.83324   0.51611   0.00000  Uiso   1.00
C864   C     0.22924   0.82083   0.98835   0.00000  Uiso   1.00
C865   C     0.24510   0.82822   0.93569   0.00000  Uiso   1.00
C866   C     0.21314   0.84546   0.91176   0.00000  Uiso   1.00
C867   C     0.17264   0.84143   0.56873   0.00000  Uiso   1.00
C868   C     0.24941   0.80955   0.56799   0.00000  Uiso   1.00
Cu869  Cu    0.11978   0.83333   0.75000   0.00000  Uiso   1.00
Cu870  Cu    0.21355   0.83334   0.75000   0.00000  Uiso   1.00
F871   F     0.07847   0.70672   0.76744   0.00000  Uiso   1.00
F872   F     0.06039   0.77240   0.70003   0.00000  Uiso   1.00
F873   F     0.29283   0.82491   0.90908   0.00000  Uiso   1.00
F874   F     0.30509   0.78941   0.98903   0.00000  Uiso   1.00
F875   F     0.13587   0.86704   0.59332   0.00000  Uiso   1.00
F876   F     0.04518   0.86082   0.90681   0.00000  Uiso   1.00
F877   F     0.07593   0.83099   0.56369   0.00000  Uiso   1.00
F878   F     0.01546   0.85840   0.51106   0.00000  Uiso   1.00
F879   F     0.23245   0.87054   0.87158   0.00000  Uiso   1.00
H880   H     0.27448   0.79824   0.58813   0.00000  Uiso   1.00
H881   H     0.24439   0.70434   0.73721   0.00000  Uiso   1.00
H882   H     0.08831   0.96186   0.76473   0.00000  Uiso   1.00
H883   H     0.28062   0.89117   0.78779   0.00000  Uiso   1.00
H884   H     0.03271   0.88968   0.79114   0.00000  Uiso   1.00
H885   H     0.30087   0.77776   0.70735   0.00000  Uiso   1.00
H886   H     0.24481   0.96310   0.73725   0.00000  Uiso   1.00
N887   N     0.04931   0.83332   0.74998   0.00000  Uiso   1.00
N888   N     0.28402   0.83335   0.74999   0.00000  Uiso   1.00
O889   O     0.12708   0.89345   0.75000   0.00000  Uiso   1.00
O890   O     0.20627   0.89346   0.75000   0.00000  Uiso   1.00
O891   O     0.10775   0.83332   0.82549   0.00000  Uiso   1.00
O892   O     0.18694   0.83333   0.82549   0.00000  Uiso   1.00
O893   O     0.12706   0.77321   0.74999   0.00000  Uiso   1.00
O894   O     0.20625   0.77322   0.74999   0.00000  Uiso   1.00
O895   O     0.14640   0.83334   0.67451   0.00000  Uiso   1.00
O896   O     0.22559   0.83335   0.67451   0.00000  Uiso   1.00
C897   C     0.50005   0.91259   0.75018   0.00000  Uiso   1.00
C898   C     0.46096   0.84578   0.90607   0.00000  Uiso   1.00
C899   C     0.54370   0.97890   0.74337   0.00000  Uiso   1.00
C900   C     0.47460   0.83774   0.84960   0.00000  Uiso   1.00
C901   C     0.54340   0.68812   0.74339   0.00000  Uiso   1.00
C902   C     0.49934   0.70933   0.75087   0.00000  Uiso   1.00
C903   C     0.45537   0.68740   0.75880   0.00000  Uiso   1.00
C904   C     0.45588   0.97822   0.75850   0.00000  Uiso   1.00
C905   C     0.49995   0.95715   0.75067   0.00000  Uiso   1.00
C906   C     0.63644   0.86510   0.77160   0.00000  Uiso   1.00
C907   C     0.35229   0.86463   0.77268   0.00000  Uiso   1.00
C908   C     0.47942   0.84000   0.98919   0.00000  Uiso   1.00
C909   C     0.36422   0.80264   0.72585   0.00000  Uiso   1.00
C910   C     0.64788   0.80242   0.72649   0.00000  Uiso   1.00
C911   C     0.49975   0.75402   0.75035   0.00000  Uiso   1.00
C912   C     0.52563   0.83249   0.65051   0.00000  Uiso   1.00
C913   C     0.59498   0.80634   0.51468   0.00000  Uiso   1.00
C914   C     0.53915   0.82859   0.59478   0.00000  Uiso   1.00
C915   C     0.41185   0.85306   0.93257   0.00000  Uiso   1.00
C916   C     0.39630   0.85175   0.98597   0.00000  Uiso   1.00
C917   C     0.42869   0.84180   0.51382   0.00000  Uiso   1.00
C918   C     0.49570   0.84385   0.93492   0.00000  Uiso   1.00
C919   C     0.51483   0.83324   0.51611   0.00000  Uiso   1.00
C920   C     0.56257   0.82083   0.98835   0.00000  Uiso   1.00
C921   C     0.57843   0.82822   0.93569   0.00000  Uiso   1.00
C922   C     0.54647   0.84546   0.91176   0.00000  Uiso   1.00
C923   C     0.50597   0.84143   0.56873   0.00000  Uiso   1.00
C924   C     0.58274   0.80955   0.56799   0.00000  Uiso   1.00
Cu925  Cu    0.45311   0.83333   0.75000   0.00000  Uiso   1.00
Cu926  Cu    0.54689   0.83334   0.75000   0.00000  Uiso   1.00
F927   F     0.41180   0.70672   0.76744   0.00000  Uiso   1.00
F928   F     0.39373   0.77240   0.70003   0.00000  Uiso   1.00
F929   F     0.62616   0.82491   0.90908   0.00000  Uiso   1.00
F930   F     0.63842   0.78941   0.98903   0.00000  Uiso   1.00
F931   F     0.46920   0.86704   0.59332   0.00000  Uiso   1.00
F932   F     0.37852   0.86082   0.90681   0.00000  Uiso   1.00
F933   F     0.40926   0.83099   0.56369   0.00000  Uiso   1.00
F934   F     0.34879   0.85840   0.51106   0.00000  Uiso   1.00
F935   F     0.56579   0.87054   0.87158   0.00000  Uiso   1.00
H936   H     0.60781   0.79824   0.58813   0.00000  Uiso   1.00
H937   H     0.57772   0.70434   0.73721   0.00000  Uiso   1.00
H938   H     0.42164   0.96186   0.76473   0.00000  Uiso   1.00
H939   H     0.61396   0.89117   0.78779   0.00000  Uiso   1.00
H940   H     0.36604   0.88968   0.79114   0.00000  Uiso   1.00
H941   H     0.63420   0.77776   0.70735   0.00000  Uiso   1.00
H942   H     0.57814   0.96310   0.73725   0.00000  Uiso   1.00
N943   N     0.38265   0.83332   0.74998   0.00000  Uiso   1.00
N944   N     0.61735   0.83335   0.74999   0.00000  Uiso   1.00
O945   O     0.46042   0.89345   0.75000   0.00000  Uiso   1.00
O946   O     0.53961   0.89346   0.75000   0.00000  Uiso   1.00
O947   O     0.44108   0.83332   0.82549   0.00000  Uiso   1.00
O948   O     0.52027   0.83333   0.82549   0.00000  Uiso   1.00
O949   O     0.46039   0.77321   0.74999   0.00000  Uiso   1.00
O950   O     0.53958   0.77322   0.74999   0.00000  Uiso   1.00
O951   O     0.47973   0.83334   0.67451   0.00000  Uiso   1.00
O952   O     0.55892   0.83335   0.67451   0.00000  Uiso   1.00
C953   C     0.83338   0.91259   0.75018   0.00000  Uiso   1.00
C954   C     0.79429   0.84578   0.90607   0.00000  Uiso   1.00
C955   C     0.87703   0.97890   0.74337   0.00000  Uiso   1.00
C956   C     0.80794   0.83774   0.84960   0.00000  Uiso   1.00
C957   C     0.87673   0.68812   0.74339   0.00000  Uiso   1.00
C958   C     0.83268   0.70933   0.75087   0.00000  Uiso   1.00
C959   C     0.78870   0.68740   0.75880   0.00000  Uiso   1.00
C960   C     0.78921   0.97822   0.75850   0.00000  Uiso   1.00
C961   C     0.83329   0.95715   0.75067   0.00000  Uiso   1.00
C962   C     0.96977   0.86510   0.77160   0.00000  Uiso   1.00
C963   C     0.68562   0.86463   0.77268   0.00000  Uiso   1.00
C964   C     0.81275   0.84000   0.98919   0.00000  Uiso   1.00
C965   C     0.69755   0.80264   0.72585   0.00000  Uiso   1.00
C966   C     0.98122   0.80242   0.72649   0.00000  Uiso   1.00
C967   C     0.83308   0.75402   0.75035   0.00000  Uiso   1.00
C968   C     0.85897   0.83249   0.65051   0.00000  Uiso   1.00
C969   C     0.92832   0.80634   0.51468   0.00000  Uiso   1.00
C970   C     0.87248   0.82859   0.59478   0.00000  Uiso   1.00
C971   C     0.74518   0.85306   0.93257   0.00000  Uiso   1.00
C972   C     0.72963   0.85175   0.98597   0.00000  Uiso   1.00
C973   C     0.76202   0.84180   0.51382   0.00000  Uiso   1.00
C974   C     0.82904   0.84385   0.93492   0.00000  Uiso   1.00
C975   C     0.84817   0.83324   0.51611   0.00000  Uiso   1.00
C976   C     0.89590   0.82083   0.98835   0.00000  Uiso   1.00
C977   C     0.91177   0.82822   0.93569   0.00000  Uiso   1.00
C978   C     0.87981   0.84546   0.91176   0.00000  Uiso   1.00
C979   C     0.83931   0.84143   0.56873   0.00000  Uiso   1.00
C980   C     0.91607   0.80955   0.56799   0.00000  Uiso   1.00
Cu981  Cu    0.78645   0.83333   0.75000   0.00000  Uiso   1.00
Cu982  Cu    0.88022   0.83334   0.75000   0.00000  Uiso   1.00
F983   F     0.74514   0.70672   0.76744   0.00000  Uiso   1.00
F984   F     0.72706   0.77240   0.70003   0.00000  Uiso   1.00
F985   F     0.95950   0.82491   0.90908   0.00000  Uiso   1.00
F986   F     0.97175   0.78941   0.98903   0.00000  Uiso   1.00
F987   F     0.80254   0.86704   0.59332   0.00000  Uiso   1.00
F988   F     0.71185   0.86082   0.90681   0.00000  Uiso   1.00
F989   F     0.74260   0.83099   0.56369   0.00000  Uiso   1.00
F990   F     0.68212   0.85840   0.51106   0.00000  Uiso   1.00
F991   F     0.89912   0.87054   0.87158   0.00000  Uiso   1.00
H992   H     0.94115   0.79824   0.58813   0.00000  Uiso   1.00
H993   H     0.91105   0.70434   0.73721   0.00000  Uiso   1.00
H994   H     0.75497   0.96186   0.76473   0.00000  Uiso   1.00
H995   H     0.94729   0.89117   0.78779   0.00000  Uiso   1.00
H996   H     0.69937   0.88968   0.79114   0.00000  Uiso   1.00
H997   H     0.96754   0.77776   0.70735   0.00000  Uiso   1.00
H998   H     0.91147   0.96310   0.73725   0.00000  Uiso   1.00
N999   N     0.71598   0.83332   0.74998   0.00000  Uiso   1.00
N1000  N     0.95069   0.83335   0.74999   0.00000  Uiso   1.00
O1001  O     0.79375   0.89345   0.75000   0.00000  Uiso   1.00
O1002  O     0.87294   0.89346   0.75000   0.00000  Uiso   1.00
O1003  O     0.77441   0.83332   0.82549   0.00000  Uiso   1.00
O1004  O     0.85360   0.83333   0.82549   0.00000  Uiso   1.00
O1005  O     0.79373   0.77321   0.74999   0.00000  Uiso   1.00
O1006  O     0.87292   0.77322   0.74999   0.00000  Uiso   1.00
O1007  O     0.81306   0.83334   0.67451   0.00000  Uiso   1.00
O1008  O     0.89225   0.83335   0.67451   0.00000  Uiso   1.00
loop_
_geom_bond_atom_site_label_1
_geom_bond_atom_site_label_2
_geom_bond_distance
_geom_bond_site_symmetry_2
_ccdc_geom_bond_type
C1     O50     1.293   .     A
C1     C9      1.449   .     S
C1     O49     1.292   .     A
C2     C22     1.429   .     A
C2     C4      1.490   .     S
C2     C19     1.406   .     A
C3     H46     1.083   .     S
C3     C9      1.400   .     A
C3     C173    1.384   .     S
C4     O52     1.294   .     A
C4     O51     1.310   .     A
C5     C6      1.403   .     A
C5     H41     1.083   .     S
C5     C339    1.384   1_545 S
C6     C7      1.406   .     A
C6     C15     1.453   .     S
C7     F31     1.358   .     S
C7     C344    1.383   1_545 S
C8     H42     1.083   .     S
C8     C9      1.400   .     A
C8     C175    1.383   .     S
C10    N48     1.368   .     A
C10    H43     1.080   .     S
C10    C67     1.416   .     S
C11    N47     1.366   .     A
C11    H44     1.081   .     S
C11    C122    1.416   1_455 S
C12    C22     1.418   .     A
C12    C525    1.417   .     S
C12    C527    1.424   .     S
C13    F32     1.354   .     S
C13    N47     1.371   .     A
C13    C126    1.416   1_455 S
C14    H45     1.081   .     S
C14    N48     1.366   .     A
C14    C69     1.416   .     S
C15    O53     1.292   .     A
C15    O54     1.294   .     A
C16    O56     1.296   .     A
C16    O55     1.291   .     A
C16    C18     1.454   .     S
C17    C28     1.390   .     A
C17    C528    1.405   1_554 S
C17    F538    1.358   1_554 S
C18    C27     1.400   .     A
C18    C28     1.398   .     A
C19    C20     1.390   .     A
C19    F36     1.356   .     S
C20    C525    1.390   .     S
C20    F542    1.355   .     S
C21    F37     1.357   .     S
C21    C524    1.390   1_554 S
C21    C516    1.417   1_554 S
C22    C26     1.411   .     A
C23    C27     1.399   .     A
C23    C516    1.424   1_554 S
C23    C528    1.420   1_554 S
C24    C25     1.392   .     A
C24    C521    1.405   .     S
C24    C527    1.420   .     S
C25    C26     1.384   .     A
C25    F33     1.357   .     S
C26    F39     1.351   .     S
C27    F35     1.360   .     S
C28    H40     1.083   .     S
Cu29   O49     1.965   .     S
Cu29   Cu30    2.682   .     S
Cu29   O53     1.967   .     S
Cu29   N47     2.016   .     S
Cu29   O51     1.976   .     S
Cu29   O55     1.971   .     S
Cu30   O54     1.965   .     S
Cu30   N48     2.016   .     S
Cu30   O50     1.967   .     S
Cu30   O52     1.971   .     S
Cu30   O56     1.976   .     S
F34    C521    1.358   .     S
F38    C524    1.355   1_554 S
C57    O106    1.293   .     A
C57    C65     1.449   .     S
C57    O105    1.292   .     A
C58    C78     1.429   .     A
C58    C60     1.490   .     S
C58    C75     1.406   .     A
C59    H102    1.083   .     S
C59    C65     1.400   .     A
C59    C229    1.384   .     S
C60    O108    1.294   .     A
C60    O107    1.310   .     A
C61    C62     1.403   .     A
C61    H97     1.083   .     S
C61    C395    1.384   1_545 S
C62    C63     1.406   .     A
C62    C71     1.453   .     S
C63    F87     1.358   .     S
C63    C400    1.383   1_545 S
C64    H98     1.083   .     S
C64    C65     1.400   .     A
C64    C231    1.383   .     S
C66    N104    1.368   .     A
C66    H99     1.080   .     S
C66    C123    1.416   .     S
C67    N103    1.366   .     A
C67    H100    1.081   .     S
C68    C78     1.418   .     A
C68    C581    1.417   .     S
C68    C583    1.424   .     S
C69    F88     1.354   .     S
C69    N103    1.371   .     A
C70    H101    1.081   .     S
C70    N104    1.366   .     A
C70    C125    1.416   .     S
C71    O109    1.292   .     A
C71    O110    1.294   .     A
C72    O112    1.296   .     A
C72    O111    1.291   .     A
C72    C74     1.454   .     S
C73    C84     1.390   .     A
C73    C584    1.405   1_554 S
C73    F594    1.358   1_554 S
C74    C83     1.400   .     A
C74    C84     1.398   .     A
C75    C76     1.390   .     A
C75    F92     1.356   .     S
C76    C581    1.390   .     S
C76    F598    1.355   .     S
C77    F93     1.357   .     S
C77    C580    1.390   1_554 S
C77    C572    1.417   1_554 S
C78    C82     1.411   .     A
C79    C83     1.399   .     A
C79    C572    1.424   1_554 S
C79    C584    1.420   1_554 S
C80    C81     1.392   .     A
C80    C577    1.405   .     S
C80    C583    1.420   .     S
C81    C82     1.384   .     A
C81    F89     1.357   .     S
C82    F95     1.351   .     S
C83    F91     1.360   .     S
C84    H96     1.083   .     S
Cu85   O105    1.965   .     S
Cu85   Cu86    2.682   .     S
Cu85   O109    1.967   .     S
Cu85   N103    2.016   .     S
Cu85   O107    1.976   .     S
Cu85   O111    1.971   .     S
Cu86   O110    1.965   .     S
Cu86   N104    2.016   .     S
Cu86   O106    1.967   .     S
Cu86   O108    1.971   .     S
Cu86   O112    1.976   .     S
F90    C577    1.358   .     S
F94    C580    1.355   1_554 S
C113   O162    1.293   .     A
C113   C121    1.449   .     S
C113   O161    1.292   .     A
C114   C134    1.429   .     A
C114   C116    1.490   .     S
C114   C131    1.406   .     A
C115   H158    1.083   .     S
C115   C121    1.400   .     A
C115   C285    1.384   .     S
C116   O164    1.294   .     A
C116   O163    1.310   .     A
C117   C118    1.403   .     A
C117   H153    1.083   .     S
C117   C451    1.384   1_545 S
C118   C119    1.406   .     A
C118   C127    1.453   .     S
C119   F143    1.358   .     S
C119   C456    1.383   1_545 S
C120   H154    1.083   .     S
C120   C121    1.400   .     A
C120   C287    1.383   .     S
C122   N160    1.368   .     A
C122   H155    1.080   .     S
C122   C11     1.416   1_655 S
C123   N159    1.366   .     A
C123   H156    1.081   .     S
C124   C134    1.418   .     A
C124   C637    1.417   .     S
C124   C639    1.424   .     S
C125   F144    1.354   .     S
C125   N159    1.371   .     A
C126   H157    1.081   .     S
C126   N160    1.366   .     A
C126   C13     1.416   1_655 S
C127   O165    1.292   .     A
C127   O166    1.294   .     A
C128   O168    1.296   .     A
C128   O167    1.291   .     A
C128   C130    1.454   .     S
C129   C140    1.390   .     A
C129   C640    1.405   1_554 S
C129   F650    1.358   1_554 S
C130   C139    1.400   .     A
C130   C140    1.398   .     A
C131   C132    1.390   .     A
C131   F148    1.356   .     S
C132   C637    1.390   .     S
C132   F654    1.355   .     S
C133   F149    1.357   .     S
C133   C636    1.390   1_554 S
C133   C628    1.417   1_554 S
C134   C138    1.411   .     A
C135   C139    1.399   .     A
C135   C628    1.424   1_554 S
C135   C640    1.420   1_554 S
C136   C137    1.392   .     A
C136   C633    1.405   .     S
C136   C639    1.420   .     S
C137   C138    1.384   .     A
C137   F145    1.357   .     S
C138   F151    1.351   .     S
C139   F147    1.360   .     S
C140   H152    1.083   .     S
Cu141  O161    1.965   .     S
Cu141  Cu142   2.682   .     S
Cu141  O165    1.967   .     S
Cu141  N159    2.016   .     S
Cu141  O163    1.976   .     S
Cu141  O167    1.971   .     S
Cu142  O166    1.965   .     S
Cu142  N160    2.016   .     S
Cu142  O162    1.967   .     S
Cu142  O164    1.971   .     S
Cu142  O168    1.976   .     S
F146   C633    1.358   .     S
F150   C636    1.355   1_554 S
C169   O218    1.293   .     A
C169   C177    1.449   .     S
C169   O217    1.292   .     A
C170   C190    1.429   .     A
C170   C172    1.490   .     S
C170   C187    1.406   .     A
C171   H214    1.083   .     S
C171   C177    1.400   .     A
C171   C341    1.384   .     S
C172   O220    1.294   .     A
C172   O219    1.310   .     A
C173   C174    1.403   .     A
C173   H209    1.083   .     S
C174   C175    1.406   .     A
C174   C183    1.453   .     S
C175   F199    1.358   .     S
C176   H210    1.083   .     S
C176   C177    1.400   .     A
C176   C343    1.383   .     S
C178   N216    1.368   .     A
C178   H211    1.080   .     S
C178   C235    1.416   .     S
C179   N215    1.366   .     A
C179   H212    1.081   .     S
C179   C290    1.416   1_455 S
C180   C190    1.418   .     A
C180   C693    1.417   .     S
C180   C695    1.424   .     S
C181   F200    1.354   .     S
C181   N215    1.371   .     A
C181   C294    1.416   1_455 S
C182   H213    1.081   .     S
C182   N216    1.366   .     A
C182   C237    1.416   .     S
C183   O221    1.292   .     A
C183   O222    1.294   .     A
C184   O224    1.296   .     A
C184   O223    1.291   .     A
C184   C186    1.454   .     S
C185   C196    1.390   .     A
C185   C696    1.405   1_554 S
C185   F706    1.358   1_554 S
C186   C195    1.400   .     A
C186   C196    1.398   .     A
C187   C188    1.390   .     A
C187   F204    1.356   .     S
C188   C693    1.390   .     S
C188   F710    1.355   .     S
C189   F205    1.357   .     S
C189   C692    1.390   1_554 S
C189   C684    1.417   1_554 S
C190   C194    1.411   .     A
C191   C195    1.399   .     A
C191   C684    1.424   1_554 S
C191   C696    1.420   1_554 S
C192   C193    1.392   .     A
C192   C689    1.405   .     S
C192   C695    1.420   .     S
C193   C194    1.384   .     A
C193   F201    1.357   .     S
C194   F207    1.351   .     S
C195   F203    1.360   .     S
C196   H208    1.083   .     S
Cu197  O217    1.965   .     S
Cu197  Cu198   2.682   .     S
Cu197  O221    1.967   .     S
Cu197  N215    2.016   .     S
Cu197  O219    1.976   .     S
Cu197  O223    1.971   .     S
Cu198  O222    1.965   .     S
Cu198  N216    2.016   .     S
Cu198  O218    1.967   .     S
Cu198  O220    1.971   .     S
Cu198  O224    1.976   .     S
F202   C689    1.358   .     S
F206   C692    1.355   1_554 S
C225   O274    1.293   .     A
C225   C233    1.449   .     S
C225   O273    1.292   .     A
C226   C246    1.429   .     A
C226   C228    1.490   .     S
C226   C243    1.406   .     A
C227   H270    1.083   .     S
C227   C233    1.400   .     A
C227   C397    1.384   .     S
C228   O276    1.294   .     A
C228   O275    1.310   .     A
C229   C230    1.403   .     A
C229   H265    1.083   .     S
C230   C231    1.406   .     A
C230   C239    1.453   .     S
C231   F255    1.358   .     S
C232   H266    1.083   .     S
C232   C233    1.400   .     A
C232   C399    1.383   .     S
C234   N272    1.368   .     A
C234   H267    1.080   .     S
C234   C291    1.416   .     S
C235   N271    1.366   .     A
C235   H268    1.081   .     S
C236   C246    1.418   .     A
C236   C749    1.417   .     S
C236   C751    1.424   .     S
C237   F256    1.354   .     S
C237   N271    1.371   .     A
C238   H269    1.081   .     S
C238   N272    1.366   .     A
C238   C293    1.416   .     S
C239   O277    1.292   .     A
C239   O278    1.294   .     A
C240   O280    1.296   .     A
C240   O279    1.291   .     A
C240   C242    1.454   .     S
C241   C252    1.390   .     A
C241   C752    1.405   1_554 S
C241   F762    1.358   1_554 S
C242   C251    1.400   .     A
C242   C252    1.398   .     A
C243   C244    1.390   .     A
C243   F260    1.356   .     S
C244   C749    1.390   .     S
C244   F766    1.355   .     S
C245   F261    1.357   .     S
C245   C748    1.390   1_554 S
C245   C740    1.417   1_554 S
C246   C250    1.411   .     A
C247   C251    1.399   .     A
C247   C740    1.424   1_554 S
C247   C752    1.420   1_554 S
C248   C249    1.392   .     A
C248   C745    1.405   .     S
C248   C751    1.420   .     S
C249   C250    1.384   .     A
C249   F257    1.357   .     S
C250   F263    1.351   .     S
C251   F259    1.360   .     S
C252   H264    1.083   .     S
Cu253  O273    1.965   .     S
Cu253  Cu254   2.682   .     S
Cu253  O277    1.967   .     S
Cu253  N271    2.016   .     S
Cu253  O275    1.976   .     S
Cu253  O279    1.971   .     S
Cu254  O278    1.965   .     S
Cu254  N272    2.016   .     S
Cu254  O274    1.967   .     S
Cu254  O276    1.971   .     S
Cu254  O280    1.976   .     S
F258   C745    1.358   .     S
F262   C748    1.355   1_554 S
C281   O330    1.293   .     A
C281   C289    1.449   .     S
C281   O329    1.292   .     A
C282   C302    1.429   .     A
C282   C284    1.490   .     S
C282   C299    1.406   .     A
C283   H326    1.083   .     S
C283   C289    1.400   .     A
C283   C453    1.384   .     S
C284   O332    1.294   .     A
C284   O331    1.310   .     A
C285   C286    1.403   .     A
C285   H321    1.083   .     S
C286   C287    1.406   .     A
C286   C295    1.453   .     S
C287   F311    1.358   .     S
C288   H322    1.083   .     S
C288   C289    1.400   .     A
C288   C455    1.383   .     S
C290   N328    1.368   .     A
C290   H323    1.080   .     S
C290   C179    1.416   1_655 S
C291   N327    1.366   .     A
C291   H324    1.081   .     S
C292   C302    1.418   .     A
C292   C805    1.417   .     S
C292   C807    1.424   .     S
C293   F312    1.354   .     S
C293   N327    1.371   .     A
C294   H325    1.081   .     S
C294   N328    1.366   .     A
C294   C181    1.416   1_655 S
C295   O333    1.292   .     A
C295   O334    1.294   .     A
C296   O336    1.296   .     A
C296   O335    1.291   .     A
C296   C298    1.454   .     S
C297   C308    1.390   .     A
C297   C808    1.405   1_554 S
C297   F818    1.358   1_554 S
C298   C307    1.400   .     A
C298   C308    1.398   .     A
C299   C300    1.390   .     A
C299   F316    1.356   .     S
C300   C805    1.390   .     S
C300   F822    1.355   .     S
C301   F317    1.357   .     S
C301   C804    1.390   1_554 S
C301   C796    1.417   1_554 S
C302   C306    1.411   .     A
C303   C307    1.399   .     A
C303   C796    1.424   1_554 S
C303   C808    1.420   1_554 S
C304   C305    1.392   .     A
C304   C801    1.405   .     S
C304   C807    1.420   .     S
C305   C306    1.384   .     A
C305   F313    1.357   .     S
C306   F319    1.351   .     S
C307   F315    1.360   .     S
C308   H320    1.083   .     S
Cu309  O329    1.965   .     S
Cu309  Cu310   2.682   .     S
Cu309  O333    1.967   .     S
Cu309  N327    2.016   .     S
Cu309  O331    1.976   .     S
Cu309  O335    1.971   .     S
Cu310  O334    1.965   .     S
Cu310  N328    2.016   .     S
Cu310  O330    1.967   .     S
Cu310  O332    1.971   .     S
Cu310  O336    1.976   .     S
F314   C801    1.358   .     S
F318   C804    1.355   1_554 S
C337   O386    1.293   .     A
C337   C345    1.449   .     S
C337   O385    1.292   .     A
C338   C358    1.429   .     A
C338   C340    1.490   .     S
C338   C355    1.406   .     A
C339   H382    1.083   .     S
C339   C345    1.400   .     A
C339   C5      1.384   1_565 S
C340   O388    1.294   .     A
C340   O387    1.310   .     A
C341   C342    1.403   .     A
C341   H377    1.083   .     S
C342   C343    1.406   .     A
C342   C351    1.453   .     S
C343   F367    1.358   .     S
C344   H378    1.083   .     S
C344   C345    1.400   .     A
C344   C7      1.383   1_565 S
C346   N384    1.368   .     A
C346   H379    1.080   .     S
C346   C403    1.416   .     S
C347   N383    1.366   .     A
C347   H380    1.081   .     S
C347   C458    1.416   1_455 S
C348   C358    1.418   .     A
C348   C861    1.417   .     S
C348   C863    1.424   .     S
C349   F368    1.354   .     S
C349   N383    1.371   .     A
C349   C462    1.416   1_455 S
C350   H381    1.081   .     S
C350   N384    1.366   .     A
C350   C405    1.416   .     S
C351   O389    1.292   .     A
C351   O390    1.294   .     A
C352   O392    1.296   .     A
C352   O391    1.291   .     A
C352   C354    1.454   .     S
C353   C364    1.390   .     A
C353   C864    1.405   1_554 S
C353   F874    1.358   1_554 S
C354   C363    1.400   .     A
C354   C364    1.398   .     A
C355   C356    1.390   .     A
C355   F372    1.356   .     S
C356   C861    1.390   .     S
C356   F878    1.355   .     S
C357   F373    1.357   .     S
C357   C860    1.390   1_554 S
C357   C852    1.417   1_554 S
C358   C362    1.411   .     A
C359   C363    1.399   .     A
C359   C852    1.424   1_554 S
C359   C864    1.420   1_554 S
C360   C361    1.392   .     A
C360   C857    1.405   .     S
C360   C863    1.420   .     S
C361   C362    1.384   .     A
C361   F369    1.357   .     S
C362   F375    1.351   .     S
C363   F371    1.360   .     S
C364   H376    1.083   .     S
Cu365  O385    1.965   .     S
Cu365  Cu366   2.682   .     S
Cu365  O389    1.967   .     S
Cu365  N383    2.016   .     S
Cu365  O387    1.976   .     S
Cu365  O391    1.971   .     S
Cu366  O390    1.965   .     S
Cu366  N384    2.016   .     S
Cu366  O386    1.967   .     S
Cu366  O388    1.971   .     S
Cu366  O392    1.976   .     S
F370   C857    1.358   .     S
F374   C860    1.355   1_554 S
C393   O442    1.293   .     A
C393   C401    1.449   .     S
C393   O441    1.292   .     A
C394   C414    1.429   .     A
C394   C396    1.490   .     S
C394   C411    1.406   .     A
C395   H438    1.083   .     S
C395   C401    1.400   .     A
C395   C61     1.384   1_565 S
C396   O444    1.294   .     A
C396   O443    1.310   .     A
C397   C398    1.403   .     A
C397   H433    1.083   .     S
C398   C399    1.406   .     A
C398   C407    1.453   .     S
C399   F423    1.358   .     S
C400   H434    1.083   .     S
C400   C401    1.400   .     A
C400   C63     1.383   1_565 S
C402   N440    1.368   .     A
C402   H435    1.080   .     S
C402   C459    1.416   .     S
C403   N439    1.366   .     A
C403   H436    1.081   .     S
C404   C414    1.418   .     A
C404   C917    1.417   .     S
C404   C919    1.424   .     S
C405   F424    1.354   .     S
C405   N439    1.371   .     A
C406   H437    1.081   .     S
C406   N440    1.366   .     A
C406   C461    1.416   .     S
C407   O445    1.292   .     A
C407   O446    1.294   .     A
C408   O448    1.296   .     A
C408   O447    1.291   .     A
C408   C410    1.454   .     S
C409   C420    1.390   .     A
C409   C920    1.405   1_554 S
C409   F930    1.358   1_554 S
C410   C419    1.400   .     A
C410   C420    1.398   .     A
C411   C412    1.390   .     A
C411   F428    1.356   .     S
C412   C917    1.390   .     S
C412   F934    1.355   .     S
C413   F429    1.357   .     S
C413   C916    1.390   1_554 S
C413   C908    1.417   1_554 S
C414   C418    1.411   .     A
C415   C419    1.399   .     A
C415   C908    1.424   1_554 S
C415   C920    1.420   1_554 S
C416   C417    1.392   .     A
C416   C913    1.405   .     S
C416   C919    1.420   .     S
C417   C418    1.384   .     A
C417   F425    1.357   .     S
C418   F431    1.351   .     S
C419   F427    1.360   .     S
C420   H432    1.083   .     S
Cu421  O441    1.965   .     S
Cu421  Cu422   2.682   .     S
Cu421  O445    1.967   .     S
Cu421  N439    2.016   .     S
Cu421  O443    1.976   .     S
Cu421  O447    1.971   .     S
Cu422  O446    1.965   .     S
Cu422  N440    2.016   .     S
Cu422  O442    1.967   .     S
Cu422  O444    1.971   .     S
Cu422  O448    1.976   .     S
F426   C913    1.358   .     S
F430   C916    1.355   1_554 S
C449   O498    1.293   .     A
C449   C457    1.449   .     S
C449   O497    1.292   .     A
C450   C470    1.429   .     A
C450   C452    1.490   .     S
C450   C467    1.406   .     A
C451   H494    1.083   .     S
C451   C457    1.400   .     A
C451   C117    1.384   1_565 S
C452   O500    1.294   .     A
C452   O499    1.310   .     A
C453   C454    1.403   .     A
C453   H489    1.083   .     S
C454   C455    1.406   .     A
C454   C463    1.453   .     S
C455   F479    1.358   .     S
C456   H490    1.083   .     S
C456   C457    1.400   .     A
C456   C119    1.383   1_565 S
C458   N496    1.368   .     A
C458   H491    1.080   .     S
C458   C347    1.416   1_655 S
C459   N495    1.366   .     A
C459   H492    1.081   .     S
C460   C470    1.418   .     A
C460   C973    1.417   .     S
C460   C975    1.424   .     S
C461   F480    1.354   .     S
C461   N495    1.371   .     A
C462   H493    1.081   .     S
C462   N496    1.366   .     A
C462   C349    1.416   1_655 S
C463   O501    1.292   .     A
C463   O502    1.294   .     A
C464   O504    1.296   .     A
C464   O503    1.291   .     A
C464   C466    1.454   .     S
C465   C476    1.390   .     A
C465   C976    1.405   1_554 S
C465   F986    1.358   1_554 S
C466   C475    1.400   .     A
C466   C476    1.398   .     A
C467   C468    1.390   .     A
C467   F484    1.356   .     S
C468   C973    1.390   .     S
C468   F990    1.355   .     S
C469   F485    1.357   .     S
C469   C972    1.390   1_554 S
C469   C964    1.417   1_554 S
C470   C474    1.411   .     A
C471   C475    1.399   .     A
C471   C964    1.424   1_554 S
C471   C976    1.420   1_554 S
C472   C473    1.392   .     A
C472   C969    1.405   .     S
C472   C975    1.420   .     S
C473   C474    1.384   .     A
C473   F481    1.357   .     S
C474   F487    1.351   .     S
C475   F483    1.360   .     S
C476   H488    1.083   .     S
Cu477  O497    1.965   .     S
Cu477  Cu478   2.682   .     S
Cu477  O501    1.967   .     S
Cu477  N495    2.016   .     S
Cu477  O499    1.976   .     S
Cu477  O503    1.971   .     S
Cu478  O502    1.965   .     S
Cu478  N496    2.016   .     S
Cu478  O498    1.967   .     S
Cu478  O500    1.971   .     S
Cu478  O504    1.976   .     S
F482   C969    1.358   .     S
F486   C972    1.355   1_554 S
C505   O554    1.293   .     A
C505   C513    1.449   .     S
C505   O553    1.292   .     A
C506   C526    1.429   .     A
C506   C508    1.490   .     S
C506   C523    1.406   .     A
C507   H550    1.083   .     S
C507   C513    1.400   .     A
C507   C677    1.384   .     S
C508   O556    1.294   .     A
C508   O555    1.310   .     A
C509   C510    1.403   .     A
C509   H545    1.083   .     S
C509   C843    1.384   1_545 S
C510   C511    1.406   .     A
C510   C519    1.453   .     S
C511   F535    1.358   .     S
C511   C848    1.383   1_545 S
C512   H546    1.083   .     S
C512   C513    1.400   .     A
C512   C679    1.383   .     S
C514   N552    1.368   .     A
C514   H547    1.080   .     S
C514   C571    1.416   .     S
C515   N551    1.366   .     A
C515   H548    1.081   .     S
C515   C626    1.416   1_455 S
C516   C526    1.418   .     A
C516   C21     1.417   1_556 S
C516   C23     1.424   1_556 S
C517   F536    1.354   .     S
C517   N551    1.371   .     A
C517   C630    1.416   1_455 S
C518   H549    1.081   .     S
C518   N552    1.366   .     A
C518   C573    1.416   .     S
C519   O557    1.292   .     A
C519   O558    1.294   .     A
C520   O560    1.296   .     A
C520   O559    1.291   .     A
C520   C522    1.454   .     S
C521   C532    1.390   .     A
C522   C531    1.400   .     A
C522   C532    1.398   .     A
C523   C524    1.390   .     A
C523   F540    1.356   .     S
C524   C21     1.390   1_556 S
C524   F38     1.355   1_556 S
C525   F541    1.357   .     S
C526   C530    1.411   .     A
C527   C531    1.399   .     A
C528   C529    1.392   .     A
C528   C17     1.405   1_556 S
C528   C23     1.420   1_556 S
C529   C530    1.384   .     A
C529   F537    1.357   .     S
C530   F543    1.351   .     S
C531   F539    1.360   .     S
C532   H544    1.083   .     S
Cu533  O553    1.965   .     S
Cu533  Cu534   2.682   .     S
Cu533  O557    1.967   .     S
Cu533  N551    2.016   .     S
Cu533  O555    1.976   .     S
Cu533  O559    1.971   .     S
Cu534  O558    1.965   .     S
Cu534  N552    2.016   .     S
Cu534  O554    1.967   .     S
Cu534  O556    1.971   .     S
Cu534  O560    1.976   .     S
F538   C17     1.358   1_556 S
C561   O610    1.293   .     A
C561   C569    1.449   .     S
C561   O609    1.292   .     A
C562   C582    1.429   .     A
C562   C564    1.490   .     S
C562   C579    1.406   .     A
C563   H606    1.083   .     S
C563   C569    1.400   .     A
C563   C733    1.384   .     S
C564   O612    1.294   .     A
C564   O611    1.310   .     A
C565   C566    1.403   .     A
C565   H601    1.083   .     S
C565   C899    1.384   1_545 S
C566   C567    1.406   .     A
C566   C575    1.453   .     S
C567   F591    1.358   .     S
C567   C904    1.383   1_545 S
C568   H602    1.083   .     S
C568   C569    1.400   .     A
C568   C735    1.383   .     S
C570   N608    1.368   .     A
C570   H603    1.080   .     S
C570   C627    1.416   .     S
C571   N607    1.366   .     A
C571   H604    1.081   .     S
C572   C582    1.418   .     A
C572   C77     1.417   1_556 S
C572   C79     1.424   1_556 S
C573   F592    1.354   .     S
C573   N607    1.371   .     A
C574   H605    1.081   .     S
C574   N608    1.366   .     A
C574   C629    1.416   .     S
C575   O613    1.292   .     A
C575   O614    1.294   .     A
C576   O616    1.296   .     A
C576   O615    1.291   .     A
C576   C578    1.454   .     S
C577   C588    1.390   .     A
C578   C587    1.400   .     A
C578   C588    1.398   .     A
C579   C580    1.390   .     A
C579   F596    1.356   .     S
C580   C77     1.390   1_556 S
C580   F94     1.355   1_556 S
C581   F597    1.357   .     S
C582   C586    1.411   .     A
C583   C587    1.399   .     A
C584   C585    1.392   .     A
C584   C73     1.405   1_556 S
C584   C79     1.420   1_556 S
C585   C586    1.384   .     A
C585   F593    1.357   .     S
C586   F599    1.351   .     S
C587   F595    1.360   .     S
C588   H600    1.083   .     S
Cu589  O609    1.965   .     S
Cu589  Cu590   2.682   .     S
Cu589  O613    1.967   .     S
Cu589  N607    2.016   .     S
Cu589  O611    1.976   .     S
Cu589  O615    1.971   .     S
Cu590  O614    1.965   .     S
Cu590  N608    2.016   .     S
Cu590  O610    1.967   .     S
Cu590  O612    1.971   .     S
Cu590  O616    1.976   .     S
F594   C73     1.358   1_556 S
C617   O666    1.293   .     A
C617   C625    1.449   .     S
C617   O665    1.292   .     A
C618   C638    1.429   .     A
C618   C620    1.490   .     S
C618   C635    1.406   .     A
C619   H662    1.083   .     S
C619   C625    1.400   .     A
C619   C789    1.384   .     S
C620   O668    1.294   .     A
C620   O667    1.310   .     A
C621   C622    1.403   .     A
C621   H657    1.083   .     S
C621   C955    1.384   1_545 S
C622   C623    1.406   .     A
C622   C631    1.453   .     S
C623   F647    1.358   .     S
C623   C960    1.383   1_545 S
C624   H658    1.083   .     S
C624   C625    1.400   .     A
C624   C791    1.383   .     S
C626   N664    1.368   .     A
C626   H659    1.080   .     S
C626   C515    1.416   1_655 S
C627   N663    1.366   .     A
C627   H660    1.081   .     S
C628   C638    1.418   .     A
C628   C133    1.417   1_556 S
C628   C135    1.424   1_556 S
C629   F648    1.354   .     S
C629   N663    1.371   .     A
C630   H661    1.081   .     S
C630   N664    1.366   .     A
C630   C517    1.416   1_655 S
C631   O669    1.292   .     A
C631   O670    1.294   .     A
C632   O672    1.296   .     A
C632   O671    1.291   .     A
C632   C634    1.454   .     S
C633   C644    1.390   .     A
C634   C643    1.400   .     A
C634   C644    1.398   .     A
C635   C636    1.390   .     A
C635   F652    1.356   .     S
C636   C133    1.390   1_556 S
C636   F150    1.355   1_556 S
C637   F653    1.357   .     S
C638   C642    1.411   .     A
C639   C643    1.399   .     A
C640   C641    1.392   .     A
C640   C129    1.405   1_556 S
C640   C135    1.420   1_556 S
C641   C642    1.384   .     A
C641   F649    1.357   .     S
C642   F655    1.351   .     S
C643   F651    1.360   .     S
C644   H656    1.083   .     S
Cu645  O665    1.965   .     S
Cu645  Cu646   2.682   .     S
Cu645  O669    1.967   .     S
Cu645  N663    2.016   .     S
Cu645  O667    1.976   .     S
Cu645  O671    1.971   .     S
Cu646  O670    1.965   .     S
Cu646  N664    2.016   .     S
Cu646  O666    1.967   .     S
Cu646  O668    1.971   .     S
Cu646  O672    1.976   .     S
F650   C129    1.358   1_556 S
C673   O722    1.293   .     A
C673   C681    1.449   .     S
C673   O721    1.292   .     A
C674   C694    1.429   .     A
C674   C676    1.490   .     S
C674   C691    1.406   .     A
C675   H718    1.083   .     S
C675   C681    1.400   .     A
C675   C845    1.384   .     S
C676   O724    1.294   .     A
C676   O723    1.310   .     A
C677   C678    1.403   .     A
C677   H713    1.083   .     S
C678   C679    1.406   .     A
C678   C687    1.453   .     S
C679   F703    1.358   .     S
C680   H714    1.083   .     S
C680   C681    1.400   .     A
C680   C847    1.383   .     S
C682   N720    1.368   .     A
C682   H715    1.080   .     S
C682   C739    1.416   .     S
C683   N719    1.366   .     A
C683   H716    1.081   .     S
C683   C794    1.416   1_455 S
C684   C694    1.418   .     A
C684   C189    1.417   1_556 S
C684   C191    1.424   1_556 S
C685   F704    1.354   .     S
C685   N719    1.371   .     A
C685   C798    1.416   1_455 S
C686   H717    1.081   .     S
C686   N720    1.366   .     A
C686   C741    1.416   .     S
C687   O725    1.292   .     A
C687   O726    1.294   .     A
C688   O728    1.296   .     A
C688   O727    1.291   .     A
C688   C690    1.454   .     S
C689   C700    1.390   .     A
C690   C699    1.400   .     A
C690   C700    1.398   .     A
C691   C692    1.390   .     A
C691   F708    1.356   .     S
C692   C189    1.390   1_556 S
C692   F206    1.355   1_556 S
C693   F709    1.357   .     S
C694   C698    1.411   .     A
C695   C699    1.399   .     A
C696   C697    1.392   .     A
C696   C185    1.405   1_556 S
C696   C191    1.420   1_556 S
C697   C698    1.384   .     A
C697   F705    1.357   .     S
C698   F711    1.351   .     S
C699   F707    1.360   .     S
C700   H712    1.083   .     S
Cu701  O721    1.965   .     S
Cu701  Cu702   2.682   .     S
Cu701  O725    1.967   .     S
Cu701  N719    2.016   .     S
Cu701  O723    1.976   .     S
Cu701  O727    1.971   .     S
Cu702  O726    1.965   .     S
Cu702  N720    2.016   .     S
Cu702  O722    1.967   .     S
Cu702  O724    1.971   .     S
Cu702  O728    1.976   .     S
F706   C185    1.358   1_556 S
C729   O778    1.293   .     A
C729   C737    1.449   .     S
C729   O777    1.292   .     A
C730   C750    1.429   .     A
C730   C732    1.490   .     S
C730   C747    1.406   .     A
C731   H774    1.083   .     S
C731   C737    1.400   .     A
C731   C901    1.384   .     S
C732   O780    1.294   .     A
C732   O779    1.310   .     A
C733   C734    1.403   .     A
C733   H769    1.083   .     S
C734   C735    1.406   .     A
C734   C743    1.453   .     S
C735   F759    1.358   .     S
C736   H770    1.083   .     S
C736   C737    1.400   .     A
C736   C903    1.383   .     S
C738   N776    1.368   .     A
C738   H771    1.080   .     S
C738   C795    1.416   .     S
C739   N775    1.366   .     A
C739   H772    1.081   .     S
C740   C750    1.418   .     A
C740   C245    1.417   1_556 S
C740   C247    1.424   1_556 S
C741   F760    1.354   .     S
C741   N775    1.371   .     A
C742   H773    1.081   .     S
C742   N776    1.366   .     A
C742   C797    1.416   .     S
C743   O781    1.292   .     A
C743   O782    1.294   .     A
C744   O784    1.296   .     A
C744   O783    1.291   .     A
C744   C746    1.454   .     S
C745   C756    1.390   .     A
C746   C755    1.400   .     A
C746   C756    1.398   .     A
C747   C748    1.390   .     A
C747   F764    1.356   .     S
C748   C245    1.390   1_556 S
C748   F262    1.355   1_556 S
C749   F765    1.357   .     S
C750   C754    1.411   .     A
C751   C755    1.399   .     A
C752   C753    1.392   .     A
C752   C241    1.405   1_556 S
C752   C247    1.420   1_556 S
C753   C754    1.384   .     A
C753   F761    1.357   .     S
C754   F767    1.351   .     S
C755   F763    1.360   .     S
C756   H768    1.083   .     S
Cu757  O777    1.965   .     S
Cu757  Cu758   2.682   .     S
Cu757  O781    1.967   .     S
Cu757  N775    2.016   .     S
Cu757  O779    1.976   .     S
Cu757  O783    1.971   .     S
Cu758  O782    1.965   .     S
Cu758  N776    2.016   .     S
Cu758  O778    1.967   .     S
Cu758  O780    1.971   .     S
Cu758  O784    1.976   .     S
F762   C241    1.358   1_556 S
C785   O834    1.293   .     A
C785   C793    1.449   .     S
C785   O833    1.292   .     A
C786   C806    1.429   .     A
C786   C788    1.490   .     S
C786   C803    1.406   .     A
C787   H830    1.083   .     S
C787   C793    1.400   .     A
C787   C957    1.384   .     S
C788   O836    1.294   .     A
C788   O835    1.310   .     A
C789   C790    1.403   .     A
C789   H825    1.083   .     S
C790   C791    1.406   .     A
C790   C799    1.453   .     S
C791   F815    1.358   .     S
C792   H826    1.083   .     S
C792   C793    1.400   .     A
C792   C959    1.383   .     S
C794   N832    1.368   .     A
C794   H827    1.080   .     S
C794   C683    1.416   1_655 S
C795   N831    1.366   .     A
C795   H828    1.081   .     S
C796   C806    1.418   .     A
C796   C301    1.417   1_556 S
C796   C303    1.424   1_556 S
C797   F816    1.354   .     S
C797   N831    1.371   .     A
C798   H829    1.081   .     S
C798   N832    1.366   .     A
C798   C685    1.416   1_655 S
C799   O837    1.292   .     A
C799   O838    1.294   .     A
C800   O840    1.296   .     A
C800   O839    1.291   .     A
C800   C802    1.454   .     S
C801   C812    1.390   .     A
C802   C811    1.400   .     A
C802   C812    1.398   .     A
C803   C804    1.390   .     A
C803   F820    1.356   .     S
C804   C301    1.390   1_556 S
C804   F318    1.355   1_556 S
C805   F821    1.357   .     S
C806   C810    1.411   .     A
C807   C811    1.399   .     A
C808   C809    1.392   .     A
C808   C297    1.405   1_556 S
C808   C303    1.420   1_556 S
C809   C810    1.384   .     A
C809   F817    1.357   .     S
C810   F823    1.351   .     S
C811   F819    1.360   .     S
C812   H824    1.083   .     S
Cu813  O833    1.965   .     S
Cu813  Cu814   2.682   .     S
Cu813  O837    1.967   .     S
Cu813  N831    2.016   .     S
Cu813  O835    1.976   .     S
Cu813  O839    1.971   .     S
Cu814  O838    1.965   .     S
Cu814  N832    2.016   .     S
Cu814  O834    1.967   .     S
Cu814  O836    1.971   .     S
Cu814  O840    1.976   .     S
F818   C297    1.358   1_556 S
C841   O890    1.293   .     A
C841   C849    1.449   .     S
C841   O889    1.292   .     A
C842   C862    1.429   .     A
C842   C844    1.490   .     S
C842   C859    1.406   .     A
C843   H886    1.083   .     S
C843   C849    1.400   .     A
C843   C509    1.384   1_565 S
C844   O892    1.294   .     A
C844   O891    1.310   .     A
C845   C846    1.403   .     A
C845   H881    1.083   .     S
C846   C847    1.406   .     A
C846   C855    1.453   .     S
C847   F871    1.358   .     S
C848   H882    1.083   .     S
C848   C849    1.400   .     A
C848   C511    1.383   1_565 S
C850   N888    1.368   .     A
C850   H883    1.080   .     S
C850   C907    1.416   .     S
C851   N887    1.366   .     A
C851   H884    1.081   .     S
C851   C962    1.416   1_455 S
C852   C862    1.418   .     A
C852   C357    1.417   1_556 S
C852   C359    1.424   1_556 S
C853   F872    1.354   .     S
C853   N887    1.371   .     A
C853   C966    1.416   1_455 S
C854   H885    1.081   .     S
C854   N888    1.366   .     A
C854   C909    1.416   .     S
C855   O893    1.292   .     A
C855   O894    1.294   .     A
C856   O896    1.296   .     A
C856   O895    1.291   .     A
C856   C858    1.454   .     S
C857   C868    1.390   .     A
C858   C867    1.400   .     A
C858   C868    1.398   .     A
C859   C860    1.390   .     A
C859   F876    1.356   .     S
C860   C357    1.390   1_556 S
C860   F374    1.355   1_556 S
C861   F877    1.357   .     S
C862   C866    1.411   .     A
C863   C867    1.399   .     A
C864   C865    1.392   .     A
C864   C353    1.405   1_556 S
C864   C359    1.420   1_556 S
C865   C866    1.384   .     A
C865   F873    1.357   .     S
C866   F879    1.351   .     S
C867   F875    1.360   .     S
C868   H880    1.083   .     S
Cu869  O889    1.965   .     S
Cu869  Cu870   2.682   .     S
Cu869  O893    1.967   .     S
Cu869  N887    2.016   .     S
Cu869  O891    1.976   .     S
Cu869  O895    1.971   .     S
Cu870  O894    1.965   .     S
Cu870  N888    2.016   .     S
Cu870  O890    1.967   .     S
Cu870  O892    1.971   .     S
Cu870  O896    1.976   .     S
F874   C353    1.358   1_556 S
C897   O946    1.293   .     A
C897   C905    1.449   .     S
C897   O945    1.292   .     A
C898   C918    1.429   .     A
C898   C900    1.490   .     S
C898   C915    1.406   .     A
C899   H942    1.083   .     S
C899   C905    1.400   .     A
C899   C565    1.384   1_565 S
C900   O948    1.294   .     A
C900   O947    1.310   .     A
C901   C902    1.403   .     A
C901   H937    1.083   .     S
C902   C903    1.406   .     A
C902   C911    1.453   .     S
C903   F927    1.358   .     S
C904   H938    1.083   .     S
C904   C905    1.400   .     A
C904   C567    1.383   1_565 S
C906   N944    1.368   .     A
C906   H939    1.080   .     S
C906   C963    1.416   .     S
C907   N943    1.366   .     A
C907   H940    1.081   .     S
C908   C918    1.418   .     A
C908   C413    1.417   1_556 S
C908   C415    1.424   1_556 S
C909   F928    1.354   .     S
C909   N943    1.371   .     A
C910   H941    1.081   .     S
C910   N944    1.366   .     A
C910   C965    1.416   .     S
C911   O949    1.292   .     A
C911   O950    1.294   .     A
C912   O952    1.296   .     A
C912   O951    1.291   .     A
C912   C914    1.454   .     S
C913   C924    1.390   .     A
C914   C923    1.400   .     A
C914   C924    1.398   .     A
C915   C916    1.390   .     A
C915   F932    1.356   .     S
C916   C413    1.390   1_556 S
C916   F430    1.355   1_556 S
C917   F933    1.357   .     S
C918   C922    1.411   .     A
C919   C923    1.399   .     A
C920   C921    1.392   .     A
C920   C409    1.405   1_556 S
C920   C415    1.420   1_556 S
C921   C922    1.384   .     A
C921   F929    1.357   .     S
C922   F935    1.351   .     S
C923   F931    1.360   .     S
C924   H936    1.083   .     S
Cu925  O945    1.965   .     S
Cu925  Cu926   2.682   .     S
Cu925  O949    1.967   .     S
Cu925  N943    2.016   .     S
Cu925  O947    1.976   .     S
Cu925  O951    1.971   .     S
Cu926  O950    1.965   .     S
Cu926  N944    2.016   .     S
Cu926  O946    1.967   .     S
Cu926  O948    1.971   .     S
Cu926  O952    1.976   .     S
F930   C409    1.358   1_556 S
C953   O1002   1.293   .     A
C953   C961    1.449   .     S
C953   O1001   1.292   .     A
C954   C974    1.429   .     A
C954   C956    1.490   .     S
C954   C971    1.406   .     A
C955   H998    1.083   .     S
C955   C961    1.400   .     A
C955   C621    1.384   1_565 S
C956   O1004   1.294   .     A
C956   O1003   1.310   .     A
C957   C958    1.403   .     A
C957   H993    1.083   .     S
C958   C959    1.406   .     A
C958   C967    1.453   .     S
C959   F983    1.358   .     S
C960   H994    1.083   .     S
C960   C961    1.400   .     A
C960   C623    1.383   1_565 S
C962   N1000   1.368   .     A
C962   H995    1.080   .     S
C962   C851    1.416   1_655 S
C963   N999    1.366   .     A
C963   H996    1.081   .     S
C964   C974    1.418   .     A
C964   C469    1.417   1_556 S
C964   C471    1.424   1_556 S
C965   F984    1.354   .     S
C965   N999    1.371   .     A
C966   H997    1.081   .     S
C966   N1000   1.366   .     A
C966   C853    1.416   1_655 S
C967   O1005   1.292   .     A
C967   O1006   1.294   .     A
C968   O1008   1.296   .     A
C968   O1007   1.291   .     A
C968   C970    1.454   .     S
C969   C980    1.390   .     A
C970   C979    1.400   .     A
C970   C980    1.398   .     A
C971   C972    1.390   .     A
C971   F988    1.356   .     S
C972   C469    1.390   1_556 S
C972   F486    1.355   1_556 S
C973   F989    1.357   .     S
C974   C978    1.411   .     A
C975   C979    1.399   .     A
C976   C977    1.392   .     A
C976   C465    1.405   1_556 S
C976   C471    1.420   1_556 S
C977   C978    1.384   .     A
C977   F985    1.357   .     S
C978   F991    1.351   .     S
C979   F987    1.360   .     S
C980   H992    1.083   .     S
Cu981  O1001   1.965   .     S
Cu981  Cu982   2.682   .     S
Cu981  O1005   1.967   .     S
Cu981  N999    2.016   .     S
Cu981  O1003   1.976   .     S
Cu981  O1007   1.971   .     S
Cu982  O1006   1.965   .     S
Cu982  N1000   2.016   .     S
Cu982  O1002   1.967   .     S
Cu982  O1004   1.971   .     S
Cu982  O1008   1.976   .     S
F986   C465    1.358   1_556 S
