data_str_m2_o1_o16_pcu_sym.73
_audit_creation_date              2020-01-03
_audit_creation_method            'Materials Studio'
_symmetry_space_group_name_H-M    'P1'
_symmetry_Int_Tables_number       1
_symmetry_cell_setting            triclinic
loop_
_symmetry_equiv_pos_as_xyz
  x,y,z
_cell_length_a                    28.6212
_cell_length_b                    32.4162
_cell_length_c                    27.0129
_cell_angle_alpha                 90.7160
_cell_angle_beta                  72.7501
_cell_angle_gamma                 90.2334
loop_
_atom_site_label
_atom_site_type_symbol
_atom_site_fract_x
_atom_site_fract_y
_atom_site_fract_z
_atom_site_U_iso_or_equiv
_atom_site_adp_type
_atom_site_occupancy
O1     O     0.12708   0.22678   0.25000   0.00000  Uiso   1.00
O2     O     0.20627   0.22679   0.25000   0.00000  Uiso   1.00
C3     C     0.16670   0.24590   0.25017   0.00000  Uiso   1.00
O4     O     0.10775   0.16665   0.32549   0.00000  Uiso   1.00
O5     O     0.18694   0.16666   0.32549   0.00000  Uiso   1.00
C6     C     0.14060   0.16706   0.34981   0.00000  Uiso   1.00
Cu7    Cu    0.11978   0.16666   0.25000   0.00000  Uiso   1.00
Cu8    Cu    0.21355   0.16667   0.25000   0.00000  Uiso   1.00
O9     O     0.12706   0.10654   0.24999   0.00000  Uiso   1.00
O10    O     0.20625   0.10655   0.24999   0.00000  Uiso   1.00
O11    O     0.14640   0.16667   0.17451   0.00000  Uiso   1.00
O12    O     0.22559   0.16668   0.17451   0.00000  Uiso   1.00
C13    C     0.16702   0.08743   0.24848   0.00000  Uiso   1.00
C14    C     0.19271   0.16799   0.15019   0.00000  Uiso   1.00
C15    C     0.25635   0.13244   0.01620   0.00000  Uiso   1.00
H16    H     0.27476   0.13439   0.08693   0.00000  Uiso   1.00
H17    H     0.25262   0.10007   0.42758   0.00000  Uiso   1.00
H18    H     0.28696   0.11238   0.49785   0.00000  Uiso   1.00
C19    C     0.20744   0.16708   0.09341   0.00000  Uiso   1.00
C20    C     0.09071   0.20656   0.42425   0.00000  Uiso   1.00
C21    C     0.08940   0.22862   0.46892   0.00000  Uiso   1.00
C22    C     0.12221   0.21939   0.49624   0.00000  Uiso   1.00
C23    C     0.15321   0.18445   0.48322   0.00000  Uiso   1.00
C24    C     0.15621   0.16345   0.43591   0.00000  Uiso   1.00
C25    C     0.18348   0.17103   0.01363   0.00000  Uiso   1.00
C26    C     0.22212   0.14281   0.49074   0.00000  Uiso   1.00
C27    C     0.22492   0.12326   0.44378   0.00000  Uiso   1.00
C28    C     0.19049   0.13143   0.41860   0.00000  Uiso   1.00
C29    C     0.17548   0.18217   0.06664   0.00000  Uiso   1.00
C30    C     0.24953   0.14517   0.06693   0.00000  Uiso   1.00
C31    C     0.12633   0.17611   0.40548   0.00000  Uiso   1.00
H32    H     0.06772   0.21661   0.40125   0.00000  Uiso   1.00
H33    H     0.12410   0.24135   0.02578   0.00000  Uiso   1.00
H34    H     0.19187   0.11299   0.38452   0.00000  Uiso   1.00
C35    C     0.20928   0.31120   0.22042   0.00000  Uiso   1.00
C36    C     0.20958   0.02079   0.21804   0.00000  Uiso   1.00
C37    C     0.16743   0.04277   0.24638   0.00000  Uiso   1.00
C38    C     0.12538   0.02182   0.27476   0.00000  Uiso   1.00
H39    H     0.09304   0.03856   0.29679   0.00000  Uiso   1.00
C40    C     0.12503   0.31252   0.27615   0.00000  Uiso   1.00
C41    C     0.16709   0.29050   0.24930   0.00000  Uiso   1.00
C42    C     0.30086   0.19538   0.27814   0.00000  Uiso   1.00
H43    H     0.27604   0.21836   0.30084   0.00000  Uiso   1.00
C44    C     0.01711   0.19542   0.27806   0.00000  Uiso   1.00
H45    H     0.02949   0.21839   0.30071   0.00000  Uiso   1.00
N46    N     0.04931   0.16666   0.24998   0.00000  Uiso   1.00
C47    C     0.03196   0.13750   0.22219   0.00000  Uiso   1.00
C48    C     0.31587   0.13793   0.22213   0.00000  Uiso   1.00
H49    H     0.30307   0.11501   0.19981   0.00000  Uiso   1.00
N50    N     0.28402   0.16669   0.24999   0.00000  Uiso   1.00
N51    N     0.25146   0.04140   0.18464   0.00000  Uiso   1.00
O52    O     0.29546   0.02939   0.18214   0.00000  Uiso   1.00
O53    O     0.24575   0.06855   0.15183   0.00000  Uiso   1.00
F54    F     0.08415   0.29289   0.30491   0.00000  Uiso   1.00
N55    N     0.06267   0.10503   0.19450   0.00000  Uiso   1.00
O56    O     0.08762   0.11033   0.14628   0.00000  Uiso   1.00
O57    O     0.05430   0.06759   0.21169   0.00000  Uiso   1.00
N58    N     0.13258   0.20451   0.09548   0.00000  Uiso   1.00
O59    O     0.08925   0.18912   0.10116   0.00000  Uiso   1.00
O60    O     0.13694   0.23840   0.12011   0.00000  Uiso   1.00
F61    F     0.05878   0.26133   0.48359   0.00000  Uiso   1.00
F62    F     0.24899   0.28955   0.19199   0.00000  Uiso   1.00
O63    O     0.46042   0.22678   0.25000   0.00000  Uiso   1.00
O64    O     0.53961   0.22679   0.25000   0.00000  Uiso   1.00
C65    C     0.50003   0.24590   0.25017   0.00000  Uiso   1.00
O66    O     0.44108   0.16665   0.32549   0.00000  Uiso   1.00
O67    O     0.52027   0.16666   0.32549   0.00000  Uiso   1.00
C68    C     0.47393   0.16706   0.34981   0.00000  Uiso   1.00
Cu69   Cu    0.45311   0.16666   0.25000   0.00000  Uiso   1.00
Cu70   Cu    0.54689   0.16667   0.25000   0.00000  Uiso   1.00
O71    O     0.46039   0.10654   0.24999   0.00000  Uiso   1.00
O72    O     0.53958   0.10655   0.24999   0.00000  Uiso   1.00
O73    O     0.47973   0.16667   0.17451   0.00000  Uiso   1.00
O74    O     0.55892   0.16668   0.17451   0.00000  Uiso   1.00
C75    C     0.50035   0.08743   0.24848   0.00000  Uiso   1.00
C76    C     0.52604   0.16799   0.15019   0.00000  Uiso   1.00
C77    C     0.58968   0.13244   0.01620   0.00000  Uiso   1.00
H78    H     0.60809   0.13439   0.08693   0.00000  Uiso   1.00
H79    H     0.58595   0.10007   0.42758   0.00000  Uiso   1.00
H80    H     0.62029   0.11238   0.49785   0.00000  Uiso   1.00
C81    C     0.54078   0.16708   0.09341   0.00000  Uiso   1.00
C82    C     0.42404   0.20656   0.42425   0.00000  Uiso   1.00
C83    C     0.42273   0.22862   0.46892   0.00000  Uiso   1.00
C84    C     0.45554   0.21939   0.49624   0.00000  Uiso   1.00
C85    C     0.48654   0.18445   0.48322   0.00000  Uiso   1.00
C86    C     0.48954   0.16345   0.43591   0.00000  Uiso   1.00
C87    C     0.51681   0.17103   0.01363   0.00000  Uiso   1.00
C88    C     0.55545   0.14281   0.49074   0.00000  Uiso   1.00
C89    C     0.55826   0.12326   0.44378   0.00000  Uiso   1.00
C90    C     0.52382   0.13143   0.41860   0.00000  Uiso   1.00
C91    C     0.50881   0.18217   0.06664   0.00000  Uiso   1.00
C92    C     0.58287   0.14517   0.06693   0.00000  Uiso   1.00
C93    C     0.45966   0.17611   0.40548   0.00000  Uiso   1.00
H94    H     0.40105   0.21661   0.40125   0.00000  Uiso   1.00
H95    H     0.45743   0.24135   0.02578   0.00000  Uiso   1.00
H96    H     0.52520   0.11299   0.38452   0.00000  Uiso   1.00
C97    C     0.54262   0.31120   0.22042   0.00000  Uiso   1.00
C98    C     0.54291   0.02079   0.21804   0.00000  Uiso   1.00
C99    C     0.50077   0.04277   0.24638   0.00000  Uiso   1.00
C100   C     0.45872   0.02182   0.27476   0.00000  Uiso   1.00
H101   H     0.42638   0.03856   0.29679   0.00000  Uiso   1.00
C102   C     0.45837   0.31252   0.27615   0.00000  Uiso   1.00
C103   C     0.50043   0.29050   0.24930   0.00000  Uiso   1.00
C104   C     0.63420   0.19538   0.27814   0.00000  Uiso   1.00
H105   H     0.60937   0.21836   0.30084   0.00000  Uiso   1.00
C106   C     0.35044   0.19542   0.27806   0.00000  Uiso   1.00
H107   H     0.36283   0.21839   0.30071   0.00000  Uiso   1.00
N108   N     0.38265   0.16666   0.24998   0.00000  Uiso   1.00
C109   C     0.36530   0.13750   0.22219   0.00000  Uiso   1.00
C110   C     0.64921   0.13793   0.22213   0.00000  Uiso   1.00
H111   H     0.63641   0.11501   0.19981   0.00000  Uiso   1.00
N112   N     0.61735   0.16669   0.24999   0.00000  Uiso   1.00
N113   N     0.58479   0.04140   0.18464   0.00000  Uiso   1.00
O114   O     0.62879   0.02939   0.18214   0.00000  Uiso   1.00
O115   O     0.57908   0.06855   0.15183   0.00000  Uiso   1.00
F116   F     0.41748   0.29289   0.30491   0.00000  Uiso   1.00
N117   N     0.39601   0.10503   0.19450   0.00000  Uiso   1.00
O118   O     0.42095   0.11033   0.14628   0.00000  Uiso   1.00
O119   O     0.38763   0.06759   0.21169   0.00000  Uiso   1.00
N120   N     0.46591   0.20451   0.09548   0.00000  Uiso   1.00
O121   O     0.42258   0.18912   0.10116   0.00000  Uiso   1.00
O122   O     0.47028   0.23840   0.12011   0.00000  Uiso   1.00
F123   F     0.39212   0.26133   0.48359   0.00000  Uiso   1.00
F124   F     0.58232   0.28955   0.19199   0.00000  Uiso   1.00
O125   O     0.79375   0.22678   0.25000   0.00000  Uiso   1.00
O126   O     0.87294   0.22679   0.25000   0.00000  Uiso   1.00
C127   C     0.83336   0.24590   0.25017   0.00000  Uiso   1.00
O128   O     0.77441   0.16665   0.32549   0.00000  Uiso   1.00
O129   O     0.85360   0.16666   0.32549   0.00000  Uiso   1.00
C130   C     0.80727   0.16706   0.34981   0.00000  Uiso   1.00
Cu131  Cu    0.78645   0.16666   0.25000   0.00000  Uiso   1.00
Cu132  Cu    0.88022   0.16667   0.25000   0.00000  Uiso   1.00
O133   O     0.79373   0.10654   0.24999   0.00000  Uiso   1.00
O134   O     0.87292   0.10655   0.24999   0.00000  Uiso   1.00
O135   O     0.81306   0.16667   0.17451   0.00000  Uiso   1.00
O136   O     0.89225   0.16668   0.17451   0.00000  Uiso   1.00
C137   C     0.83368   0.08743   0.24848   0.00000  Uiso   1.00
C138   C     0.85937   0.16799   0.15019   0.00000  Uiso   1.00
C139   C     0.92301   0.13244   0.01620   0.00000  Uiso   1.00
H140   H     0.94143   0.13439   0.08693   0.00000  Uiso   1.00
H141   H     0.91929   0.10007   0.42758   0.00000  Uiso   1.00
H142   H     0.95363   0.11238   0.49785   0.00000  Uiso   1.00
C143   C     0.87411   0.16708   0.09341   0.00000  Uiso   1.00
C144   C     0.75738   0.20656   0.42425   0.00000  Uiso   1.00
C145   C     0.75606   0.22862   0.46892   0.00000  Uiso   1.00
C146   C     0.78887   0.21939   0.49624   0.00000  Uiso   1.00
C147   C     0.81988   0.18445   0.48322   0.00000  Uiso   1.00
C148   C     0.82287   0.16345   0.43591   0.00000  Uiso   1.00
C149   C     0.85015   0.17103   0.01363   0.00000  Uiso   1.00
C150   C     0.88879   0.14281   0.49074   0.00000  Uiso   1.00
C151   C     0.89159   0.12326   0.44378   0.00000  Uiso   1.00
C152   C     0.85716   0.13143   0.41860   0.00000  Uiso   1.00
C153   C     0.84214   0.18217   0.06664   0.00000  Uiso   1.00
C154   C     0.91620   0.14517   0.06693   0.00000  Uiso   1.00
C155   C     0.79299   0.17611   0.40548   0.00000  Uiso   1.00
H156   H     0.73438   0.21661   0.40125   0.00000  Uiso   1.00
H157   H     0.79076   0.24135   0.02578   0.00000  Uiso   1.00
H158   H     0.85854   0.11299   0.38452   0.00000  Uiso   1.00
C159   C     0.87595   0.31120   0.22042   0.00000  Uiso   1.00
C160   C     0.87625   0.02079   0.21804   0.00000  Uiso   1.00
C161   C     0.83410   0.04277   0.24638   0.00000  Uiso   1.00
C162   C     0.79205   0.02182   0.27476   0.00000  Uiso   1.00
H163   H     0.75971   0.03856   0.29679   0.00000  Uiso   1.00
C164   C     0.79170   0.31252   0.27615   0.00000  Uiso   1.00
C165   C     0.83376   0.29050   0.24930   0.00000  Uiso   1.00
C166   C     0.96753   0.19538   0.27814   0.00000  Uiso   1.00
H167   H     0.94270   0.21836   0.30084   0.00000  Uiso   1.00
C168   C     0.68377   0.19542   0.27806   0.00000  Uiso   1.00
H169   H     0.69616   0.21839   0.30071   0.00000  Uiso   1.00
N170   N     0.71598   0.16666   0.24998   0.00000  Uiso   1.00
C171   C     0.69863   0.13750   0.22219   0.00000  Uiso   1.00
C172   C     0.98254   0.13793   0.22213   0.00000  Uiso   1.00
H173   H     0.96974   0.11501   0.19981   0.00000  Uiso   1.00
N174   N     0.95069   0.16669   0.24999   0.00000  Uiso   1.00
N175   N     0.91813   0.04140   0.18464   0.00000  Uiso   1.00
O176   O     0.96212   0.02939   0.18214   0.00000  Uiso   1.00
O177   O     0.91242   0.06855   0.15183   0.00000  Uiso   1.00
F178   F     0.75081   0.29289   0.30491   0.00000  Uiso   1.00
N179   N     0.72934   0.10503   0.19450   0.00000  Uiso   1.00
O180   O     0.75428   0.11033   0.14628   0.00000  Uiso   1.00
O181   O     0.72096   0.06759   0.21169   0.00000  Uiso   1.00
N182   N     0.79924   0.20451   0.09548   0.00000  Uiso   1.00
O183   O     0.75592   0.18912   0.10116   0.00000  Uiso   1.00
O184   O     0.80361   0.23840   0.12011   0.00000  Uiso   1.00
F185   F     0.72545   0.26133   0.48359   0.00000  Uiso   1.00
F186   F     0.91565   0.28955   0.19199   0.00000  Uiso   1.00
O187   O     0.12708   0.56011   0.25000   0.00000  Uiso   1.00
O188   O     0.20627   0.56012   0.25000   0.00000  Uiso   1.00
C189   C     0.16670   0.57924   0.25017   0.00000  Uiso   1.00
O190   O     0.10775   0.49998   0.32549   0.00000  Uiso   1.00
O191   O     0.18694   0.49999   0.32549   0.00000  Uiso   1.00
C192   C     0.14060   0.50040   0.34981   0.00000  Uiso   1.00
Cu193  Cu    0.11978   0.49999   0.25000   0.00000  Uiso   1.00
Cu194  Cu    0.21355   0.50001   0.25000   0.00000  Uiso   1.00
O195   O     0.12706   0.43988   0.24999   0.00000  Uiso   1.00
O196   O     0.20625   0.43989   0.24999   0.00000  Uiso   1.00
O197   O     0.14640   0.50001   0.17451   0.00000  Uiso   1.00
O198   O     0.22559   0.50002   0.17451   0.00000  Uiso   1.00
C199   C     0.16702   0.42077   0.24848   0.00000  Uiso   1.00
C200   C     0.19271   0.50132   0.15019   0.00000  Uiso   1.00
C201   C     0.25635   0.46578   0.01620   0.00000  Uiso   1.00
H202   H     0.27476   0.46773   0.08693   0.00000  Uiso   1.00
H203   H     0.25262   0.43340   0.42758   0.00000  Uiso   1.00
H204   H     0.28696   0.44571   0.49785   0.00000  Uiso   1.00
C205   C     0.20744   0.50041   0.09341   0.00000  Uiso   1.00
C206   C     0.09071   0.53989   0.42425   0.00000  Uiso   1.00
C207   C     0.08940   0.56196   0.46892   0.00000  Uiso   1.00
C208   C     0.12221   0.55273   0.49624   0.00000  Uiso   1.00
C209   C     0.15321   0.51779   0.48322   0.00000  Uiso   1.00
C210   C     0.15621   0.49678   0.43591   0.00000  Uiso   1.00
C211   C     0.18348   0.50436   0.01363   0.00000  Uiso   1.00
C212   C     0.22212   0.47614   0.49074   0.00000  Uiso   1.00
C213   C     0.22492   0.45659   0.44378   0.00000  Uiso   1.00
C214   C     0.19049   0.46476   0.41860   0.00000  Uiso   1.00
C215   C     0.17548   0.51550   0.06664   0.00000  Uiso   1.00
C216   C     0.24953   0.47851   0.06693   0.00000  Uiso   1.00
C217   C     0.12633   0.50944   0.40548   0.00000  Uiso   1.00
H218   H     0.06772   0.54995   0.40125   0.00000  Uiso   1.00
H219   H     0.12410   0.57468   0.02578   0.00000  Uiso   1.00
H220   H     0.19187   0.44632   0.38452   0.00000  Uiso   1.00
C221   C     0.20928   0.64453   0.22042   0.00000  Uiso   1.00
C222   C     0.20958   0.35413   0.21804   0.00000  Uiso   1.00
C223   C     0.16743   0.37610   0.24638   0.00000  Uiso   1.00
C224   C     0.12538   0.35515   0.27476   0.00000  Uiso   1.00
H225   H     0.09304   0.37190   0.29679   0.00000  Uiso   1.00
C226   C     0.12503   0.64585   0.27615   0.00000  Uiso   1.00
C227   C     0.16709   0.62383   0.24930   0.00000  Uiso   1.00
C228   C     0.30086   0.52872   0.27814   0.00000  Uiso   1.00
H229   H     0.27604   0.55169   0.30084   0.00000  Uiso   1.00
C230   C     0.01711   0.52875   0.27806   0.00000  Uiso   1.00
H231   H     0.02949   0.55172   0.30071   0.00000  Uiso   1.00
N232   N     0.04931   0.49999   0.24998   0.00000  Uiso   1.00
C233   C     0.03196   0.47084   0.22219   0.00000  Uiso   1.00
C234   C     0.31587   0.47127   0.22213   0.00000  Uiso   1.00
H235   H     0.30307   0.44835   0.19981   0.00000  Uiso   1.00
N236   N     0.28402   0.50002   0.24999   0.00000  Uiso   1.00
N237   N     0.25146   0.37474   0.18464   0.00000  Uiso   1.00
O238   O     0.29546   0.36272   0.18214   0.00000  Uiso   1.00
O239   O     0.24575   0.40189   0.15183   0.00000  Uiso   1.00
F240   F     0.08415   0.62623   0.30491   0.00000  Uiso   1.00
N241   N     0.06267   0.43837   0.19450   0.00000  Uiso   1.00
O242   O     0.08762   0.44366   0.14628   0.00000  Uiso   1.00
O243   O     0.05430   0.40092   0.21169   0.00000  Uiso   1.00
N244   N     0.13258   0.53785   0.09548   0.00000  Uiso   1.00
O245   O     0.08925   0.52246   0.10116   0.00000  Uiso   1.00
O246   O     0.13694   0.57173   0.12011   0.00000  Uiso   1.00
F247   F     0.05878   0.59466   0.48359   0.00000  Uiso   1.00
F248   F     0.24899   0.62288   0.19199   0.00000  Uiso   1.00
O249   O     0.46042   0.56011   0.25000   0.00000  Uiso   1.00
O250   O     0.53961   0.56012   0.25000   0.00000  Uiso   1.00
C251   C     0.50003   0.57924   0.25017   0.00000  Uiso   1.00
O252   O     0.44108   0.49998   0.32549   0.00000  Uiso   1.00
O253   O     0.52027   0.49999   0.32549   0.00000  Uiso   1.00
C254   C     0.47393   0.50040   0.34981   0.00000  Uiso   1.00
Cu255  Cu    0.45311   0.49999   0.25000   0.00000  Uiso   1.00
Cu256  Cu    0.54689   0.50001   0.25000   0.00000  Uiso   1.00
O257   O     0.46039   0.43988   0.24999   0.00000  Uiso   1.00
O258   O     0.53958   0.43989   0.24999   0.00000  Uiso   1.00
O259   O     0.47973   0.50001   0.17451   0.00000  Uiso   1.00
O260   O     0.55892   0.50002   0.17451   0.00000  Uiso   1.00
C261   C     0.50035   0.42077   0.24848   0.00000  Uiso   1.00
C262   C     0.52604   0.50132   0.15019   0.00000  Uiso   1.00
C263   C     0.58968   0.46578   0.01620   0.00000  Uiso   1.00
H264   H     0.60809   0.46773   0.08693   0.00000  Uiso   1.00
H265   H     0.58595   0.43340   0.42758   0.00000  Uiso   1.00
H266   H     0.62029   0.44571   0.49785   0.00000  Uiso   1.00
C267   C     0.54078   0.50041   0.09341   0.00000  Uiso   1.00
C268   C     0.42404   0.53989   0.42425   0.00000  Uiso   1.00
C269   C     0.42273   0.56196   0.46892   0.00000  Uiso   1.00
C270   C     0.45554   0.55273   0.49624   0.00000  Uiso   1.00
C271   C     0.48654   0.51779   0.48322   0.00000  Uiso   1.00
C272   C     0.48954   0.49678   0.43591   0.00000  Uiso   1.00
C273   C     0.51681   0.50436   0.01363   0.00000  Uiso   1.00
C274   C     0.55545   0.47614   0.49074   0.00000  Uiso   1.00
C275   C     0.55826   0.45659   0.44378   0.00000  Uiso   1.00
C276   C     0.52382   0.46476   0.41860   0.00000  Uiso   1.00
C277   C     0.50881   0.51550   0.06664   0.00000  Uiso   1.00
C278   C     0.58287   0.47851   0.06693   0.00000  Uiso   1.00
C279   C     0.45966   0.50944   0.40548   0.00000  Uiso   1.00
H280   H     0.40105   0.54995   0.40125   0.00000  Uiso   1.00
H281   H     0.45743   0.57468   0.02578   0.00000  Uiso   1.00
H282   H     0.52520   0.44632   0.38452   0.00000  Uiso   1.00
C283   C     0.54262   0.64453   0.22042   0.00000  Uiso   1.00
C284   C     0.54291   0.35413   0.21804   0.00000  Uiso   1.00
C285   C     0.50077   0.37610   0.24638   0.00000  Uiso   1.00
C286   C     0.45872   0.35515   0.27476   0.00000  Uiso   1.00
H287   H     0.42638   0.37190   0.29679   0.00000  Uiso   1.00
C288   C     0.45837   0.64585   0.27615   0.00000  Uiso   1.00
C289   C     0.50043   0.62383   0.24930   0.00000  Uiso   1.00
C290   C     0.63420   0.52872   0.27814   0.00000  Uiso   1.00
H291   H     0.60937   0.55169   0.30084   0.00000  Uiso   1.00
C292   C     0.35044   0.52875   0.27806   0.00000  Uiso   1.00
H293   H     0.36283   0.55172   0.30071   0.00000  Uiso   1.00
N294   N     0.38265   0.49999   0.24998   0.00000  Uiso   1.00
C295   C     0.36530   0.47084   0.22219   0.00000  Uiso   1.00
C296   C     0.64921   0.47127   0.22213   0.00000  Uiso   1.00
H297   H     0.63641   0.44835   0.19981   0.00000  Uiso   1.00
N298   N     0.61735   0.50002   0.24999   0.00000  Uiso   1.00
N299   N     0.58479   0.37474   0.18464   0.00000  Uiso   1.00
O300   O     0.62879   0.36272   0.18214   0.00000  Uiso   1.00
O301   O     0.57908   0.40189   0.15183   0.00000  Uiso   1.00
F302   F     0.41748   0.62623   0.30491   0.00000  Uiso   1.00
N303   N     0.39601   0.43837   0.19450   0.00000  Uiso   1.00
O304   O     0.42095   0.44366   0.14628   0.00000  Uiso   1.00
O305   O     0.38763   0.40092   0.21169   0.00000  Uiso   1.00
N306   N     0.46591   0.53785   0.09548   0.00000  Uiso   1.00
O307   O     0.42258   0.52246   0.10116   0.00000  Uiso   1.00
O308   O     0.47028   0.57173   0.12011   0.00000  Uiso   1.00
F309   F     0.39212   0.59466   0.48359   0.00000  Uiso   1.00
F310   F     0.58232   0.62288   0.19199   0.00000  Uiso   1.00
O311   O     0.79375   0.56011   0.25000   0.00000  Uiso   1.00
O312   O     0.87294   0.56012   0.25000   0.00000  Uiso   1.00
C313   C     0.83336   0.57924   0.25017   0.00000  Uiso   1.00
O314   O     0.77441   0.49998   0.32549   0.00000  Uiso   1.00
O315   O     0.85360   0.49999   0.32549   0.00000  Uiso   1.00
C316   C     0.80727   0.50040   0.34981   0.00000  Uiso   1.00
Cu317  Cu    0.78645   0.49999   0.25000   0.00000  Uiso   1.00
Cu318  Cu    0.88022   0.50001   0.25000   0.00000  Uiso   1.00
O319   O     0.79373   0.43988   0.24999   0.00000  Uiso   1.00
O320   O     0.87292   0.43989   0.24999   0.00000  Uiso   1.00
O321   O     0.81306   0.50001   0.17451   0.00000  Uiso   1.00
O322   O     0.89225   0.50002   0.17451   0.00000  Uiso   1.00
C323   C     0.83368   0.42077   0.24848   0.00000  Uiso   1.00
C324   C     0.85937   0.50132   0.15019   0.00000  Uiso   1.00
C325   C     0.92301   0.46578   0.01620   0.00000  Uiso   1.00
H326   H     0.94143   0.46773   0.08693   0.00000  Uiso   1.00
H327   H     0.91929   0.43340   0.42758   0.00000  Uiso   1.00
H328   H     0.95363   0.44571   0.49785   0.00000  Uiso   1.00
C329   C     0.87411   0.50041   0.09341   0.00000  Uiso   1.00
C330   C     0.75738   0.53989   0.42425   0.00000  Uiso   1.00
C331   C     0.75606   0.56196   0.46892   0.00000  Uiso   1.00
C332   C     0.78887   0.55273   0.49624   0.00000  Uiso   1.00
C333   C     0.81988   0.51779   0.48322   0.00000  Uiso   1.00
C334   C     0.82287   0.49678   0.43591   0.00000  Uiso   1.00
C335   C     0.85015   0.50436   0.01363   0.00000  Uiso   1.00
C336   C     0.88879   0.47614   0.49074   0.00000  Uiso   1.00
C337   C     0.89159   0.45659   0.44378   0.00000  Uiso   1.00
C338   C     0.85716   0.46476   0.41860   0.00000  Uiso   1.00
C339   C     0.84214   0.51550   0.06664   0.00000  Uiso   1.00
C340   C     0.91620   0.47851   0.06693   0.00000  Uiso   1.00
C341   C     0.79299   0.50944   0.40548   0.00000  Uiso   1.00
H342   H     0.73438   0.54995   0.40125   0.00000  Uiso   1.00
H343   H     0.79076   0.57468   0.02578   0.00000  Uiso   1.00
H344   H     0.85854   0.44632   0.38452   0.00000  Uiso   1.00
C345   C     0.87595   0.64453   0.22042   0.00000  Uiso   1.00
C346   C     0.87625   0.35413   0.21804   0.00000  Uiso   1.00
C347   C     0.83410   0.37610   0.24638   0.00000  Uiso   1.00
C348   C     0.79205   0.35515   0.27476   0.00000  Uiso   1.00
H349   H     0.75971   0.37190   0.29679   0.00000  Uiso   1.00
C350   C     0.79170   0.64585   0.27615   0.00000  Uiso   1.00
C351   C     0.83376   0.62383   0.24930   0.00000  Uiso   1.00
C352   C     0.96753   0.52872   0.27814   0.00000  Uiso   1.00
H353   H     0.94270   0.55169   0.30084   0.00000  Uiso   1.00
C354   C     0.68377   0.52875   0.27806   0.00000  Uiso   1.00
H355   H     0.69616   0.55172   0.30071   0.00000  Uiso   1.00
N356   N     0.71598   0.49999   0.24998   0.00000  Uiso   1.00
C357   C     0.69863   0.47084   0.22219   0.00000  Uiso   1.00
C358   C     0.98254   0.47127   0.22213   0.00000  Uiso   1.00
H359   H     0.96974   0.44835   0.19981   0.00000  Uiso   1.00
N360   N     0.95069   0.50002   0.24999   0.00000  Uiso   1.00
N361   N     0.91813   0.37474   0.18464   0.00000  Uiso   1.00
O362   O     0.96212   0.36272   0.18214   0.00000  Uiso   1.00
O363   O     0.91242   0.40189   0.15183   0.00000  Uiso   1.00
F364   F     0.75081   0.62623   0.30491   0.00000  Uiso   1.00
N365   N     0.72934   0.43837   0.19450   0.00000  Uiso   1.00
O366   O     0.75428   0.44366   0.14628   0.00000  Uiso   1.00
O367   O     0.72096   0.40092   0.21169   0.00000  Uiso   1.00
N368   N     0.79924   0.53785   0.09548   0.00000  Uiso   1.00
O369   O     0.75592   0.52246   0.10116   0.00000  Uiso   1.00
O370   O     0.80361   0.57173   0.12011   0.00000  Uiso   1.00
F371   F     0.72545   0.59466   0.48359   0.00000  Uiso   1.00
F372   F     0.91565   0.62288   0.19199   0.00000  Uiso   1.00
O373   O     0.12708   0.89345   0.25000   0.00000  Uiso   1.00
O374   O     0.20627   0.89346   0.25000   0.00000  Uiso   1.00
C375   C     0.16670   0.91257   0.25017   0.00000  Uiso   1.00
O376   O     0.10775   0.83332   0.32549   0.00000  Uiso   1.00
O377   O     0.18694   0.83333   0.32549   0.00000  Uiso   1.00
C378   C     0.14060   0.83373   0.34981   0.00000  Uiso   1.00
Cu379  Cu    0.11978   0.83333   0.25000   0.00000  Uiso   1.00
Cu380  Cu    0.21355   0.83334   0.25000   0.00000  Uiso   1.00
O381   O     0.12706   0.77321   0.24999   0.00000  Uiso   1.00
O382   O     0.20625   0.77322   0.24999   0.00000  Uiso   1.00
O383   O     0.14640   0.83334   0.17451   0.00000  Uiso   1.00
O384   O     0.22559   0.83335   0.17451   0.00000  Uiso   1.00
C385   C     0.16702   0.75410   0.24848   0.00000  Uiso   1.00
C386   C     0.19271   0.83465   0.15019   0.00000  Uiso   1.00
C387   C     0.25635   0.79911   0.01620   0.00000  Uiso   1.00
H388   H     0.27476   0.80106   0.08693   0.00000  Uiso   1.00
H389   H     0.25262   0.76674   0.42758   0.00000  Uiso   1.00
H390   H     0.28696   0.77905   0.49785   0.00000  Uiso   1.00
C391   C     0.20744   0.83374   0.09341   0.00000  Uiso   1.00
C392   C     0.09071   0.87322   0.42425   0.00000  Uiso   1.00
C393   C     0.08940   0.89529   0.46892   0.00000  Uiso   1.00
C394   C     0.12221   0.88606   0.49624   0.00000  Uiso   1.00
C395   C     0.15321   0.85112   0.48322   0.00000  Uiso   1.00
C396   C     0.15621   0.83011   0.43591   0.00000  Uiso   1.00
C397   C     0.18348   0.83770   0.01363   0.00000  Uiso   1.00
C398   C     0.22212   0.80947   0.49074   0.00000  Uiso   1.00
C399   C     0.22492   0.78992   0.44378   0.00000  Uiso   1.00
C400   C     0.19049   0.79809   0.41860   0.00000  Uiso   1.00
C401   C     0.17548   0.84884   0.06664   0.00000  Uiso   1.00
C402   C     0.24953   0.81184   0.06693   0.00000  Uiso   1.00
C403   C     0.12633   0.84277   0.40548   0.00000  Uiso   1.00
H404   H     0.06772   0.88328   0.40125   0.00000  Uiso   1.00
H405   H     0.12410   0.90801   0.02578   0.00000  Uiso   1.00
H406   H     0.19187   0.77965   0.38452   0.00000  Uiso   1.00
C407   C     0.20928   0.97786   0.22042   0.00000  Uiso   1.00
C408   C     0.20958   0.68746   0.21804   0.00000  Uiso   1.00
C409   C     0.16743   0.70943   0.24638   0.00000  Uiso   1.00
C410   C     0.12538   0.68848   0.27476   0.00000  Uiso   1.00
H411   H     0.09304   0.70523   0.29679   0.00000  Uiso   1.00
C412   C     0.12503   0.97919   0.27615   0.00000  Uiso   1.00
C413   C     0.16709   0.95716   0.24930   0.00000  Uiso   1.00
C414   C     0.30086   0.86205   0.27814   0.00000  Uiso   1.00
H415   H     0.27604   0.88502   0.30084   0.00000  Uiso   1.00
C416   C     0.01711   0.86209   0.27806   0.00000  Uiso   1.00
H417   H     0.02949   0.88505   0.30071   0.00000  Uiso   1.00
N418   N     0.04931   0.83332   0.24998   0.00000  Uiso   1.00
C419   C     0.03196   0.80417   0.22219   0.00000  Uiso   1.00
C420   C     0.31587   0.80460   0.22213   0.00000  Uiso   1.00
H421   H     0.30307   0.78168   0.19981   0.00000  Uiso   1.00
N422   N     0.28402   0.83335   0.24999   0.00000  Uiso   1.00
N423   N     0.25146   0.70807   0.18464   0.00000  Uiso   1.00
O424   O     0.29546   0.69606   0.18214   0.00000  Uiso   1.00
O425   O     0.24575   0.73522   0.15183   0.00000  Uiso   1.00
F426   F     0.08415   0.95956   0.30491   0.00000  Uiso   1.00
N427   N     0.06267   0.77170   0.19450   0.00000  Uiso   1.00
O428   O     0.08762   0.77700   0.14628   0.00000  Uiso   1.00
O429   O     0.05430   0.73425   0.21169   0.00000  Uiso   1.00
N430   N     0.13258   0.87118   0.09548   0.00000  Uiso   1.00
O431   O     0.08925   0.85579   0.10116   0.00000  Uiso   1.00
O432   O     0.13694   0.90507   0.12011   0.00000  Uiso   1.00
F433   F     0.05878   0.92799   0.48359   0.00000  Uiso   1.00
F434   F     0.24899   0.95621   0.19199   0.00000  Uiso   1.00
O435   O     0.46042   0.89345   0.25000   0.00000  Uiso   1.00
O436   O     0.53961   0.89346   0.25000   0.00000  Uiso   1.00
C437   C     0.50003   0.91257   0.25017   0.00000  Uiso   1.00
O438   O     0.44108   0.83332   0.32549   0.00000  Uiso   1.00
O439   O     0.52027   0.83333   0.32549   0.00000  Uiso   1.00
C440   C     0.47393   0.83373   0.34981   0.00000  Uiso   1.00
Cu441  Cu    0.45311   0.83333   0.25000   0.00000  Uiso   1.00
Cu442  Cu    0.54689   0.83334   0.25000   0.00000  Uiso   1.00
O443   O     0.46039   0.77321   0.24999   0.00000  Uiso   1.00
O444   O     0.53958   0.77322   0.24999   0.00000  Uiso   1.00
O445   O     0.47973   0.83334   0.17451   0.00000  Uiso   1.00
O446   O     0.55892   0.83335   0.17451   0.00000  Uiso   1.00
C447   C     0.50035   0.75410   0.24848   0.00000  Uiso   1.00
C448   C     0.52604   0.83465   0.15019   0.00000  Uiso   1.00
C449   C     0.58968   0.79911   0.01620   0.00000  Uiso   1.00
H450   H     0.60809   0.80106   0.08693   0.00000  Uiso   1.00
H451   H     0.58595   0.76674   0.42758   0.00000  Uiso   1.00
H452   H     0.62029   0.77905   0.49785   0.00000  Uiso   1.00
C453   C     0.54078   0.83374   0.09341   0.00000  Uiso   1.00
C454   C     0.42404   0.87322   0.42425   0.00000  Uiso   1.00
C455   C     0.42273   0.89529   0.46892   0.00000  Uiso   1.00
C456   C     0.45554   0.88606   0.49624   0.00000  Uiso   1.00
C457   C     0.48654   0.85112   0.48322   0.00000  Uiso   1.00
C458   C     0.48954   0.83011   0.43591   0.00000  Uiso   1.00
C459   C     0.51681   0.83770   0.01363   0.00000  Uiso   1.00
C460   C     0.55545   0.80947   0.49074   0.00000  Uiso   1.00
C461   C     0.55826   0.78992   0.44378   0.00000  Uiso   1.00
C462   C     0.52382   0.79809   0.41860   0.00000  Uiso   1.00
C463   C     0.50881   0.84884   0.06664   0.00000  Uiso   1.00
C464   C     0.58287   0.81184   0.06693   0.00000  Uiso   1.00
C465   C     0.45966   0.84277   0.40548   0.00000  Uiso   1.00
H466   H     0.40105   0.88328   0.40125   0.00000  Uiso   1.00
H467   H     0.45743   0.90801   0.02578   0.00000  Uiso   1.00
H468   H     0.52520   0.77965   0.38452   0.00000  Uiso   1.00
C469   C     0.54262   0.97786   0.22042   0.00000  Uiso   1.00
C470   C     0.54291   0.68746   0.21804   0.00000  Uiso   1.00
C471   C     0.50077   0.70943   0.24638   0.00000  Uiso   1.00
C472   C     0.45872   0.68848   0.27476   0.00000  Uiso   1.00
H473   H     0.42638   0.70523   0.29679   0.00000  Uiso   1.00
C474   C     0.45837   0.97919   0.27615   0.00000  Uiso   1.00
C475   C     0.50043   0.95716   0.24930   0.00000  Uiso   1.00
C476   C     0.63420   0.86205   0.27814   0.00000  Uiso   1.00
H477   H     0.60937   0.88502   0.30084   0.00000  Uiso   1.00
C478   C     0.35044   0.86209   0.27806   0.00000  Uiso   1.00
H479   H     0.36283   0.88505   0.30071   0.00000  Uiso   1.00
N480   N     0.38265   0.83332   0.24998   0.00000  Uiso   1.00
C481   C     0.36530   0.80417   0.22219   0.00000  Uiso   1.00
C482   C     0.64921   0.80460   0.22213   0.00000  Uiso   1.00
H483   H     0.63641   0.78168   0.19981   0.00000  Uiso   1.00
N484   N     0.61735   0.83335   0.24999   0.00000  Uiso   1.00
N485   N     0.58479   0.70807   0.18464   0.00000  Uiso   1.00
O486   O     0.62879   0.69606   0.18214   0.00000  Uiso   1.00
O487   O     0.57908   0.73522   0.15183   0.00000  Uiso   1.00
F488   F     0.41748   0.95956   0.30491   0.00000  Uiso   1.00
N489   N     0.39601   0.77170   0.19450   0.00000  Uiso   1.00
O490   O     0.42095   0.77700   0.14628   0.00000  Uiso   1.00
O491   O     0.38763   0.73425   0.21169   0.00000  Uiso   1.00
N492   N     0.46591   0.87118   0.09548   0.00000  Uiso   1.00
O493   O     0.42258   0.85579   0.10116   0.00000  Uiso   1.00
O494   O     0.47028   0.90507   0.12011   0.00000  Uiso   1.00
F495   F     0.39212   0.92799   0.48359   0.00000  Uiso   1.00
F496   F     0.58232   0.95621   0.19199   0.00000  Uiso   1.00
O497   O     0.79375   0.89345   0.25000   0.00000  Uiso   1.00
O498   O     0.87294   0.89346   0.25000   0.00000  Uiso   1.00
C499   C     0.83336   0.91257   0.25017   0.00000  Uiso   1.00
O500   O     0.77441   0.83332   0.32549   0.00000  Uiso   1.00
O501   O     0.85360   0.83333   0.32549   0.00000  Uiso   1.00
C502   C     0.80727   0.83373   0.34981   0.00000  Uiso   1.00
Cu503  Cu    0.78645   0.83333   0.25000   0.00000  Uiso   1.00
Cu504  Cu    0.88022   0.83334   0.25000   0.00000  Uiso   1.00
O505   O     0.79373   0.77321   0.24999   0.00000  Uiso   1.00
O506   O     0.87292   0.77322   0.24999   0.00000  Uiso   1.00
O507   O     0.81306   0.83334   0.17451   0.00000  Uiso   1.00
O508   O     0.89225   0.83335   0.17451   0.00000  Uiso   1.00
C509   C     0.83368   0.75410   0.24848   0.00000  Uiso   1.00
C510   C     0.85937   0.83465   0.15019   0.00000  Uiso   1.00
C511   C     0.92301   0.79911   0.01620   0.00000  Uiso   1.00
H512   H     0.94143   0.80106   0.08693   0.00000  Uiso   1.00
H513   H     0.91929   0.76674   0.42758   0.00000  Uiso   1.00
H514   H     0.95363   0.77905   0.49785   0.00000  Uiso   1.00
C515   C     0.87411   0.83374   0.09341   0.00000  Uiso   1.00
C516   C     0.75738   0.87322   0.42425   0.00000  Uiso   1.00
C517   C     0.75606   0.89529   0.46892   0.00000  Uiso   1.00
C518   C     0.78887   0.88606   0.49624   0.00000  Uiso   1.00
C519   C     0.81988   0.85112   0.48322   0.00000  Uiso   1.00
C520   C     0.82287   0.83011   0.43591   0.00000  Uiso   1.00
C521   C     0.85015   0.83770   0.01363   0.00000  Uiso   1.00
C522   C     0.88879   0.80947   0.49074   0.00000  Uiso   1.00
C523   C     0.89159   0.78992   0.44378   0.00000  Uiso   1.00
C524   C     0.85716   0.79809   0.41860   0.00000  Uiso   1.00
C525   C     0.84214   0.84884   0.06664   0.00000  Uiso   1.00
C526   C     0.91620   0.81184   0.06693   0.00000  Uiso   1.00
C527   C     0.79299   0.84277   0.40548   0.00000  Uiso   1.00
H528   H     0.73438   0.88328   0.40125   0.00000  Uiso   1.00
H529   H     0.79076   0.90801   0.02578   0.00000  Uiso   1.00
H530   H     0.85854   0.77965   0.38452   0.00000  Uiso   1.00
C531   C     0.87595   0.97786   0.22042   0.00000  Uiso   1.00
C532   C     0.87625   0.68746   0.21804   0.00000  Uiso   1.00
C533   C     0.83410   0.70943   0.24638   0.00000  Uiso   1.00
C534   C     0.79205   0.68848   0.27476   0.00000  Uiso   1.00
H535   H     0.75971   0.70523   0.29679   0.00000  Uiso   1.00
C536   C     0.79170   0.97919   0.27615   0.00000  Uiso   1.00
C537   C     0.83376   0.95716   0.24930   0.00000  Uiso   1.00
C538   C     0.96753   0.86205   0.27814   0.00000  Uiso   1.00
H539   H     0.94270   0.88502   0.30084   0.00000  Uiso   1.00
C540   C     0.68377   0.86209   0.27806   0.00000  Uiso   1.00
H541   H     0.69616   0.88505   0.30071   0.00000  Uiso   1.00
N542   N     0.71598   0.83332   0.24998   0.00000  Uiso   1.00
C543   C     0.69863   0.80417   0.22219   0.00000  Uiso   1.00
C544   C     0.98254   0.80460   0.22213   0.00000  Uiso   1.00
H545   H     0.96974   0.78168   0.19981   0.00000  Uiso   1.00
N546   N     0.95069   0.83335   0.24999   0.00000  Uiso   1.00
N547   N     0.91813   0.70807   0.18464   0.00000  Uiso   1.00
O548   O     0.96212   0.69606   0.18214   0.00000  Uiso   1.00
O549   O     0.91242   0.73522   0.15183   0.00000  Uiso   1.00
F550   F     0.75081   0.95956   0.30491   0.00000  Uiso   1.00
N551   N     0.72934   0.77170   0.19450   0.00000  Uiso   1.00
O552   O     0.75428   0.77700   0.14628   0.00000  Uiso   1.00
O553   O     0.72096   0.73425   0.21169   0.00000  Uiso   1.00
N554   N     0.79924   0.87118   0.09548   0.00000  Uiso   1.00
O555   O     0.75592   0.85579   0.10116   0.00000  Uiso   1.00
O556   O     0.80361   0.90507   0.12011   0.00000  Uiso   1.00
F557   F     0.72545   0.92799   0.48359   0.00000  Uiso   1.00
F558   F     0.91565   0.95621   0.19199   0.00000  Uiso   1.00
O559   O     0.12708   0.22678   0.75000   0.00000  Uiso   1.00
O560   O     0.20627   0.22679   0.75000   0.00000  Uiso   1.00
C561   C     0.16670   0.24590   0.75017   0.00000  Uiso   1.00
O562   O     0.10775   0.16665   0.82549   0.00000  Uiso   1.00
O563   O     0.18694   0.16666   0.82549   0.00000  Uiso   1.00
C564   C     0.14060   0.16706   0.84981   0.00000  Uiso   1.00
Cu565  Cu    0.11978   0.16666   0.75000   0.00000  Uiso   1.00
Cu566  Cu    0.21355   0.16667   0.75000   0.00000  Uiso   1.00
O567   O     0.12706   0.10654   0.74999   0.00000  Uiso   1.00
O568   O     0.20625   0.10655   0.74999   0.00000  Uiso   1.00
O569   O     0.14640   0.16667   0.67451   0.00000  Uiso   1.00
O570   O     0.22559   0.16668   0.67451   0.00000  Uiso   1.00
C571   C     0.16702   0.08743   0.74848   0.00000  Uiso   1.00
C572   C     0.19271   0.16799   0.65019   0.00000  Uiso   1.00
C573   C     0.25635   0.13244   0.51620   0.00000  Uiso   1.00
H574   H     0.27476   0.13439   0.58693   0.00000  Uiso   1.00
H575   H     0.25262   0.10007   0.92758   0.00000  Uiso   1.00
H576   H     0.28696   0.11238   0.99785   0.00000  Uiso   1.00
C577   C     0.20744   0.16708   0.59341   0.00000  Uiso   1.00
C578   C     0.09071   0.20656   0.92425   0.00000  Uiso   1.00
C579   C     0.08940   0.22862   0.96892   0.00000  Uiso   1.00
C580   C     0.12221   0.21939   0.99624   0.00000  Uiso   1.00
C581   C     0.15321   0.18445   0.98322   0.00000  Uiso   1.00
C582   C     0.15621   0.16345   0.93591   0.00000  Uiso   1.00
C583   C     0.18348   0.17103   0.51363   0.00000  Uiso   1.00
C584   C     0.22212   0.14281   0.99074   0.00000  Uiso   1.00
C585   C     0.22492   0.12326   0.94378   0.00000  Uiso   1.00
C586   C     0.19049   0.13143   0.91860   0.00000  Uiso   1.00
C587   C     0.17548   0.18217   0.56664   0.00000  Uiso   1.00
C588   C     0.24953   0.14517   0.56693   0.00000  Uiso   1.00
C589   C     0.12633   0.17611   0.90548   0.00000  Uiso   1.00
H590   H     0.06772   0.21661   0.90125   0.00000  Uiso   1.00
H591   H     0.12410   0.24135   0.52578   0.00000  Uiso   1.00
H592   H     0.19187   0.11299   0.88452   0.00000  Uiso   1.00
C593   C     0.20928   0.31120   0.72042   0.00000  Uiso   1.00
C594   C     0.20958   0.02079   0.71804   0.00000  Uiso   1.00
C595   C     0.16743   0.04277   0.74638   0.00000  Uiso   1.00
C596   C     0.12538   0.02182   0.77476   0.00000  Uiso   1.00
H597   H     0.09304   0.03856   0.79679   0.00000  Uiso   1.00
C598   C     0.12503   0.31252   0.77615   0.00000  Uiso   1.00
C599   C     0.16709   0.29050   0.74930   0.00000  Uiso   1.00
C600   C     0.30086   0.19538   0.77814   0.00000  Uiso   1.00
H601   H     0.27604   0.21836   0.80084   0.00000  Uiso   1.00
C602   C     0.01711   0.19542   0.77806   0.00000  Uiso   1.00
H603   H     0.02949   0.21839   0.80071   0.00000  Uiso   1.00
N604   N     0.04931   0.16666   0.74998   0.00000  Uiso   1.00
C605   C     0.03196   0.13750   0.72219   0.00000  Uiso   1.00
C606   C     0.31587   0.13793   0.72213   0.00000  Uiso   1.00
H607   H     0.30307   0.11501   0.69981   0.00000  Uiso   1.00
N608   N     0.28402   0.16669   0.74999   0.00000  Uiso   1.00
N609   N     0.25146   0.04140   0.68464   0.00000  Uiso   1.00
O610   O     0.29546   0.02939   0.68214   0.00000  Uiso   1.00
O611   O     0.24575   0.06855   0.65183   0.00000  Uiso   1.00
F612   F     0.08415   0.29289   0.80491   0.00000  Uiso   1.00
N613   N     0.06267   0.10503   0.69450   0.00000  Uiso   1.00
O614   O     0.08762   0.11033   0.64628   0.00000  Uiso   1.00
O615   O     0.05430   0.06759   0.71169   0.00000  Uiso   1.00
N616   N     0.13258   0.20451   0.59548   0.00000  Uiso   1.00
O617   O     0.08925   0.18912   0.60116   0.00000  Uiso   1.00
O618   O     0.13694   0.23840   0.62011   0.00000  Uiso   1.00
F619   F     0.05878   0.26133   0.98359   0.00000  Uiso   1.00
F620   F     0.24899   0.28955   0.69199   0.00000  Uiso   1.00
O621   O     0.46042   0.22678   0.75000   0.00000  Uiso   1.00
O622   O     0.53961   0.22679   0.75000   0.00000  Uiso   1.00
C623   C     0.50003   0.24590   0.75017   0.00000  Uiso   1.00
O624   O     0.44108   0.16665   0.82549   0.00000  Uiso   1.00
O625   O     0.52027   0.16666   0.82549   0.00000  Uiso   1.00
C626   C     0.47393   0.16706   0.84981   0.00000  Uiso   1.00
Cu627  Cu    0.45311   0.16666   0.75000   0.00000  Uiso   1.00
Cu628  Cu    0.54689   0.16667   0.75000   0.00000  Uiso   1.00
O629   O     0.46039   0.10654   0.74999   0.00000  Uiso   1.00
O630   O     0.53958   0.10655   0.74999   0.00000  Uiso   1.00
O631   O     0.47973   0.16667   0.67451   0.00000  Uiso   1.00
O632   O     0.55892   0.16668   0.67451   0.00000  Uiso   1.00
C633   C     0.50035   0.08743   0.74848   0.00000  Uiso   1.00
C634   C     0.52604   0.16799   0.65019   0.00000  Uiso   1.00
C635   C     0.58968   0.13244   0.51620   0.00000  Uiso   1.00
H636   H     0.60809   0.13439   0.58693   0.00000  Uiso   1.00
H637   H     0.58595   0.10007   0.92758   0.00000  Uiso   1.00
H638   H     0.62029   0.11238   0.99785   0.00000  Uiso   1.00
C639   C     0.54078   0.16708   0.59341   0.00000  Uiso   1.00
C640   C     0.42404   0.20656   0.92425   0.00000  Uiso   1.00
C641   C     0.42273   0.22862   0.96892   0.00000  Uiso   1.00
C642   C     0.45554   0.21939   0.99624   0.00000  Uiso   1.00
C643   C     0.48654   0.18445   0.98322   0.00000  Uiso   1.00
C644   C     0.48954   0.16345   0.93591   0.00000  Uiso   1.00
C645   C     0.51681   0.17103   0.51363   0.00000  Uiso   1.00
C646   C     0.55545   0.14281   0.99074   0.00000  Uiso   1.00
C647   C     0.55826   0.12326   0.94378   0.00000  Uiso   1.00
C648   C     0.52382   0.13143   0.91860   0.00000  Uiso   1.00
C649   C     0.50881   0.18217   0.56664   0.00000  Uiso   1.00
C650   C     0.58287   0.14517   0.56693   0.00000  Uiso   1.00
C651   C     0.45966   0.17611   0.90548   0.00000  Uiso   1.00
H652   H     0.40105   0.21661   0.90125   0.00000  Uiso   1.00
H653   H     0.45743   0.24135   0.52578   0.00000  Uiso   1.00
H654   H     0.52520   0.11299   0.88452   0.00000  Uiso   1.00
C655   C     0.54262   0.31120   0.72042   0.00000  Uiso   1.00
C656   C     0.54291   0.02079   0.71804   0.00000  Uiso   1.00
C657   C     0.50077   0.04277   0.74638   0.00000  Uiso   1.00
C658   C     0.45872   0.02182   0.77476   0.00000  Uiso   1.00
H659   H     0.42638   0.03856   0.79679   0.00000  Uiso   1.00
C660   C     0.45837   0.31252   0.77615   0.00000  Uiso   1.00
C661   C     0.50043   0.29050   0.74930   0.00000  Uiso   1.00
C662   C     0.63420   0.19538   0.77814   0.00000  Uiso   1.00
H663   H     0.60937   0.21836   0.80084   0.00000  Uiso   1.00
C664   C     0.35044   0.19542   0.77806   0.00000  Uiso   1.00
H665   H     0.36283   0.21839   0.80071   0.00000  Uiso   1.00
N666   N     0.38265   0.16666   0.74998   0.00000  Uiso   1.00
C667   C     0.36530   0.13750   0.72219   0.00000  Uiso   1.00
C668   C     0.64921   0.13793   0.72213   0.00000  Uiso   1.00
H669   H     0.63641   0.11501   0.69981   0.00000  Uiso   1.00
N670   N     0.61735   0.16669   0.74999   0.00000  Uiso   1.00
N671   N     0.58479   0.04140   0.68464   0.00000  Uiso   1.00
O672   O     0.62879   0.02939   0.68214   0.00000  Uiso   1.00
O673   O     0.57908   0.06855   0.65183   0.00000  Uiso   1.00
F674   F     0.41748   0.29289   0.80491   0.00000  Uiso   1.00
N675   N     0.39601   0.10503   0.69450   0.00000  Uiso   1.00
O676   O     0.42095   0.11033   0.64628   0.00000  Uiso   1.00
O677   O     0.38763   0.06759   0.71169   0.00000  Uiso   1.00
N678   N     0.46591   0.20451   0.59548   0.00000  Uiso   1.00
O679   O     0.42258   0.18912   0.60116   0.00000  Uiso   1.00
O680   O     0.47028   0.23840   0.62011   0.00000  Uiso   1.00
F681   F     0.39212   0.26133   0.98359   0.00000  Uiso   1.00
F682   F     0.58232   0.28955   0.69199   0.00000  Uiso   1.00
O683   O     0.79375   0.22678   0.75000   0.00000  Uiso   1.00
O684   O     0.87294   0.22679   0.75000   0.00000  Uiso   1.00
C685   C     0.83336   0.24590   0.75017   0.00000  Uiso   1.00
O686   O     0.77441   0.16665   0.82549   0.00000  Uiso   1.00
O687   O     0.85360   0.16666   0.82549   0.00000  Uiso   1.00
C688   C     0.80727   0.16706   0.84981   0.00000  Uiso   1.00
Cu689  Cu    0.78645   0.16666   0.75000   0.00000  Uiso   1.00
Cu690  Cu    0.88022   0.16667   0.75000   0.00000  Uiso   1.00
O691   O     0.79373   0.10654   0.74999   0.00000  Uiso   1.00
O692   O     0.87292   0.10655   0.74999   0.00000  Uiso   1.00
O693   O     0.81306   0.16667   0.67451   0.00000  Uiso   1.00
O694   O     0.89225   0.16668   0.67451   0.00000  Uiso   1.00
C695   C     0.83368   0.08743   0.74848   0.00000  Uiso   1.00
C696   C     0.85937   0.16799   0.65019   0.00000  Uiso   1.00
C697   C     0.92301   0.13244   0.51620   0.00000  Uiso   1.00
H698   H     0.94143   0.13439   0.58693   0.00000  Uiso   1.00
H699   H     0.91929   0.10007   0.92758   0.00000  Uiso   1.00
H700   H     0.95363   0.11238   0.99785   0.00000  Uiso   1.00
C701   C     0.87411   0.16708   0.59341   0.00000  Uiso   1.00
C702   C     0.75738   0.20656   0.92425   0.00000  Uiso   1.00
C703   C     0.75606   0.22862   0.96892   0.00000  Uiso   1.00
C704   C     0.78887   0.21939   0.99624   0.00000  Uiso   1.00
C705   C     0.81988   0.18445   0.98322   0.00000  Uiso   1.00
C706   C     0.82287   0.16345   0.93591   0.00000  Uiso   1.00
C707   C     0.85015   0.17103   0.51363   0.00000  Uiso   1.00
C708   C     0.88879   0.14281   0.99074   0.00000  Uiso   1.00
C709   C     0.89159   0.12326   0.94378   0.00000  Uiso   1.00
C710   C     0.85716   0.13143   0.91860   0.00000  Uiso   1.00
C711   C     0.84214   0.18217   0.56664   0.00000  Uiso   1.00
C712   C     0.91620   0.14517   0.56693   0.00000  Uiso   1.00
C713   C     0.79299   0.17611   0.90548   0.00000  Uiso   1.00
H714   H     0.73438   0.21661   0.90125   0.00000  Uiso   1.00
H715   H     0.79076   0.24135   0.52578   0.00000  Uiso   1.00
H716   H     0.85854   0.11299   0.88452   0.00000  Uiso   1.00
C717   C     0.87595   0.31120   0.72042   0.00000  Uiso   1.00
C718   C     0.87625   0.02079   0.71804   0.00000  Uiso   1.00
C719   C     0.83410   0.04277   0.74638   0.00000  Uiso   1.00
C720   C     0.79205   0.02182   0.77476   0.00000  Uiso   1.00
H721   H     0.75971   0.03856   0.79679   0.00000  Uiso   1.00
C722   C     0.79170   0.31252   0.77615   0.00000  Uiso   1.00
C723   C     0.83376   0.29050   0.74930   0.00000  Uiso   1.00
C724   C     0.96753   0.19538   0.77814   0.00000  Uiso   1.00
H725   H     0.94270   0.21836   0.80084   0.00000  Uiso   1.00
C726   C     0.68377   0.19542   0.77806   0.00000  Uiso   1.00
H727   H     0.69616   0.21839   0.80071   0.00000  Uiso   1.00
N728   N     0.71598   0.16666   0.74998   0.00000  Uiso   1.00
C729   C     0.69863   0.13750   0.72219   0.00000  Uiso   1.00
C730   C     0.98254   0.13793   0.72213   0.00000  Uiso   1.00
H731   H     0.96974   0.11501   0.69981   0.00000  Uiso   1.00
N732   N     0.95069   0.16669   0.74999   0.00000  Uiso   1.00
N733   N     0.91813   0.04140   0.68464   0.00000  Uiso   1.00
O734   O     0.96212   0.02939   0.68214   0.00000  Uiso   1.00
O735   O     0.91242   0.06855   0.65183   0.00000  Uiso   1.00
F736   F     0.75081   0.29289   0.80491   0.00000  Uiso   1.00
N737   N     0.72934   0.10503   0.69450   0.00000  Uiso   1.00
O738   O     0.75428   0.11033   0.64628   0.00000  Uiso   1.00
O739   O     0.72096   0.06759   0.71169   0.00000  Uiso   1.00
N740   N     0.79924   0.20451   0.59548   0.00000  Uiso   1.00
O741   O     0.75592   0.18912   0.60116   0.00000  Uiso   1.00
O742   O     0.80361   0.23840   0.62011   0.00000  Uiso   1.00
F743   F     0.72545   0.26133   0.98359   0.00000  Uiso   1.00
F744   F     0.91565   0.28955   0.69199   0.00000  Uiso   1.00
O745   O     0.12708   0.56011   0.75000   0.00000  Uiso   1.00
O746   O     0.20627   0.56012   0.75000   0.00000  Uiso   1.00
C747   C     0.16670   0.57924   0.75017   0.00000  Uiso   1.00
O748   O     0.10775   0.49998   0.82549   0.00000  Uiso   1.00
O749   O     0.18694   0.49999   0.82549   0.00000  Uiso   1.00
C750   C     0.14060   0.50040   0.84981   0.00000  Uiso   1.00
Cu751  Cu    0.11978   0.49999   0.75000   0.00000  Uiso   1.00
Cu752  Cu    0.21355   0.50001   0.75000   0.00000  Uiso   1.00
O753   O     0.12706   0.43988   0.74999   0.00000  Uiso   1.00
O754   O     0.20625   0.43989   0.74999   0.00000  Uiso   1.00
O755   O     0.14640   0.50001   0.67451   0.00000  Uiso   1.00
O756   O     0.22559   0.50002   0.67451   0.00000  Uiso   1.00
C757   C     0.16702   0.42077   0.74848   0.00000  Uiso   1.00
C758   C     0.19271   0.50132   0.65019   0.00000  Uiso   1.00
C759   C     0.25635   0.46578   0.51620   0.00000  Uiso   1.00
H760   H     0.27476   0.46773   0.58693   0.00000  Uiso   1.00
H761   H     0.25262   0.43340   0.92758   0.00000  Uiso   1.00
H762   H     0.28696   0.44571   0.99785   0.00000  Uiso   1.00
C763   C     0.20744   0.50041   0.59341   0.00000  Uiso   1.00
C764   C     0.09071   0.53989   0.92425   0.00000  Uiso   1.00
C765   C     0.08940   0.56196   0.96892   0.00000  Uiso   1.00
C766   C     0.12221   0.55273   0.99624   0.00000  Uiso   1.00
C767   C     0.15321   0.51779   0.98322   0.00000  Uiso   1.00
C768   C     0.15621   0.49678   0.93591   0.00000  Uiso   1.00
C769   C     0.18348   0.50436   0.51363   0.00000  Uiso   1.00
C770   C     0.22212   0.47614   0.99074   0.00000  Uiso   1.00
C771   C     0.22492   0.45659   0.94378   0.00000  Uiso   1.00
C772   C     0.19049   0.46476   0.91860   0.00000  Uiso   1.00
C773   C     0.17548   0.51550   0.56664   0.00000  Uiso   1.00
C774   C     0.24953   0.47851   0.56693   0.00000  Uiso   1.00
C775   C     0.12633   0.50944   0.90548   0.00000  Uiso   1.00
H776   H     0.06772   0.54995   0.90125   0.00000  Uiso   1.00
H777   H     0.12410   0.57468   0.52578   0.00000  Uiso   1.00
H778   H     0.19187   0.44632   0.88452   0.00000  Uiso   1.00
C779   C     0.20928   0.64453   0.72042   0.00000  Uiso   1.00
C780   C     0.20958   0.35413   0.71804   0.00000  Uiso   1.00
C781   C     0.16743   0.37610   0.74638   0.00000  Uiso   1.00
C782   C     0.12538   0.35515   0.77476   0.00000  Uiso   1.00
H783   H     0.09304   0.37190   0.79679   0.00000  Uiso   1.00
C784   C     0.12503   0.64585   0.77615   0.00000  Uiso   1.00
C785   C     0.16709   0.62383   0.74930   0.00000  Uiso   1.00
C786   C     0.30086   0.52872   0.77814   0.00000  Uiso   1.00
H787   H     0.27604   0.55169   0.80084   0.00000  Uiso   1.00
C788   C     0.01711   0.52875   0.77806   0.00000  Uiso   1.00
H789   H     0.02949   0.55172   0.80071   0.00000  Uiso   1.00
N790   N     0.04931   0.49999   0.74998   0.00000  Uiso   1.00
C791   C     0.03196   0.47084   0.72219   0.00000  Uiso   1.00
C792   C     0.31587   0.47127   0.72213   0.00000  Uiso   1.00
H793   H     0.30307   0.44835   0.69981   0.00000  Uiso   1.00
N794   N     0.28402   0.50002   0.74999   0.00000  Uiso   1.00
N795   N     0.25146   0.37474   0.68464   0.00000  Uiso   1.00
O796   O     0.29546   0.36272   0.68214   0.00000  Uiso   1.00
O797   O     0.24575   0.40189   0.65183   0.00000  Uiso   1.00
F798   F     0.08415   0.62623   0.80491   0.00000  Uiso   1.00
N799   N     0.06267   0.43837   0.69450   0.00000  Uiso   1.00
O800   O     0.08762   0.44366   0.64628   0.00000  Uiso   1.00
O801   O     0.05430   0.40092   0.71169   0.00000  Uiso   1.00
N802   N     0.13258   0.53785   0.59548   0.00000  Uiso   1.00
O803   O     0.08925   0.52246   0.60116   0.00000  Uiso   1.00
O804   O     0.13694   0.57173   0.62011   0.00000  Uiso   1.00
F805   F     0.05878   0.59466   0.98359   0.00000  Uiso   1.00
F806   F     0.24899   0.62288   0.69199   0.00000  Uiso   1.00
O807   O     0.46042   0.56011   0.75000   0.00000  Uiso   1.00
O808   O     0.53961   0.56012   0.75000   0.00000  Uiso   1.00
C809   C     0.50003   0.57924   0.75017   0.00000  Uiso   1.00
O810   O     0.44108   0.49998   0.82549   0.00000  Uiso   1.00
O811   O     0.52027   0.49999   0.82549   0.00000  Uiso   1.00
C812   C     0.47393   0.50040   0.84981   0.00000  Uiso   1.00
Cu813  Cu    0.45311   0.49999   0.75000   0.00000  Uiso   1.00
Cu814  Cu    0.54689   0.50001   0.75000   0.00000  Uiso   1.00
O815   O     0.46039   0.43988   0.74999   0.00000  Uiso   1.00
O816   O     0.53958   0.43989   0.74999   0.00000  Uiso   1.00
O817   O     0.47973   0.50001   0.67451   0.00000  Uiso   1.00
O818   O     0.55892   0.50002   0.67451   0.00000  Uiso   1.00
C819   C     0.50035   0.42077   0.74848   0.00000  Uiso   1.00
C820   C     0.52604   0.50132   0.65019   0.00000  Uiso   1.00
C821   C     0.58968   0.46578   0.51620   0.00000  Uiso   1.00
H822   H     0.60809   0.46773   0.58693   0.00000  Uiso   1.00
H823   H     0.58595   0.43340   0.92758   0.00000  Uiso   1.00
H824   H     0.62029   0.44571   0.99785   0.00000  Uiso   1.00
C825   C     0.54078   0.50041   0.59341   0.00000  Uiso   1.00
C826   C     0.42404   0.53989   0.92425   0.00000  Uiso   1.00
C827   C     0.42273   0.56196   0.96892   0.00000  Uiso   1.00
C828   C     0.45554   0.55273   0.99624   0.00000  Uiso   1.00
C829   C     0.48654   0.51779   0.98322   0.00000  Uiso   1.00
C830   C     0.48954   0.49678   0.93591   0.00000  Uiso   1.00
C831   C     0.51681   0.50436   0.51363   0.00000  Uiso   1.00
C832   C     0.55545   0.47614   0.99074   0.00000  Uiso   1.00
C833   C     0.55826   0.45659   0.94378   0.00000  Uiso   1.00
C834   C     0.52382   0.46476   0.91860   0.00000  Uiso   1.00
C835   C     0.50881   0.51550   0.56664   0.00000  Uiso   1.00
C836   C     0.58287   0.47851   0.56693   0.00000  Uiso   1.00
C837   C     0.45966   0.50944   0.90548   0.00000  Uiso   1.00
H838   H     0.40105   0.54995   0.90125   0.00000  Uiso   1.00
H839   H     0.45743   0.57468   0.52578   0.00000  Uiso   1.00
H840   H     0.52520   0.44632   0.88452   0.00000  Uiso   1.00
C841   C     0.54262   0.64453   0.72042   0.00000  Uiso   1.00
C842   C     0.54291   0.35413   0.71804   0.00000  Uiso   1.00
C843   C     0.50077   0.37610   0.74638   0.00000  Uiso   1.00
C844   C     0.45872   0.35515   0.77476   0.00000  Uiso   1.00
H845   H     0.42638   0.37190   0.79679   0.00000  Uiso   1.00
C846   C     0.45837   0.64585   0.77615   0.00000  Uiso   1.00
C847   C     0.50043   0.62383   0.74930   0.00000  Uiso   1.00
C848   C     0.63420   0.52872   0.77814   0.00000  Uiso   1.00
H849   H     0.60937   0.55169   0.80084   0.00000  Uiso   1.00
C850   C     0.35044   0.52875   0.77806   0.00000  Uiso   1.00
H851   H     0.36283   0.55172   0.80071   0.00000  Uiso   1.00
N852   N     0.38265   0.49999   0.74998   0.00000  Uiso   1.00
C853   C     0.36530   0.47084   0.72219   0.00000  Uiso   1.00
C854   C     0.64921   0.47127   0.72213   0.00000  Uiso   1.00
H855   H     0.63641   0.44835   0.69981   0.00000  Uiso   1.00
N856   N     0.61735   0.50002   0.74999   0.00000  Uiso   1.00
N857   N     0.58479   0.37474   0.68464   0.00000  Uiso   1.00
O858   O     0.62879   0.36272   0.68214   0.00000  Uiso   1.00
O859   O     0.57908   0.40189   0.65183   0.00000  Uiso   1.00
F860   F     0.41748   0.62623   0.80491   0.00000  Uiso   1.00
N861   N     0.39601   0.43837   0.69450   0.00000  Uiso   1.00
O862   O     0.42095   0.44366   0.64628   0.00000  Uiso   1.00
O863   O     0.38763   0.40092   0.71169   0.00000  Uiso   1.00
N864   N     0.46591   0.53785   0.59548   0.00000  Uiso   1.00
O865   O     0.42258   0.52246   0.60116   0.00000  Uiso   1.00
O866   O     0.47028   0.57173   0.62011   0.00000  Uiso   1.00
F867   F     0.39212   0.59466   0.98359   0.00000  Uiso   1.00
F868   F     0.58232   0.62288   0.69199   0.00000  Uiso   1.00
O869   O     0.79375   0.56011   0.75000   0.00000  Uiso   1.00
O870   O     0.87294   0.56012   0.75000   0.00000  Uiso   1.00
C871   C     0.83336   0.57924   0.75017   0.00000  Uiso   1.00
O872   O     0.77441   0.49998   0.82549   0.00000  Uiso   1.00
O873   O     0.85360   0.49999   0.82549   0.00000  Uiso   1.00
C874   C     0.80727   0.50040   0.84981   0.00000  Uiso   1.00
Cu875  Cu    0.78645   0.49999   0.75000   0.00000  Uiso   1.00
Cu876  Cu    0.88022   0.50001   0.75000   0.00000  Uiso   1.00
O877   O     0.79373   0.43988   0.74999   0.00000  Uiso   1.00
O878   O     0.87292   0.43989   0.74999   0.00000  Uiso   1.00
O879   O     0.81306   0.50001   0.67451   0.00000  Uiso   1.00
O880   O     0.89225   0.50002   0.67451   0.00000  Uiso   1.00
C881   C     0.83368   0.42077   0.74848   0.00000  Uiso   1.00
C882   C     0.85937   0.50132   0.65019   0.00000  Uiso   1.00
C883   C     0.92301   0.46578   0.51620   0.00000  Uiso   1.00
H884   H     0.94143   0.46773   0.58693   0.00000  Uiso   1.00
H885   H     0.91929   0.43340   0.92758   0.00000  Uiso   1.00
H886   H     0.95363   0.44571   0.99785   0.00000  Uiso   1.00
C887   C     0.87411   0.50041   0.59341   0.00000  Uiso   1.00
C888   C     0.75738   0.53989   0.92425   0.00000  Uiso   1.00
C889   C     0.75606   0.56196   0.96892   0.00000  Uiso   1.00
C890   C     0.78887   0.55273   0.99624   0.00000  Uiso   1.00
C891   C     0.81988   0.51779   0.98322   0.00000  Uiso   1.00
C892   C     0.82287   0.49678   0.93591   0.00000  Uiso   1.00
C893   C     0.85015   0.50436   0.51363   0.00000  Uiso   1.00
C894   C     0.88879   0.47614   0.99074   0.00000  Uiso   1.00
C895   C     0.89159   0.45659   0.94378   0.00000  Uiso   1.00
C896   C     0.85716   0.46476   0.91860   0.00000  Uiso   1.00
C897   C     0.84214   0.51550   0.56664   0.00000  Uiso   1.00
C898   C     0.91620   0.47851   0.56693   0.00000  Uiso   1.00
C899   C     0.79299   0.50944   0.90548   0.00000  Uiso   1.00
H900   H     0.73438   0.54995   0.90125   0.00000  Uiso   1.00
H901   H     0.79076   0.57468   0.52578   0.00000  Uiso   1.00
H902   H     0.85854   0.44632   0.88452   0.00000  Uiso   1.00
C903   C     0.87595   0.64453   0.72042   0.00000  Uiso   1.00
C904   C     0.87625   0.35413   0.71804   0.00000  Uiso   1.00
C905   C     0.83410   0.37610   0.74638   0.00000  Uiso   1.00
C906   C     0.79205   0.35515   0.77476   0.00000  Uiso   1.00
H907   H     0.75971   0.37190   0.79679   0.00000  Uiso   1.00
C908   C     0.79170   0.64585   0.77615   0.00000  Uiso   1.00
C909   C     0.83376   0.62383   0.74930   0.00000  Uiso   1.00
C910   C     0.96753   0.52872   0.77814   0.00000  Uiso   1.00
H911   H     0.94270   0.55169   0.80084   0.00000  Uiso   1.00
C912   C     0.68377   0.52875   0.77806   0.00000  Uiso   1.00
H913   H     0.69616   0.55172   0.80071   0.00000  Uiso   1.00
N914   N     0.71598   0.49999   0.74998   0.00000  Uiso   1.00
C915   C     0.69863   0.47084   0.72219   0.00000  Uiso   1.00
C916   C     0.98254   0.47127   0.72213   0.00000  Uiso   1.00
H917   H     0.96974   0.44835   0.69981   0.00000  Uiso   1.00
N918   N     0.95069   0.50002   0.74999   0.00000  Uiso   1.00
N919   N     0.91813   0.37474   0.68464   0.00000  Uiso   1.00
O920   O     0.96212   0.36272   0.68214   0.00000  Uiso   1.00
O921   O     0.91242   0.40189   0.65183   0.00000  Uiso   1.00
F922   F     0.75081   0.62623   0.80491   0.00000  Uiso   1.00
N923   N     0.72934   0.43837   0.69450   0.00000  Uiso   1.00
O924   O     0.75428   0.44366   0.64628   0.00000  Uiso   1.00
O925   O     0.72096   0.40092   0.71169   0.00000  Uiso   1.00
N926   N     0.79924   0.53785   0.59548   0.00000  Uiso   1.00
O927   O     0.75592   0.52246   0.60116   0.00000  Uiso   1.00
O928   O     0.80361   0.57173   0.62011   0.00000  Uiso   1.00
F929   F     0.72545   0.59466   0.98359   0.00000  Uiso   1.00
F930   F     0.91565   0.62288   0.69199   0.00000  Uiso   1.00
O931   O     0.12708   0.89345   0.75000   0.00000  Uiso   1.00
O932   O     0.20627   0.89346   0.75000   0.00000  Uiso   1.00
C933   C     0.16670   0.91257   0.75017   0.00000  Uiso   1.00
O934   O     0.10775   0.83332   0.82549   0.00000  Uiso   1.00
O935   O     0.18694   0.83333   0.82549   0.00000  Uiso   1.00
C936   C     0.14060   0.83373   0.84981   0.00000  Uiso   1.00
Cu937  Cu    0.11978   0.83333   0.75000   0.00000  Uiso   1.00
Cu938  Cu    0.21355   0.83334   0.75000   0.00000  Uiso   1.00
O939   O     0.12706   0.77321   0.74999   0.00000  Uiso   1.00
O940   O     0.20625   0.77322   0.74999   0.00000  Uiso   1.00
O941   O     0.14640   0.83334   0.67451   0.00000  Uiso   1.00
O942   O     0.22559   0.83335   0.67451   0.00000  Uiso   1.00
C943   C     0.16702   0.75410   0.74848   0.00000  Uiso   1.00
C944   C     0.19271   0.83465   0.65019   0.00000  Uiso   1.00
C945   C     0.25635   0.79911   0.51620   0.00000  Uiso   1.00
H946   H     0.27476   0.80106   0.58693   0.00000  Uiso   1.00
H947   H     0.25262   0.76674   0.92758   0.00000  Uiso   1.00
H948   H     0.28696   0.77905   0.99785   0.00000  Uiso   1.00
C949   C     0.20744   0.83374   0.59341   0.00000  Uiso   1.00
C950   C     0.09071   0.87322   0.92425   0.00000  Uiso   1.00
C951   C     0.08940   0.89529   0.96892   0.00000  Uiso   1.00
C952   C     0.12221   0.88606   0.99624   0.00000  Uiso   1.00
C953   C     0.15321   0.85112   0.98322   0.00000  Uiso   1.00
C954   C     0.15621   0.83011   0.93591   0.00000  Uiso   1.00
C955   C     0.18348   0.83770   0.51363   0.00000  Uiso   1.00
C956   C     0.22212   0.80947   0.99074   0.00000  Uiso   1.00
C957   C     0.22492   0.78992   0.94378   0.00000  Uiso   1.00
C958   C     0.19049   0.79809   0.91860   0.00000  Uiso   1.00
C959   C     0.17548   0.84884   0.56664   0.00000  Uiso   1.00
C960   C     0.24953   0.81184   0.56693   0.00000  Uiso   1.00
C961   C     0.12633   0.84277   0.90548   0.00000  Uiso   1.00
H962   H     0.06772   0.88328   0.90125   0.00000  Uiso   1.00
H963   H     0.12410   0.90801   0.52578   0.00000  Uiso   1.00
H964   H     0.19187   0.77965   0.88452   0.00000  Uiso   1.00
C965   C     0.20928   0.97786   0.72042   0.00000  Uiso   1.00
C966   C     0.20958   0.68746   0.71804   0.00000  Uiso   1.00
C967   C     0.16743   0.70943   0.74638   0.00000  Uiso   1.00
C968   C     0.12538   0.68848   0.77476   0.00000  Uiso   1.00
H969   H     0.09304   0.70523   0.79679   0.00000  Uiso   1.00
C970   C     0.12503   0.97919   0.77615   0.00000  Uiso   1.00
C971   C     0.16709   0.95716   0.74930   0.00000  Uiso   1.00
C972   C     0.30086   0.86205   0.77814   0.00000  Uiso   1.00
H973   H     0.27604   0.88502   0.80084   0.00000  Uiso   1.00
C974   C     0.01711   0.86209   0.77806   0.00000  Uiso   1.00
H975   H     0.02949   0.88505   0.80071   0.00000  Uiso   1.00
N976   N     0.04931   0.83332   0.74998   0.00000  Uiso   1.00
C977   C     0.03196   0.80417   0.72219   0.00000  Uiso   1.00
C978   C     0.31587   0.80460   0.72213   0.00000  Uiso   1.00
H979   H     0.30307   0.78168   0.69981   0.00000  Uiso   1.00
N980   N     0.28402   0.83335   0.74999   0.00000  Uiso   1.00
N981   N     0.25146   0.70807   0.68464   0.00000  Uiso   1.00
O982   O     0.29546   0.69606   0.68214   0.00000  Uiso   1.00
O983   O     0.24575   0.73522   0.65183   0.00000  Uiso   1.00
F984   F     0.08415   0.95956   0.80491   0.00000  Uiso   1.00
N985   N     0.06267   0.77170   0.69450   0.00000  Uiso   1.00
O986   O     0.08762   0.77700   0.64628   0.00000  Uiso   1.00
O987   O     0.05430   0.73425   0.71169   0.00000  Uiso   1.00
N988   N     0.13258   0.87118   0.59548   0.00000  Uiso   1.00
O989   O     0.08925   0.85579   0.60116   0.00000  Uiso   1.00
O990   O     0.13694   0.90507   0.62011   0.00000  Uiso   1.00
F991   F     0.05878   0.92799   0.98359   0.00000  Uiso   1.00
F992   F     0.24899   0.95621   0.69199   0.00000  Uiso   1.00
O993   O     0.46042   0.89345   0.75000   0.00000  Uiso   1.00
O994   O     0.53961   0.89346   0.75000   0.00000  Uiso   1.00
C995   C     0.50003   0.91257   0.75017   0.00000  Uiso   1.00
O996   O     0.44108   0.83332   0.82549   0.00000  Uiso   1.00
O997   O     0.52027   0.83333   0.82549   0.00000  Uiso   1.00
C998   C     0.47393   0.83373   0.84981   0.00000  Uiso   1.00
Cu999  Cu    0.45311   0.83333   0.75000   0.00000  Uiso   1.00
Cu1000 Cu    0.54689   0.83334   0.75000   0.00000  Uiso   1.00
O1001  O     0.46039   0.77321   0.74999   0.00000  Uiso   1.00
O1002  O     0.53958   0.77322   0.74999   0.00000  Uiso   1.00
O1003  O     0.47973   0.83334   0.67451   0.00000  Uiso   1.00
O1004  O     0.55892   0.83335   0.67451   0.00000  Uiso   1.00
C1005  C     0.50035   0.75410   0.74848   0.00000  Uiso   1.00
C1006  C     0.52604   0.83465   0.65019   0.00000  Uiso   1.00
C1007  C     0.58968   0.79911   0.51620   0.00000  Uiso   1.00
H1008  H     0.60809   0.80106   0.58693   0.00000  Uiso   1.00
H1009  H     0.58595   0.76674   0.92758   0.00000  Uiso   1.00
H1010  H     0.62029   0.77905   0.99785   0.00000  Uiso   1.00
C1011  C     0.54078   0.83374   0.59341   0.00000  Uiso   1.00
C1012  C     0.42404   0.87322   0.92425   0.00000  Uiso   1.00
C1013  C     0.42273   0.89529   0.96892   0.00000  Uiso   1.00
C1014  C     0.45554   0.88606   0.99624   0.00000  Uiso   1.00
C1015  C     0.48654   0.85112   0.98322   0.00000  Uiso   1.00
C1016  C     0.48954   0.83011   0.93591   0.00000  Uiso   1.00
C1017  C     0.51681   0.83770   0.51363   0.00000  Uiso   1.00
C1018  C     0.55545   0.80947   0.99074   0.00000  Uiso   1.00
C1019  C     0.55826   0.78992   0.94378   0.00000  Uiso   1.00
C1020  C     0.52382   0.79809   0.91860   0.00000  Uiso   1.00
C1021  C     0.50881   0.84884   0.56664   0.00000  Uiso   1.00
C1022  C     0.58287   0.81184   0.56693   0.00000  Uiso   1.00
C1023  C     0.45966   0.84277   0.90548   0.00000  Uiso   1.00
H1024  H     0.40105   0.88328   0.90125   0.00000  Uiso   1.00
H1025  H     0.45743   0.90801   0.52578   0.00000  Uiso   1.00
H1026  H     0.52520   0.77965   0.88452   0.00000  Uiso   1.00
C1027  C     0.54262   0.97786   0.72042   0.00000  Uiso   1.00
C1028  C     0.54291   0.68746   0.71804   0.00000  Uiso   1.00
C1029  C     0.50077   0.70943   0.74638   0.00000  Uiso   1.00
C1030  C     0.45872   0.68848   0.77476   0.00000  Uiso   1.00
H1031  H     0.42638   0.70523   0.79679   0.00000  Uiso   1.00
C1032  C     0.45837   0.97919   0.77615   0.00000  Uiso   1.00
C1033  C     0.50043   0.95716   0.74930   0.00000  Uiso   1.00
C1034  C     0.63420   0.86205   0.77814   0.00000  Uiso   1.00
H1035  H     0.60937   0.88502   0.80084   0.00000  Uiso   1.00
C1036  C     0.35044   0.86209   0.77806   0.00000  Uiso   1.00
H1037  H     0.36283   0.88505   0.80071   0.00000  Uiso   1.00
N1038  N     0.38265   0.83332   0.74998   0.00000  Uiso   1.00
C1039  C     0.36530   0.80417   0.72219   0.00000  Uiso   1.00
C1040  C     0.64921   0.80460   0.72213   0.00000  Uiso   1.00
H1041  H     0.63641   0.78168   0.69981   0.00000  Uiso   1.00
N1042  N     0.61735   0.83335   0.74999   0.00000  Uiso   1.00
N1043  N     0.58479   0.70807   0.68464   0.00000  Uiso   1.00
O1044  O     0.62879   0.69606   0.68214   0.00000  Uiso   1.00
O1045  O     0.57908   0.73522   0.65183   0.00000  Uiso   1.00
F1046  F     0.41748   0.95956   0.80491   0.00000  Uiso   1.00
N1047  N     0.39601   0.77170   0.69450   0.00000  Uiso   1.00
O1048  O     0.42095   0.77700   0.64628   0.00000  Uiso   1.00
O1049  O     0.38763   0.73425   0.71169   0.00000  Uiso   1.00
N1050  N     0.46591   0.87118   0.59548   0.00000  Uiso   1.00
O1051  O     0.42258   0.85579   0.60116   0.00000  Uiso   1.00
O1052  O     0.47028   0.90507   0.62011   0.00000  Uiso   1.00
F1053  F     0.39212   0.92799   0.98359   0.00000  Uiso   1.00
F1054  F     0.58232   0.95621   0.69199   0.00000  Uiso   1.00
O1055  O     0.79375   0.89345   0.75000   0.00000  Uiso   1.00
O1056  O     0.87294   0.89346   0.75000   0.00000  Uiso   1.00
C1057  C     0.83336   0.91257   0.75017   0.00000  Uiso   1.00
O1058  O     0.77441   0.83332   0.82549   0.00000  Uiso   1.00
O1059  O     0.85360   0.83333   0.82549   0.00000  Uiso   1.00
C1060  C     0.80727   0.83373   0.84981   0.00000  Uiso   1.00
Cu1061 Cu    0.78645   0.83333   0.75000   0.00000  Uiso   1.00
Cu1062 Cu    0.88022   0.83334   0.75000   0.00000  Uiso   1.00
O1063  O     0.79373   0.77321   0.74999   0.00000  Uiso   1.00
O1064  O     0.87292   0.77322   0.74999   0.00000  Uiso   1.00
O1065  O     0.81306   0.83334   0.67451   0.00000  Uiso   1.00
O1066  O     0.89225   0.83335   0.67451   0.00000  Uiso   1.00
C1067  C     0.83368   0.75410   0.74848   0.00000  Uiso   1.00
C1068  C     0.85937   0.83465   0.65019   0.00000  Uiso   1.00
C1069  C     0.92301   0.79911   0.51620   0.00000  Uiso   1.00
H1070  H     0.94143   0.80106   0.58693   0.00000  Uiso   1.00
H1071  H     0.91929   0.76674   0.92758   0.00000  Uiso   1.00
H1072  H     0.95363   0.77905   0.99785   0.00000  Uiso   1.00
C1073  C     0.87411   0.83374   0.59341   0.00000  Uiso   1.00
C1074  C     0.75738   0.87322   0.92425   0.00000  Uiso   1.00
C1075  C     0.75606   0.89529   0.96892   0.00000  Uiso   1.00
C1076  C     0.78887   0.88606   0.99624   0.00000  Uiso   1.00
C1077  C     0.81988   0.85112   0.98322   0.00000  Uiso   1.00
C1078  C     0.82287   0.83011   0.93591   0.00000  Uiso   1.00
C1079  C     0.85015   0.83770   0.51363   0.00000  Uiso   1.00
C1080  C     0.88879   0.80947   0.99074   0.00000  Uiso   1.00
C1081  C     0.89159   0.78992   0.94378   0.00000  Uiso   1.00
C1082  C     0.85716   0.79809   0.91860   0.00000  Uiso   1.00
C1083  C     0.84214   0.84884   0.56664   0.00000  Uiso   1.00
C1084  C     0.91620   0.81184   0.56693   0.00000  Uiso   1.00
C1085  C     0.79299   0.84277   0.90548   0.00000  Uiso   1.00
H1086  H     0.73438   0.88328   0.90125   0.00000  Uiso   1.00
H1087  H     0.79076   0.90801   0.52578   0.00000  Uiso   1.00
H1088  H     0.85854   0.77965   0.88452   0.00000  Uiso   1.00
C1089  C     0.87595   0.97786   0.72042   0.00000  Uiso   1.00
C1090  C     0.87625   0.68746   0.71804   0.00000  Uiso   1.00
C1091  C     0.83410   0.70943   0.74638   0.00000  Uiso   1.00
C1092  C     0.79205   0.68848   0.77476   0.00000  Uiso   1.00
H1093  H     0.75971   0.70523   0.79679   0.00000  Uiso   1.00
C1094  C     0.79170   0.97919   0.77615   0.00000  Uiso   1.00
C1095  C     0.83376   0.95716   0.74930   0.00000  Uiso   1.00
C1096  C     0.96753   0.86205   0.77814   0.00000  Uiso   1.00
H1097  H     0.94270   0.88502   0.80084   0.00000  Uiso   1.00
C1098  C     0.68377   0.86209   0.77806   0.00000  Uiso   1.00
H1099  H     0.69616   0.88505   0.80071   0.00000  Uiso   1.00
N1100  N     0.71598   0.83332   0.74998   0.00000  Uiso   1.00
C1101  C     0.69863   0.80417   0.72219   0.00000  Uiso   1.00
C1102  C     0.98254   0.80460   0.72213   0.00000  Uiso   1.00
H1103  H     0.96974   0.78168   0.69981   0.00000  Uiso   1.00
N1104  N     0.95069   0.83335   0.74999   0.00000  Uiso   1.00
N1105  N     0.91813   0.70807   0.68464   0.00000  Uiso   1.00
O1106  O     0.96212   0.69606   0.68214   0.00000  Uiso   1.00
O1107  O     0.91242   0.73522   0.65183   0.00000  Uiso   1.00
F1108  F     0.75081   0.95956   0.80491   0.00000  Uiso   1.00
N1109  N     0.72934   0.77170   0.69450   0.00000  Uiso   1.00
O1110  O     0.75428   0.77700   0.64628   0.00000  Uiso   1.00
O1111  O     0.72096   0.73425   0.71169   0.00000  Uiso   1.00
N1112  N     0.79924   0.87118   0.59548   0.00000  Uiso   1.00
O1113  O     0.75592   0.85579   0.60116   0.00000  Uiso   1.00
O1114  O     0.80361   0.90507   0.62011   0.00000  Uiso   1.00
F1115  F     0.72545   0.92799   0.98359   0.00000  Uiso   1.00
F1116  F     0.91565   0.95621   0.69199   0.00000  Uiso   1.00
loop_
_geom_bond_atom_site_label_1
_geom_bond_atom_site_label_2
_geom_bond_distance
_geom_bond_site_symmetry_2
_ccdc_geom_bond_type
O1     Cu7     1.959   .     S
O1     C3      1.291   .     A
O2     C3      1.292   .     A
O2     Cu8     1.961   .     S
C3     C41     1.446   .     S
O4     Cu7     1.965   .     S
O4     C6      1.297   .     A
O5     Cu8     1.954   .     S
O5     C6      1.294   .     A
C6     C31     1.463   .     S
Cu7    Cu8     2.684   .     S
Cu7    O11     1.954   .     S
Cu7    N46     2.017   .     S
Cu7    O9      1.961   .     S
Cu8    O12     1.965   .     S
Cu8    N50     2.017   .     S
Cu8    O10     1.959   .     S
O9     C13     1.293   .     A
O10    C13     1.291   .     A
O11    C14     1.294   .     A
O12    C14     1.299   .     A
C13    C37     1.448   .     S
C14    C19     1.465   .     S
C15    C30     1.384   .     A
C15    H576    1.084   1_554 S
C15    C584    1.398   1_554 S
H16    C30     1.083   .     S
H17    C27     1.084   .     S
H18    C573    1.084   .     S
C19    C29     1.416   .     A
C19    C30     1.396   .     A
C20    C21     1.386   .     A
C20    H32     1.084   .     S
C20    C31     1.400   .     A
C21    F61     1.356   .     S
C21    C22     1.391   .     A
C22    C23     1.417   .     A
C22    H591    1.076   .     S
C23    C24     1.421   .     A
C23    C583    1.431   .     S
C24    C28     1.408   .     A
C24    C31     1.415   .     A
C25    C29     1.424   .     A
C25    C581    1.431   1_554 S
C25    C584    1.425   1_554 S
C26    C27     1.392   .     A
C26    C573    1.398   .     S
C26    C583    1.425   .     S
C27    C28     1.382   .     A
C28    H34     1.082   .     S
C29    N58     1.437   .     S
H33    C580    1.076   1_554 S
C35    F62     1.360   .     S
C35    C41     1.402   .     A
C35    C222    1.394   .     S
C36    N51     1.437   .     S
C36    C37     1.412   .     A
C36    C407    1.394   1_545 S
C37    C38     1.399   .     A
C38    H39     1.084   .     S
C38    C412    1.383   1_545 S
C40    C41     1.400   .     A
C40    F54     1.358   .     S
C40    C224    1.383   .     S
C42    N50     1.368   .     A
C42    H43     1.082   .     S
C42    C106    1.418   .     S
C44    H45     1.081   .     S
C44    N46     1.367   .     A
C44    C166    1.418   1_455 S
N46    C47     1.379   .     A
C47    N55     1.428   .     S
C47    C172    1.415   1_455 S
C48    N50     1.360   .     A
C48    H49     1.080   .     S
C48    C109    1.415   .     S
N51    O52     1.302   .     A
N51    O53     1.301   .     A
N55    O56     1.300   .     A
N55    O57     1.301   .     A
N58    O60     1.302   .     A
N58    O59     1.302   .     A
O63    Cu69    1.959   .     S
O63    C65     1.291   .     A
O64    C65     1.292   .     A
O64    Cu70    1.961   .     S
C65    C103    1.446   .     S
O66    Cu69    1.965   .     S
O66    C68     1.297   .     A
O67    Cu70    1.954   .     S
O67    C68     1.294   .     A
C68    C93     1.463   .     S
Cu69   Cu70    2.684   .     S
Cu69   O73     1.954   .     S
Cu69   N108    2.017   .     S
Cu69   O71     1.961   .     S
Cu70   O74     1.965   .     S
Cu70   N112    2.017   .     S
Cu70   O72     1.959   .     S
O71    C75     1.293   .     A
O72    C75     1.291   .     A
O73    C76     1.294   .     A
O74    C76     1.299   .     A
C75    C99     1.448   .     S
C76    C81     1.465   .     S
C77    C92     1.384   .     A
C77    H638    1.084   1_554 S
C77    C646    1.398   1_554 S
H78    C92     1.083   .     S
H79    C89     1.084   .     S
H80    C635    1.084   .     S
C81    C91     1.416   .     A
C81    C92     1.396   .     A
C82    C83     1.386   .     A
C82    H94     1.084   .     S
C82    C93     1.400   .     A
C83    F123    1.356   .     S
C83    C84     1.391   .     A
C84    C85     1.417   .     A
C84    H653    1.076   .     S
C85    C86     1.421   .     A
C85    C645    1.431   .     S
C86    C90     1.408   .     A
C86    C93     1.415   .     A
C87    C91     1.424   .     A
C87    C643    1.431   1_554 S
C87    C646    1.425   1_554 S
C88    C89     1.392   .     A
C88    C635    1.398   .     S
C88    C645    1.425   .     S
C89    C90     1.382   .     A
C90    H96     1.082   .     S
C91    N120    1.437   .     S
H95    C642    1.076   1_554 S
C97    F124    1.360   .     S
C97    C103    1.402   .     A
C97    C284    1.394   .     S
C98    N113    1.437   .     S
C98    C99     1.412   .     A
C98    C469    1.394   1_545 S
C99    C100    1.399   .     A
C100   H101    1.084   .     S
C100   C474    1.383   1_545 S
C102   C103    1.400   .     A
C102   F116    1.358   .     S
C102   C286    1.383   .     S
C104   N112    1.368   .     A
C104   H105    1.082   .     S
C104   C168    1.418   .     S
C106   H107    1.081   .     S
C106   N108    1.367   .     A
N108   C109    1.379   .     A
C109   N117    1.428   .     S
C110   N112    1.360   .     A
C110   H111    1.080   .     S
C110   C171    1.415   .     S
N113   O114    1.302   .     A
N113   O115    1.301   .     A
N117   O118    1.300   .     A
N117   O119    1.301   .     A
N120   O122    1.302   .     A
N120   O121    1.302   .     A
O125   Cu131   1.959   .     S
O125   C127    1.291   .     A
O126   C127    1.292   .     A
O126   Cu132   1.961   .     S
C127   C165    1.446   .     S
O128   Cu131   1.965   .     S
O128   C130    1.297   .     A
O129   Cu132   1.954   .     S
O129   C130    1.294   .     A
C130   C155    1.463   .     S
Cu131  Cu132   2.684   .     S
Cu131  O135    1.954   .     S
Cu131  N170    2.017   .     S
Cu131  O133    1.961   .     S
Cu132  O136    1.965   .     S
Cu132  N174    2.017   .     S
Cu132  O134    1.959   .     S
O133   C137    1.293   .     A
O134   C137    1.291   .     A
O135   C138    1.294   .     A
O136   C138    1.299   .     A
C137   C161    1.448   .     S
C138   C143    1.465   .     S
C139   C154    1.384   .     A
C139   H700    1.084   1_554 S
C139   C708    1.398   1_554 S
H140   C154    1.083   .     S
H141   C151    1.084   .     S
H142   C697    1.084   .     S
C143   C153    1.416   .     A
C143   C154    1.396   .     A
C144   C145    1.386   .     A
C144   H156    1.084   .     S
C144   C155    1.400   .     A
C145   F185    1.356   .     S
C145   C146    1.391   .     A
C146   C147    1.417   .     A
C146   H715    1.076   .     S
C147   C148    1.421   .     A
C147   C707    1.431   .     S
C148   C152    1.408   .     A
C148   C155    1.415   .     A
C149   C153    1.424   .     A
C149   C705    1.431   1_554 S
C149   C708    1.425   1_554 S
C150   C151    1.392   .     A
C150   C697    1.398   .     S
C150   C707    1.425   .     S
C151   C152    1.382   .     A
C152   H158    1.082   .     S
C153   N182    1.437   .     S
H157   C704    1.076   1_554 S
C159   F186    1.360   .     S
C159   C165    1.402   .     A
C159   C346    1.394   .     S
C160   N175    1.437   .     S
C160   C161    1.412   .     A
C160   C531    1.394   1_545 S
C161   C162    1.399   .     A
C162   H163    1.084   .     S
C162   C536    1.383   1_545 S
C164   C165    1.400   .     A
C164   F178    1.358   .     S
C164   C348    1.383   .     S
C166   N174    1.368   .     A
C166   H167    1.082   .     S
C166   C44     1.418   1_655 S
C168   H169    1.081   .     S
C168   N170    1.367   .     A
N170   C171    1.379   .     A
C171   N179    1.428   .     S
C172   N174    1.360   .     A
C172   H173    1.080   .     S
C172   C47     1.415   1_655 S
N175   O176    1.302   .     A
N175   O177    1.301   .     A
N179   O180    1.300   .     A
N179   O181    1.301   .     A
N182   O184    1.302   .     A
N182   O183    1.302   .     A
O187   Cu193   1.959   .     S
O187   C189    1.291   .     A
O188   C189    1.292   .     A
O188   Cu194   1.961   .     S
C189   C227    1.446   .     S
O190   Cu193   1.965   .     S
O190   C192    1.297   .     A
O191   Cu194   1.954   .     S
O191   C192    1.294   .     A
C192   C217    1.463   .     S
Cu193  Cu194   2.684   .     S
Cu193  O197    1.954   .     S
Cu193  N232    2.017   .     S
Cu193  O195    1.961   .     S
Cu194  O198    1.965   .     S
Cu194  N236    2.017   .     S
Cu194  O196    1.959   .     S
O195   C199    1.293   .     A
O196   C199    1.291   .     A
O197   C200    1.294   .     A
O198   C200    1.299   .     A
C199   C223    1.448   .     S
C200   C205    1.465   .     S
C201   C216    1.384   .     A
C201   H762    1.084   1_554 S
C201   C770    1.398   1_554 S
H202   C216    1.083   .     S
H203   C213    1.084   .     S
H204   C759    1.084   .     S
C205   C215    1.416   .     A
C205   C216    1.396   .     A
C206   C207    1.386   .     A
C206   H218    1.084   .     S
C206   C217    1.400   .     A
C207   F247    1.356   .     S
C207   C208    1.391   .     A
C208   C209    1.417   .     A
C208   H777    1.076   .     S
C209   C210    1.421   .     A
C209   C769    1.431   .     S
C210   C214    1.408   .     A
C210   C217    1.415   .     A
C211   C215    1.424   .     A
C211   C767    1.431   1_554 S
C211   C770    1.425   1_554 S
C212   C213    1.392   .     A
C212   C759    1.398   .     S
C212   C769    1.425   .     S
C213   C214    1.382   .     A
C214   H220    1.082   .     S
C215   N244    1.437   .     S
H219   C766    1.076   1_554 S
C221   F248    1.360   .     S
C221   C227    1.402   .     A
C221   C408    1.394   .     S
C222   N237    1.437   .     S
C222   C223    1.412   .     A
C223   C224    1.399   .     A
C224   H225    1.084   .     S
C226   C227    1.400   .     A
C226   F240    1.358   .     S
C226   C410    1.383   .     S
C228   N236    1.368   .     A
C228   H229    1.082   .     S
C228   C292    1.418   .     S
C230   H231    1.081   .     S
C230   N232    1.367   .     A
C230   C352    1.418   1_455 S
N232   C233    1.379   .     A
C233   N241    1.428   .     S
C233   C358    1.415   1_455 S
C234   N236    1.360   .     A
C234   H235    1.080   .     S
C234   C295    1.415   .     S
N237   O238    1.302   .     A
N237   O239    1.301   .     A
N241   O242    1.300   .     A
N241   O243    1.301   .     A
N244   O246    1.302   .     A
N244   O245    1.302   .     A
O249   Cu255   1.959   .     S
O249   C251    1.291   .     A
O250   C251    1.292   .     A
O250   Cu256   1.961   .     S
C251   C289    1.446   .     S
O252   Cu255   1.965   .     S
O252   C254    1.297   .     A
O253   Cu256   1.954   .     S
O253   C254    1.294   .     A
C254   C279    1.463   .     S
Cu255  Cu256   2.684   .     S
Cu255  O259    1.954   .     S
Cu255  N294    2.017   .     S
Cu255  O257    1.961   .     S
Cu256  O260    1.965   .     S
Cu256  N298    2.017   .     S
Cu256  O258    1.959   .     S
O257   C261    1.293   .     A
O258   C261    1.291   .     A
O259   C262    1.294   .     A
O260   C262    1.299   .     A
C261   C285    1.448   .     S
C262   C267    1.465   .     S
C263   C278    1.384   .     A
C263   H824    1.084   1_554 S
C263   C832    1.398   1_554 S
H264   C278    1.083   .     S
H265   C275    1.084   .     S
H266   C821    1.084   .     S
C267   C277    1.416   .     A
C267   C278    1.396   .     A
C268   C269    1.386   .     A
C268   H280    1.084   .     S
C268   C279    1.400   .     A
C269   F309    1.356   .     S
C269   C270    1.391   .     A
C270   C271    1.417   .     A
C270   H839    1.076   .     S
C271   C272    1.421   .     A
C271   C831    1.431   .     S
C272   C276    1.408   .     A
C272   C279    1.415   .     A
C273   C277    1.424   .     A
C273   C829    1.431   1_554 S
C273   C832    1.425   1_554 S
C274   C275    1.392   .     A
C274   C821    1.398   .     S
C274   C831    1.425   .     S
C275   C276    1.382   .     A
C276   H282    1.082   .     S
C277   N306    1.437   .     S
H281   C828    1.076   1_554 S
C283   F310    1.360   .     S
C283   C289    1.402   .     A
C283   C470    1.394   .     S
C284   N299    1.437   .     S
C284   C285    1.412   .     A
C285   C286    1.399   .     A
C286   H287    1.084   .     S
C288   C289    1.400   .     A
C288   F302    1.358   .     S
C288   C472    1.383   .     S
C290   N298    1.368   .     A
C290   H291    1.082   .     S
C290   C354    1.418   .     S
C292   H293    1.081   .     S
C292   N294    1.367   .     A
N294   C295    1.379   .     A
C295   N303    1.428   .     S
C296   N298    1.360   .     A
C296   H297    1.080   .     S
C296   C357    1.415   .     S
N299   O300    1.302   .     A
N299   O301    1.301   .     A
N303   O304    1.300   .     A
N303   O305    1.301   .     A
N306   O308    1.302   .     A
N306   O307    1.302   .     A
O311   Cu317   1.959   .     S
O311   C313    1.291   .     A
O312   C313    1.292   .     A
O312   Cu318   1.961   .     S
C313   C351    1.446   .     S
O314   Cu317   1.965   .     S
O314   C316    1.297   .     A
O315   Cu318   1.954   .     S
O315   C316    1.294   .     A
C316   C341    1.463   .     S
Cu317  Cu318   2.684   .     S
Cu317  O321    1.954   .     S
Cu317  N356    2.017   .     S
Cu317  O319    1.961   .     S
Cu318  O322    1.965   .     S
Cu318  N360    2.017   .     S
Cu318  O320    1.959   .     S
O319   C323    1.293   .     A
O320   C323    1.291   .     A
O321   C324    1.294   .     A
O322   C324    1.299   .     A
C323   C347    1.448   .     S
C324   C329    1.465   .     S
C325   C340    1.384   .     A
C325   H886    1.084   1_554 S
C325   C894    1.398   1_554 S
H326   C340    1.083   .     S
H327   C337    1.084   .     S
H328   C883    1.084   .     S
C329   C339    1.416   .     A
C329   C340    1.396   .     A
C330   C331    1.386   .     A
C330   H342    1.084   .     S
C330   C341    1.400   .     A
C331   F371    1.356   .     S
C331   C332    1.391   .     A
C332   C333    1.417   .     A
C332   H901    1.076   .     S
C333   C334    1.421   .     A
C333   C893    1.431   .     S
C334   C338    1.408   .     A
C334   C341    1.415   .     A
C335   C339    1.424   .     A
C335   C891    1.431   1_554 S
C335   C894    1.425   1_554 S
C336   C337    1.392   .     A
C336   C883    1.398   .     S
C336   C893    1.425   .     S
C337   C338    1.382   .     A
C338   H344    1.082   .     S
C339   N368    1.437   .     S
H343   C890    1.076   1_554 S
C345   F372    1.360   .     S
C345   C351    1.402   .     A
C345   C532    1.394   .     S
C346   N361    1.437   .     S
C346   C347    1.412   .     A
C347   C348    1.399   .     A
C348   H349    1.084   .     S
C350   C351    1.400   .     A
C350   F364    1.358   .     S
C350   C534    1.383   .     S
C352   N360    1.368   .     A
C352   H353    1.082   .     S
C352   C230    1.418   1_655 S
C354   H355    1.081   .     S
C354   N356    1.367   .     A
N356   C357    1.379   .     A
C357   N365    1.428   .     S
C358   N360    1.360   .     A
C358   H359    1.080   .     S
C358   C233    1.415   1_655 S
N361   O362    1.302   .     A
N361   O363    1.301   .     A
N365   O366    1.300   .     A
N365   O367    1.301   .     A
N368   O370    1.302   .     A
N368   O369    1.302   .     A
O373   Cu379   1.959   .     S
O373   C375    1.291   .     A
O374   C375    1.292   .     A
O374   Cu380   1.961   .     S
C375   C413    1.446   .     S
O376   Cu379   1.965   .     S
O376   C378    1.297   .     A
O377   Cu380   1.954   .     S
O377   C378    1.294   .     A
C378   C403    1.463   .     S
Cu379  Cu380   2.684   .     S
Cu379  O383    1.954   .     S
Cu379  N418    2.017   .     S
Cu379  O381    1.961   .     S
Cu380  O384    1.965   .     S
Cu380  N422    2.017   .     S
Cu380  O382    1.959   .     S
O381   C385    1.293   .     A
O382   C385    1.291   .     A
O383   C386    1.294   .     A
O384   C386    1.299   .     A
C385   C409    1.448   .     S
C386   C391    1.465   .     S
C387   C402    1.384   .     A
C387   H948    1.084   1_554 S
C387   C956    1.398   1_554 S
H388   C402    1.083   .     S
H389   C399    1.084   .     S
H390   C945    1.084   .     S
C391   C401    1.416   .     A
C391   C402    1.396   .     A
C392   C393    1.386   .     A
C392   H404    1.084   .     S
C392   C403    1.400   .     A
C393   F433    1.356   .     S
C393   C394    1.391   .     A
C394   C395    1.417   .     A
C394   H963    1.076   .     S
C395   C396    1.421   .     A
C395   C955    1.431   .     S
C396   C400    1.408   .     A
C396   C403    1.415   .     A
C397   C401    1.424   .     A
C397   C953    1.431   1_554 S
C397   C956    1.425   1_554 S
C398   C399    1.392   .     A
C398   C945    1.398   .     S
C398   C955    1.425   .     S
C399   C400    1.382   .     A
C400   H406    1.082   .     S
C401   N430    1.437   .     S
H405   C952    1.076   1_554 S
C407   F434    1.360   .     S
C407   C413    1.402   .     A
C407   C36     1.394   1_565 S
C408   N423    1.437   .     S
C408   C409    1.412   .     A
C409   C410    1.399   .     A
C410   H411    1.084   .     S
C412   C413    1.400   .     A
C412   F426    1.358   .     S
C412   C38     1.383   1_565 S
C414   N422    1.368   .     A
C414   H415    1.082   .     S
C414   C478    1.418   .     S
C416   H417    1.081   .     S
C416   N418    1.367   .     A
C416   C538    1.418   1_455 S
N418   C419    1.379   .     A
C419   N427    1.428   .     S
C419   C544    1.415   1_455 S
C420   N422    1.360   .     A
C420   H421    1.080   .     S
C420   C481    1.415   .     S
N423   O424    1.302   .     A
N423   O425    1.301   .     A
N427   O428    1.300   .     A
N427   O429    1.301   .     A
N430   O432    1.302   .     A
N430   O431    1.302   .     A
O435   Cu441   1.959   .     S
O435   C437    1.291   .     A
O436   C437    1.292   .     A
O436   Cu442   1.961   .     S
C437   C475    1.446   .     S
O438   Cu441   1.965   .     S
O438   C440    1.297   .     A
O439   Cu442   1.954   .     S
O439   C440    1.294   .     A
C440   C465    1.463   .     S
Cu441  Cu442   2.684   .     S
Cu441  O445    1.954   .     S
Cu441  N480    2.017   .     S
Cu441  O443    1.961   .     S
Cu442  O446    1.965   .     S
Cu442  N484    2.017   .     S
Cu442  O444    1.959   .     S
O443   C447    1.293   .     A
O444   C447    1.291   .     A
O445   C448    1.294   .     A
O446   C448    1.299   .     A
C447   C471    1.448   .     S
C448   C453    1.465   .     S
C449   C464    1.384   .     A
C449   H1010   1.084   1_554 S
C449   C1018   1.398   1_554 S
H450   C464    1.083   .     S
H451   C461    1.084   .     S
H452   C1007   1.084   .     S
C453   C463    1.416   .     A
C453   C464    1.396   .     A
C454   C455    1.386   .     A
C454   H466    1.084   .     S
C454   C465    1.400   .     A
C455   F495    1.356   .     S
C455   C456    1.391   .     A
C456   C457    1.417   .     A
C456   H1025   1.076   .     S
C457   C458    1.421   .     A
C457   C1017   1.431   .     S
C458   C462    1.408   .     A
C458   C465    1.415   .     A
C459   C463    1.424   .     A
C459   C1015   1.431   1_554 S
C459   C1018   1.425   1_554 S
C460   C461    1.392   .     A
C460   C1007   1.398   .     S
C460   C1017   1.425   .     S
C461   C462    1.382   .     A
C462   H468    1.082   .     S
C463   N492    1.437   .     S
H467   C1014   1.076   1_554 S
C469   F496    1.360   .     S
C469   C475    1.402   .     A
C469   C98     1.394   1_565 S
C470   N485    1.437   .     S
C470   C471    1.412   .     A
C471   C472    1.399   .     A
C472   H473    1.084   .     S
C474   C475    1.400   .     A
C474   F488    1.358   .     S
C474   C100    1.383   1_565 S
C476   N484    1.368   .     A
C476   H477    1.082   .     S
C476   C540    1.418   .     S
C478   H479    1.081   .     S
C478   N480    1.367   .     A
N480   C481    1.379   .     A
C481   N489    1.428   .     S
C482   N484    1.360   .     A
C482   H483    1.080   .     S
C482   C543    1.415   .     S
N485   O486    1.302   .     A
N485   O487    1.301   .     A
N489   O490    1.300   .     A
N489   O491    1.301   .     A
N492   O494    1.302   .     A
N492   O493    1.302   .     A
O497   Cu503   1.959   .     S
O497   C499    1.291   .     A
O498   C499    1.292   .     A
O498   Cu504   1.961   .     S
C499   C537    1.446   .     S
O500   Cu503   1.965   .     S
O500   C502    1.297   .     A
O501   Cu504   1.954   .     S
O501   C502    1.294   .     A
C502   C527    1.463   .     S
Cu503  Cu504   2.684   .     S
Cu503  O507    1.954   .     S
Cu503  N542    2.017   .     S
Cu503  O505    1.961   .     S
Cu504  O508    1.965   .     S
Cu504  N546    2.017   .     S
Cu504  O506    1.959   .     S
O505   C509    1.293   .     A
O506   C509    1.291   .     A
O507   C510    1.294   .     A
O508   C510    1.299   .     A
C509   C533    1.448   .     S
C510   C515    1.465   .     S
C511   C526    1.384   .     A
C511   H1072   1.084   1_554 S
C511   C1080   1.398   1_554 S
H512   C526    1.083   .     S
H513   C523    1.084   .     S
H514   C1069   1.084   .     S
C515   C525    1.416   .     A
C515   C526    1.396   .     A
C516   C517    1.386   .     A
C516   H528    1.084   .     S
C516   C527    1.400   .     A
C517   F557    1.356   .     S
C517   C518    1.391   .     A
C518   C519    1.417   .     A
C518   H1087   1.076   .     S
C519   C520    1.421   .     A
C519   C1079   1.431   .     S
C520   C524    1.408   .     A
C520   C527    1.415   .     A
C521   C525    1.424   .     A
C521   C1077   1.431   1_554 S
C521   C1080   1.425   1_554 S
C522   C523    1.392   .     A
C522   C1069   1.398   .     S
C522   C1079   1.425   .     S
C523   C524    1.382   .     A
C524   H530    1.082   .     S
C525   N554    1.437   .     S
H529   C1076   1.076   1_554 S
C531   F558    1.360   .     S
C531   C537    1.402   .     A
C531   C160    1.394   1_565 S
C532   N547    1.437   .     S
C532   C533    1.412   .     A
C533   C534    1.399   .     A
C534   H535    1.084   .     S
C536   C537    1.400   .     A
C536   F550    1.358   .     S
C536   C162    1.383   1_565 S
C538   N546    1.368   .     A
C538   H539    1.082   .     S
C538   C416    1.418   1_655 S
C540   H541    1.081   .     S
C540   N542    1.367   .     A
N542   C543    1.379   .     A
C543   N551    1.428   .     S
C544   N546    1.360   .     A
C544   H545    1.080   .     S
C544   C419    1.415   1_655 S
N547   O548    1.302   .     A
N547   O549    1.301   .     A
N551   O552    1.300   .     A
N551   O553    1.301   .     A
N554   O556    1.302   .     A
N554   O555    1.302   .     A
O559   Cu565   1.959   .     S
O559   C561    1.291   .     A
O560   C561    1.292   .     A
O560   Cu566   1.961   .     S
C561   C599    1.446   .     S
O562   Cu565   1.965   .     S
O562   C564    1.297   .     A
O563   Cu566   1.954   .     S
O563   C564    1.294   .     A
C564   C589    1.463   .     S
Cu565  Cu566   2.684   .     S
Cu565  O569    1.954   .     S
Cu565  N604    2.017   .     S
Cu565  O567    1.961   .     S
Cu566  O570    1.965   .     S
Cu566  N608    2.017   .     S
Cu566  O568    1.959   .     S
O567   C571    1.293   .     A
O568   C571    1.291   .     A
O569   C572    1.294   .     A
O570   C572    1.299   .     A
C571   C595    1.448   .     S
C572   C577    1.465   .     S
C573   C588    1.384   .     A
H574   C588    1.083   .     S
H575   C585    1.084   .     S
H576   C15     1.084   1_556 S
C577   C587    1.416   .     A
C577   C588    1.396   .     A
C578   C579    1.386   .     A
C578   H590    1.084   .     S
C578   C589    1.400   .     A
C579   F619    1.356   .     S
C579   C580    1.391   .     A
C580   C581    1.417   .     A
C580   H33     1.076   1_556 S
C581   C582    1.421   .     A
C581   C25     1.431   1_556 S
C582   C586    1.408   .     A
C582   C589    1.415   .     A
C583   C587    1.424   .     A
C584   C585    1.392   .     A
C584   C15     1.398   1_556 S
C584   C25     1.425   1_556 S
C585   C586    1.382   .     A
C586   H592    1.082   .     S
C587   N616    1.437   .     S
C593   F620    1.360   .     S
C593   C599    1.402   .     A
C593   C780    1.394   .     S
C594   N609    1.437   .     S
C594   C595    1.412   .     A
C594   C965    1.394   1_545 S
C595   C596    1.399   .     A
C596   H597    1.084   .     S
C596   C970    1.383   1_545 S
C598   C599    1.400   .     A
C598   F612    1.358   .     S
C598   C782    1.383   .     S
C600   N608    1.368   .     A
C600   H601    1.082   .     S
C600   C664    1.418   .     S
C602   H603    1.081   .     S
C602   N604    1.367   .     A
C602   C724    1.418   1_455 S
N604   C605    1.379   .     A
C605   N613    1.428   .     S
C605   C730    1.415   1_455 S
C606   N608    1.360   .     A
C606   H607    1.080   .     S
C606   C667    1.415   .     S
N609   O610    1.302   .     A
N609   O611    1.301   .     A
N613   O614    1.300   .     A
N613   O615    1.301   .     A
N616   O618    1.302   .     A
N616   O617    1.302   .     A
O621   Cu627   1.959   .     S
O621   C623    1.291   .     A
O622   C623    1.292   .     A
O622   Cu628   1.961   .     S
C623   C661    1.446   .     S
O624   Cu627   1.965   .     S
O624   C626    1.297   .     A
O625   Cu628   1.954   .     S
O625   C626    1.294   .     A
C626   C651    1.463   .     S
Cu627  Cu628   2.684   .     S
Cu627  O631    1.954   .     S
Cu627  N666    2.017   .     S
Cu627  O629    1.961   .     S
Cu628  O632    1.965   .     S
Cu628  N670    2.017   .     S
Cu628  O630    1.959   .     S
O629   C633    1.293   .     A
O630   C633    1.291   .     A
O631   C634    1.294   .     A
O632   C634    1.299   .     A
C633   C657    1.448   .     S
C634   C639    1.465   .     S
C635   C650    1.384   .     A
H636   C650    1.083   .     S
H637   C647    1.084   .     S
H638   C77     1.084   1_556 S
C639   C649    1.416   .     A
C639   C650    1.396   .     A
C640   C641    1.386   .     A
C640   H652    1.084   .     S
C640   C651    1.400   .     A
C641   F681    1.356   .     S
C641   C642    1.391   .     A
C642   C643    1.417   .     A
C642   H95     1.076   1_556 S
C643   C644    1.421   .     A
C643   C87     1.431   1_556 S
C644   C648    1.408   .     A
C644   C651    1.415   .     A
C645   C649    1.424   .     A
C646   C647    1.392   .     A
C646   C77     1.398   1_556 S
C646   C87     1.425   1_556 S
C647   C648    1.382   .     A
C648   H654    1.082   .     S
C649   N678    1.437   .     S
C655   F682    1.360   .     S
C655   C661    1.402   .     A
C655   C842    1.394   .     S
C656   N671    1.437   .     S
C656   C657    1.412   .     A
C656   C1027   1.394   1_545 S
C657   C658    1.399   .     A
C658   H659    1.084   .     S
C658   C1032   1.383   1_545 S
C660   C661    1.400   .     A
C660   F674    1.358   .     S
C660   C844    1.383   .     S
C662   N670    1.368   .     A
C662   H663    1.082   .     S
C662   C726    1.418   .     S
C664   H665    1.081   .     S
C664   N666    1.367   .     A
N666   C667    1.379   .     A
C667   N675    1.428   .     S
C668   N670    1.360   .     A
C668   H669    1.080   .     S
C668   C729    1.415   .     S
N671   O672    1.302   .     A
N671   O673    1.301   .     A
N675   O676    1.300   .     A
N675   O677    1.301   .     A
N678   O680    1.302   .     A
N678   O679    1.302   .     A
O683   Cu689   1.959   .     S
O683   C685    1.291   .     A
O684   C685    1.292   .     A
O684   Cu690   1.961   .     S
C685   C723    1.446   .     S
O686   Cu689   1.965   .     S
O686   C688    1.297   .     A
O687   Cu690   1.954   .     S
O687   C688    1.294   .     A
C688   C713    1.463   .     S
Cu689  Cu690   2.684   .     S
Cu689  O693    1.954   .     S
Cu689  N728    2.017   .     S
Cu689  O691    1.961   .     S
Cu690  O694    1.965   .     S
Cu690  N732    2.017   .     S
Cu690  O692    1.959   .     S
O691   C695    1.293   .     A
O692   C695    1.291   .     A
O693   C696    1.294   .     A
O694   C696    1.299   .     A
C695   C719    1.448   .     S
C696   C701    1.465   .     S
C697   C712    1.384   .     A
H698   C712    1.083   .     S
H699   C709    1.084   .     S
H700   C139    1.084   1_556 S
C701   C711    1.416   .     A
C701   C712    1.396   .     A
C702   C703    1.386   .     A
C702   H714    1.084   .     S
C702   C713    1.400   .     A
C703   F743    1.356   .     S
C703   C704    1.391   .     A
C704   C705    1.417   .     A
C704   H157    1.076   1_556 S
C705   C706    1.421   .     A
C705   C149    1.431   1_556 S
C706   C710    1.408   .     A
C706   C713    1.415   .     A
C707   C711    1.424   .     A
C708   C709    1.392   .     A
C708   C139    1.398   1_556 S
C708   C149    1.425   1_556 S
C709   C710    1.382   .     A
C710   H716    1.082   .     S
C711   N740    1.437   .     S
C717   F744    1.360   .     S
C717   C723    1.402   .     A
C717   C904    1.394   .     S
C718   N733    1.437   .     S
C718   C719    1.412   .     A
C718   C1089   1.394   1_545 S
C719   C720    1.399   .     A
C720   H721    1.084   .     S
C720   C1094   1.383   1_545 S
C722   C723    1.400   .     A
C722   F736    1.358   .     S
C722   C906    1.383   .     S
C724   N732    1.368   .     A
C724   H725    1.082   .     S
C724   C602    1.418   1_655 S
C726   H727    1.081   .     S
C726   N728    1.367   .     A
N728   C729    1.379   .     A
C729   N737    1.428   .     S
C730   N732    1.360   .     A
C730   H731    1.080   .     S
C730   C605    1.415   1_655 S
N733   O734    1.302   .     A
N733   O735    1.301   .     A
N737   O738    1.300   .     A
N737   O739    1.301   .     A
N740   O742    1.302   .     A
N740   O741    1.302   .     A
O745   Cu751   1.959   .     S
O745   C747    1.291   .     A
O746   C747    1.292   .     A
O746   Cu752   1.961   .     S
C747   C785    1.446   .     S
O748   Cu751   1.965   .     S
O748   C750    1.297   .     A
O749   Cu752   1.954   .     S
O749   C750    1.294   .     A
C750   C775    1.463   .     S
Cu751  Cu752   2.684   .     S
Cu751  O755    1.954   .     S
Cu751  N790    2.017   .     S
Cu751  O753    1.961   .     S
Cu752  O756    1.965   .     S
Cu752  N794    2.017   .     S
Cu752  O754    1.959   .     S
O753   C757    1.293   .     A
O754   C757    1.291   .     A
O755   C758    1.294   .     A
O756   C758    1.299   .     A
C757   C781    1.448   .     S
C758   C763    1.465   .     S
C759   C774    1.384   .     A
H760   C774    1.083   .     S
H761   C771    1.084   .     S
H762   C201    1.084   1_556 S
C763   C773    1.416   .     A
C763   C774    1.396   .     A
C764   C765    1.386   .     A
C764   H776    1.084   .     S
C764   C775    1.400   .     A
C765   F805    1.356   .     S
C765   C766    1.391   .     A
C766   C767    1.417   .     A
C766   H219    1.076   1_556 S
C767   C768    1.421   .     A
C767   C211    1.431   1_556 S
C768   C772    1.408   .     A
C768   C775    1.415   .     A
C769   C773    1.424   .     A
C770   C771    1.392   .     A
C770   C201    1.398   1_556 S
C770   C211    1.425   1_556 S
C771   C772    1.382   .     A
C772   H778    1.082   .     S
C773   N802    1.437   .     S
C779   F806    1.360   .     S
C779   C785    1.402   .     A
C779   C966    1.394   .     S
C780   N795    1.437   .     S
C780   C781    1.412   .     A
C781   C782    1.399   .     A
C782   H783    1.084   .     S
C784   C785    1.400   .     A
C784   F798    1.358   .     S
C784   C968    1.383   .     S
C786   N794    1.368   .     A
C786   H787    1.082   .     S
C786   C850    1.418   .     S
C788   H789    1.081   .     S
C788   N790    1.367   .     A
C788   C910    1.418   1_455 S
N790   C791    1.379   .     A
C791   N799    1.428   .     S
C791   C916    1.415   1_455 S
C792   N794    1.360   .     A
C792   H793    1.080   .     S
C792   C853    1.415   .     S
N795   O796    1.302   .     A
N795   O797    1.301   .     A
N799   O800    1.300   .     A
N799   O801    1.301   .     A
N802   O804    1.302   .     A
N802   O803    1.302   .     A
O807   Cu813   1.959   .     S
O807   C809    1.291   .     A
O808   C809    1.292   .     A
O808   Cu814   1.961   .     S
C809   C847    1.446   .     S
O810   Cu813   1.965   .     S
O810   C812    1.297   .     A
O811   Cu814   1.954   .     S
O811   C812    1.294   .     A
C812   C837    1.463   .     S
Cu813  Cu814   2.684   .     S
Cu813  O817    1.954   .     S
Cu813  N852    2.017   .     S
Cu813  O815    1.961   .     S
Cu814  O818    1.965   .     S
Cu814  N856    2.017   .     S
Cu814  O816    1.959   .     S
O815   C819    1.293   .     A
O816   C819    1.291   .     A
O817   C820    1.294   .     A
O818   C820    1.299   .     A
C819   C843    1.448   .     S
C820   C825    1.465   .     S
C821   C836    1.384   .     A
H822   C836    1.083   .     S
H823   C833    1.084   .     S
H824   C263    1.084   1_556 S
C825   C835    1.416   .     A
C825   C836    1.396   .     A
C826   C827    1.386   .     A
C826   H838    1.084   .     S
C826   C837    1.400   .     A
C827   F867    1.356   .     S
C827   C828    1.391   .     A
C828   C829    1.417   .     A
C828   H281    1.076   1_556 S
C829   C830    1.421   .     A
C829   C273    1.431   1_556 S
C830   C834    1.408   .     A
C830   C837    1.415   .     A
C831   C835    1.424   .     A
C832   C833    1.392   .     A
C832   C263    1.398   1_556 S
C832   C273    1.425   1_556 S
C833   C834    1.382   .     A
C834   H840    1.082   .     S
C835   N864    1.437   .     S
C841   F868    1.360   .     S
C841   C847    1.402   .     A
C841   C1028   1.394   .     S
C842   N857    1.437   .     S
C842   C843    1.412   .     A
C843   C844    1.399   .     A
C844   H845    1.084   .     S
C846   C847    1.400   .     A
C846   F860    1.358   .     S
C846   C1030   1.383   .     S
C848   N856    1.368   .     A
C848   H849    1.082   .     S
C848   C912    1.418   .     S
C850   H851    1.081   .     S
C850   N852    1.367   .     A
N852   C853    1.379   .     A
C853   N861    1.428   .     S
C854   N856    1.360   .     A
C854   H855    1.080   .     S
C854   C915    1.415   .     S
N857   O858    1.302   .     A
N857   O859    1.301   .     A
N861   O862    1.300   .     A
N861   O863    1.301   .     A
N864   O866    1.302   .     A
N864   O865    1.302   .     A
O869   Cu875   1.959   .     S
O869   C871    1.291   .     A
O870   C871    1.292   .     A
O870   Cu876   1.961   .     S
C871   C909    1.446   .     S
O872   Cu875   1.965   .     S
O872   C874    1.297   .     A
O873   Cu876   1.954   .     S
O873   C874    1.294   .     A
C874   C899    1.463   .     S
Cu875  Cu876   2.684   .     S
Cu875  O879    1.954   .     S
Cu875  N914    2.017   .     S
Cu875  O877    1.961   .     S
Cu876  O880    1.965   .     S
Cu876  N918    2.017   .     S
Cu876  O878    1.959   .     S
O877   C881    1.293   .     A
O878   C881    1.291   .     A
O879   C882    1.294   .     A
O880   C882    1.299   .     A
C881   C905    1.448   .     S
C882   C887    1.465   .     S
C883   C898    1.384   .     A
H884   C898    1.083   .     S
H885   C895    1.084   .     S
H886   C325    1.084   1_556 S
C887   C897    1.416   .     A
C887   C898    1.396   .     A
C888   C889    1.386   .     A
C888   H900    1.084   .     S
C888   C899    1.400   .     A
C889   F929    1.356   .     S
C889   C890    1.391   .     A
C890   C891    1.417   .     A
C890   H343    1.076   1_556 S
C891   C892    1.421   .     A
C891   C335    1.431   1_556 S
C892   C896    1.408   .     A
C892   C899    1.415   .     A
C893   C897    1.424   .     A
C894   C895    1.392   .     A
C894   C325    1.398   1_556 S
C894   C335    1.425   1_556 S
C895   C896    1.382   .     A
C896   H902    1.082   .     S
C897   N926    1.437   .     S
C903   F930    1.360   .     S
C903   C909    1.402   .     A
C903   C1090   1.394   .     S
C904   N919    1.437   .     S
C904   C905    1.412   .     A
C905   C906    1.399   .     A
C906   H907    1.084   .     S
C908   C909    1.400   .     A
C908   F922    1.358   .     S
C908   C1092   1.383   .     S
C910   N918    1.368   .     A
C910   H911    1.082   .     S
C910   C788    1.418   1_655 S
C912   H913    1.081   .     S
C912   N914    1.367   .     A
N914   C915    1.379   .     A
C915   N923    1.428   .     S
C916   N918    1.360   .     A
C916   H917    1.080   .     S
C916   C791    1.415   1_655 S
N919   O920    1.302   .     A
N919   O921    1.301   .     A
N923   O924    1.300   .     A
N923   O925    1.301   .     A
N926   O928    1.302   .     A
N926   O927    1.302   .     A
O931   Cu937   1.959   .     S
O931   C933    1.291   .     A
O932   C933    1.292   .     A
O932   Cu938   1.961   .     S
C933   C971    1.446   .     S
O934   Cu937   1.965   .     S
O934   C936    1.297   .     A
O935   Cu938   1.954   .     S
O935   C936    1.294   .     A
C936   C961    1.463   .     S
Cu937  Cu938   2.684   .     S
Cu937  O941    1.954   .     S
Cu937  N976    2.017   .     S
Cu937  O939    1.961   .     S
Cu938  O942    1.965   .     S
Cu938  N980    2.017   .     S
Cu938  O940    1.959   .     S
O939   C943    1.293   .     A
O940   C943    1.291   .     A
O941   C944    1.294   .     A
O942   C944    1.299   .     A
C943   C967    1.448   .     S
C944   C949    1.465   .     S
C945   C960    1.384   .     A
H946   C960    1.083   .     S
H947   C957    1.084   .     S
H948   C387    1.084   1_556 S
C949   C959    1.416   .     A
C949   C960    1.396   .     A
C950   C951    1.386   .     A
C950   H962    1.084   .     S
C950   C961    1.400   .     A
C951   F991    1.356   .     S
C951   C952    1.391   .     A
C952   C953    1.417   .     A
C952   H405    1.076   1_556 S
C953   C954    1.421   .     A
C953   C397    1.431   1_556 S
C954   C958    1.408   .     A
C954   C961    1.415   .     A
C955   C959    1.424   .     A
C956   C957    1.392   .     A
C956   C387    1.398   1_556 S
C956   C397    1.425   1_556 S
C957   C958    1.382   .     A
C958   H964    1.082   .     S
C959   N988    1.437   .     S
C965   F992    1.360   .     S
C965   C971    1.402   .     A
C965   C594    1.394   1_565 S
C966   N981    1.437   .     S
C966   C967    1.412   .     A
C967   C968    1.399   .     A
C968   H969    1.084   .     S
C970   C971    1.400   .     A
C970   F984    1.358   .     S
C970   C596    1.383   1_565 S
C972   N980    1.368   .     A
C972   H973    1.082   .     S
C972   C1036   1.418   .     S
C974   H975    1.081   .     S
C974   N976    1.367   .     A
C974   C1096   1.418   1_455 S
N976   C977    1.379   .     A
C977   N985    1.428   .     S
C977   C1102   1.415   1_455 S
C978   N980    1.360   .     A
C978   H979    1.080   .     S
C978   C1039   1.415   .     S
N981   O982    1.302   .     A
N981   O983    1.301   .     A
N985   O986    1.300   .     A
N985   O987    1.301   .     A
N988   O990    1.302   .     A
N988   O989    1.302   .     A
O993   Cu999   1.959   .     S
O993   C995    1.291   .     A
O994   C995    1.292   .     A
O994   Cu1000  1.961   .     S
C995   C1033   1.446   .     S
O996   Cu999   1.965   .     S
O996   C998    1.297   .     A
O997   Cu1000  1.954   .     S
O997   C998    1.294   .     A
C998   C1023   1.463   .     S
Cu999  Cu1000  2.684   .     S
Cu999  O1003   1.954   .     S
Cu999  N1038   2.017   .     S
Cu999  O1001   1.961   .     S
Cu1000 O1004   1.965   .     S
Cu1000 N1042   2.017   .     S
Cu1000 O1002   1.959   .     S
O1001  C1005   1.293   .     A
O1002  C1005   1.291   .     A
O1003  C1006   1.294   .     A
O1004  C1006   1.299   .     A
C1005  C1029   1.448   .     S
C1006  C1011   1.465   .     S
C1007  C1022   1.384   .     A
H1008  C1022   1.083   .     S
H1009  C1019   1.084   .     S
H1010  C449    1.084   1_556 S
C1011  C1021   1.416   .     A
C1011  C1022   1.396   .     A
C1012  C1013   1.386   .     A
C1012  H1024   1.084   .     S
C1012  C1023   1.400   .     A
C1013  F1053   1.356   .     S
C1013  C1014   1.391   .     A
C1014  C1015   1.417   .     A
C1014  H467    1.076   1_556 S
C1015  C1016   1.421   .     A
C1015  C459    1.431   1_556 S
C1016  C1020   1.408   .     A
C1016  C1023   1.415   .     A
C1017  C1021   1.424   .     A
C1018  C1019   1.392   .     A
C1018  C449    1.398   1_556 S
C1018  C459    1.425   1_556 S
C1019  C1020   1.382   .     A
C1020  H1026   1.082   .     S
C1021  N1050   1.437   .     S
C1027  F1054   1.360   .     S
C1027  C1033   1.402   .     A
C1027  C656    1.394   1_565 S
C1028  N1043   1.437   .     S
C1028  C1029   1.412   .     A
C1029  C1030   1.399   .     A
C1030  H1031   1.084   .     S
C1032  C1033   1.400   .     A
C1032  F1046   1.358   .     S
C1032  C658    1.383   1_565 S
C1034  N1042   1.368   .     A
C1034  H1035   1.082   .     S
C1034  C1098   1.418   .     S
C1036  H1037   1.081   .     S
C1036  N1038   1.367   .     A
N1038  C1039   1.379   .     A
C1039  N1047   1.428   .     S
C1040  N1042   1.360   .     A
C1040  H1041   1.080   .     S
C1040  C1101   1.415   .     S
N1043  O1044   1.302   .     A
N1043  O1045   1.301   .     A
N1047  O1048   1.300   .     A
N1047  O1049   1.301   .     A
N1050  O1052   1.302   .     A
N1050  O1051   1.302   .     A
O1055  Cu1061  1.959   .     S
O1055  C1057   1.291   .     A
O1056  C1057   1.292   .     A
O1056  Cu1062  1.961   .     S
C1057  C1095   1.446   .     S
O1058  Cu1061  1.965   .     S
O1058  C1060   1.297   .     A
O1059  Cu1062  1.954   .     S
O1059  C1060   1.294   .     A
C1060  C1085   1.463   .     S
Cu1061 Cu1062  2.684   .     S
Cu1061 O1065   1.954   .     S
Cu1061 N1100   2.017   .     S
Cu1061 O1063   1.961   .     S
Cu1062 O1066   1.965   .     S
Cu1062 N1104   2.017   .     S
Cu1062 O1064   1.959   .     S
O1063  C1067   1.293   .     A
O1064  C1067   1.291   .     A
O1065  C1068   1.294   .     A
O1066  C1068   1.299   .     A
C1067  C1091   1.448   .     S
C1068  C1073   1.465   .     S
C1069  C1084   1.384   .     A
H1070  C1084   1.083   .     S
H1071  C1081   1.084   .     S
H1072  C511    1.084   1_556 S
C1073  C1083   1.416   .     A
C1073  C1084   1.396   .     A
C1074  C1075   1.386   .     A
C1074  H1086   1.084   .     S
C1074  C1085   1.400   .     A
C1075  F1115   1.356   .     S
C1075  C1076   1.391   .     A
C1076  C1077   1.417   .     A
C1076  H529    1.076   1_556 S
C1077  C1078   1.421   .     A
C1077  C521    1.431   1_556 S
C1078  C1082   1.408   .     A
C1078  C1085   1.415   .     A
C1079  C1083   1.424   .     A
C1080  C1081   1.392   .     A
C1080  C511    1.398   1_556 S
C1080  C521    1.425   1_556 S
C1081  C1082   1.382   .     A
C1082  H1088   1.082   .     S
C1083  N1112   1.437   .     S
C1089  F1116   1.360   .     S
C1089  C1095   1.402   .     A
C1089  C718    1.394   1_565 S
C1090  N1105   1.437   .     S
C1090  C1091   1.412   .     A
C1091  C1092   1.399   .     A
C1092  H1093   1.084   .     S
C1094  C1095   1.400   .     A
C1094  F1108   1.358   .     S
C1094  C720    1.383   1_565 S
C1096  N1104   1.368   .     A
C1096  H1097   1.082   .     S
C1096  C974    1.418   1_655 S
C1098  H1099   1.081   .     S
C1098  N1100   1.367   .     A
N1100  C1101   1.379   .     A
C1101  N1109   1.428   .     S
C1102  N1104   1.360   .     A
C1102  H1103   1.080   .     S
C1102  C977    1.415   1_655 S
N1105  O1106   1.302   .     A
N1105  O1107   1.301   .     A
N1109  O1110   1.300   .     A
N1109  O1111   1.301   .     A
N1112  O1114   1.302   .     A
N1112  O1113   1.302   .     A
