data_str_m2_o10_o17_pcu_sym.99
_audit_creation_date              2020-01-03
_audit_creation_method            'Materials Studio'
_symmetry_space_group_name_H-M    'P1'
_symmetry_Int_Tables_number       1
_symmetry_cell_setting            triclinic
loop_
_symmetry_equiv_pos_as_xyz
  x,y,z
_cell_length_a                    29.9893
_cell_length_b                    26.2984
_cell_length_c                    22.5149
_cell_angle_alpha                 102.8417
_cell_angle_beta                  94.3067
_cell_angle_gamma                 93.0487
loop_
_atom_site_label
_atom_site_type_symbol
_atom_site_fract_x
_atom_site_fract_y
_atom_site_fract_z
_atom_site_U_iso_or_equiv
_atom_site_adp_type
_atom_site_occupancy
C1     C     0.24669   0.06658   0.15141   0.00000  Uiso   1.00
C2     C     0.25292   0.26654   0.18199   0.00000  Uiso   1.00
C3     C     0.01543   0.06854   0.13546   0.00000  Uiso   1.00
C4     C     0.48547   0.26199   0.19870   0.00000  Uiso   1.00
C5     C     0.24047   0.01034   0.14475   0.00000  Uiso   1.00
C6     C     0.25932   0.32247   0.18920   0.00000  Uiso   1.00
C7     C     0.16475   0.16567   0.16726   0.00000  Uiso   1.00
C8     C     0.33538   0.16607   0.16576   0.00000  Uiso   1.00
C9     C     0.41007   0.21534   0.17757   0.00000  Uiso   1.00
C10    C     0.09071   0.11505   0.15486   0.00000  Uiso   1.00
C11    C     0.38370   0.16738   0.16369   0.00000  Uiso   1.00
C12    C     0.11673   0.16324   0.16855   0.00000  Uiso   1.00
C13    C     0.40330   0.11991   0.14860   0.00000  Uiso   1.00
C14    C     0.09696   0.21043   0.18131   0.00000  Uiso   1.00
C15    C     0.44958   0.11889   0.14780   0.00000  Uiso   1.00
C16    C     0.05083   0.21128   0.18095   0.00000  Uiso   1.00
C17    C     0.47682   0.16609   0.16422   0.00000  Uiso   1.00
C18    C     0.02365   0.16423   0.16508   0.00000  Uiso   1.00
C19    C     0.45731   0.21495   0.18035   0.00000  Uiso   1.00
C20    C     0.04344   0.11547   0.15134   0.00000  Uiso   1.00
C21    C     0.46889   0.07092   0.13337   0.00000  Uiso   1.00
C22    C     0.03204   0.25910   0.19668   0.00000  Uiso   1.00
Cu23   Cu    0.25501   0.17246   0.22813   0.00000  Uiso   1.00
Cu24   Cu    0.24500   0.16087   0.10521   0.00000  Uiso   1.00
H25    H     0.38224   0.08361   0.13772   0.00000  Uiso   1.00
H26    H     0.11783   0.24678   0.19140   0.00000  Uiso   1.00
H27    H     0.44774   0.03485   0.12398   0.00000  Uiso   1.00
H28    H     0.05430   0.29426   0.20791   0.00000  Uiso   1.00
H29    H     0.21443   0.12654   0.31650   0.00000  Uiso   1.00
H30    H     0.28529   0.20722   0.01688   0.00000  Uiso   1.00
N31    N     0.23745   0.15214   0.01284   0.00000  Uiso   1.00
N32    N     0.26256   0.18119   0.32049   0.00000  Uiso   1.00
O33    O     0.25326   0.09538   0.20659   0.00000  Uiso   1.00
O34    O     0.24675   0.23796   0.12674   0.00000  Uiso   1.00
O35    O     0.24480   0.08559   0.10279   0.00000  Uiso   1.00
O36    O     0.25520   0.24774   0.23055   0.00000  Uiso   1.00
O37    O     0.18936   0.17155   0.21857   0.00000  Uiso   1.00
O38    O     0.31065   0.16179   0.11476   0.00000  Uiso   1.00
O39    O     0.18090   0.16176   0.11477   0.00000  Uiso   1.00
O40    O     0.31910   0.17157   0.21857   0.00000  Uiso   1.00
O41    O     0.39053   0.26257   0.18821   0.00000  Uiso   1.00
H42    H     0.35941   0.25756   0.16885   0.00000  Uiso   1.00
O43    O     0.11033   0.06774   0.14381   0.00000  Uiso   1.00
H44    H     0.14290   0.07294   0.15605   0.00000  Uiso   1.00
O45    O     0.03297   0.02115   0.13670   0.00000  Uiso   1.00
C46    C     0.03759   0.32484   0.07766   0.00000  Uiso   1.00
H47    H     0.06661   0.30094   0.08208   0.00000  Uiso   1.00
H48    H     0.04710   0.01629   0.04595   0.00000  Uiso   1.00
C49    C     0.49552   0.28791   0.05317   0.00000  Uiso   1.00
H50    H     0.47864   0.27717   0.09089   0.00000  Uiso   1.00
H51    H     0.47053   0.30765   0.02940   0.00000  Uiso   1.00
C52    C     0.00711   0.23766   0.01073   0.00000  Uiso   1.00
H53    H     0.03051   0.24620   0.31124   0.00000  Uiso   1.00
H54    H     0.47603   0.21655   0.31844   0.00000  Uiso   1.00
H55    H     0.02360   0.21248   0.03810   0.00000  Uiso   1.00
O56    O     0.46632   0.31004   0.21202   0.00000  Uiso   1.00
C57    C     0.49224   0.01489   0.25755   0.00000  Uiso   1.00
H58    H     0.01894   0.03450   0.23808   0.00000  Uiso   1.00
H59    H     0.00894   0.33083   0.29235   0.00000  Uiso   1.00
C60    C     0.46225   0.05616   0.28764   0.00000  Uiso   1.00
H61    H     0.43888   0.06598   0.25199   0.00000  Uiso   1.00
H62    H     0.44273   0.04035   0.31999   0.00000  Uiso   1.00
C63    C     0.48942   0.10581   0.32227   0.00000  Uiso   1.00
H64    H     0.01601   0.09672   0.02111   0.00000  Uiso   1.00
H65    H     0.46684   0.13258   0.01531   0.00000  Uiso   1.00
H66    H     0.00530   0.12545   0.28949   0.00000  Uiso   1.00
O67    O     0.20591   0.31463   0.10422   0.00000  Uiso   1.00
C68    C     0.21007   0.31559   0.04234   0.00000  Uiso   1.00
H69    H     0.21001   0.27441   0.01627   0.00000  Uiso   1.00
H70    H     0.24192   0.00195   0.03375   0.00000  Uiso   1.00
C71    C     0.16898   0.00608   0.01782   0.00000  Uiso   1.00
H72    H     0.13817   0.31603   0.02323   0.00000  Uiso   1.00
H73    H     0.16700   0.04668   0.04456   0.00000  Uiso   1.00
C74    C     0.17037   0.00680   0.28384   0.00000  Uiso   1.00
H75    H     0.19814   0.03434   0.27823   0.00000  Uiso   1.00
H76    H     0.13836   0.01992   0.26641   0.00000  Uiso   1.00
H77    H     0.17524   0.30050   0.25656   0.00000  Uiso   1.00
O78    O     0.27877   0.02024   0.24444   0.00000  Uiso   1.00
C79    C     0.32313   0.00781   0.25733   0.00000  Uiso   1.00
H80    H     0.34457   0.01534   0.22145   0.00000  Uiso   1.00
H81    H     0.32470   0.29977   0.26045   0.00000  Uiso   1.00
C82    C     0.34167   0.04117   0.31976   0.00000  Uiso   1.00
H83    H     0.31701   0.03957   0.02054   0.00000  Uiso   1.00
H84    H     0.37237   0.02474   0.00242   0.00000  Uiso   1.00
C85    C     0.35218   0.09797   0.31718   0.00000  Uiso   1.00
H86    H     0.32069   0.11573   0.30783   0.00000  Uiso   1.00
H87    H     0.37410   0.10094   0.28048   0.00000  Uiso   1.00
H88    H     0.36916   0.12021   0.02811   0.00000  Uiso   1.00
C89    C     0.74669   0.06658   0.15141   0.00000  Uiso   1.00
C90    C     0.75292   0.26654   0.18199   0.00000  Uiso   1.00
C91    C     0.51543   0.06854   0.13546   0.00000  Uiso   1.00
C92    C     0.98547   0.26199   0.19870   0.00000  Uiso   1.00
C93    C     0.74047   0.01034   0.14475   0.00000  Uiso   1.00
C94    C     0.75932   0.32247   0.18920   0.00000  Uiso   1.00
C95    C     0.66475   0.16567   0.16726   0.00000  Uiso   1.00
C96    C     0.83538   0.16607   0.16576   0.00000  Uiso   1.00
C97    C     0.91007   0.21534   0.17757   0.00000  Uiso   1.00
C98    C     0.59071   0.11505   0.15486   0.00000  Uiso   1.00
C99    C     0.88370   0.16738   0.16369   0.00000  Uiso   1.00
C100   C     0.61673   0.16324   0.16855   0.00000  Uiso   1.00
C101   C     0.90330   0.11991   0.14860   0.00000  Uiso   1.00
C102   C     0.59696   0.21043   0.18131   0.00000  Uiso   1.00
C103   C     0.94958   0.11889   0.14780   0.00000  Uiso   1.00
C104   C     0.55083   0.21128   0.18095   0.00000  Uiso   1.00
C105   C     0.97682   0.16609   0.16422   0.00000  Uiso   1.00
C106   C     0.52365   0.16423   0.16508   0.00000  Uiso   1.00
C107   C     0.95731   0.21495   0.18035   0.00000  Uiso   1.00
C108   C     0.54344   0.11547   0.15134   0.00000  Uiso   1.00
C109   C     0.96889   0.07092   0.13337   0.00000  Uiso   1.00
C110   C     0.53204   0.25910   0.19668   0.00000  Uiso   1.00
Cu111  Cu    0.75501   0.17246   0.22813   0.00000  Uiso   1.00
Cu112  Cu    0.74500   0.16087   0.10521   0.00000  Uiso   1.00
H113   H     0.88224   0.08361   0.13772   0.00000  Uiso   1.00
H114   H     0.61783   0.24678   0.19140   0.00000  Uiso   1.00
H115   H     0.94774   0.03485   0.12398   0.00000  Uiso   1.00
H116   H     0.55430   0.29426   0.20791   0.00000  Uiso   1.00
H117   H     0.71443   0.12654   0.31650   0.00000  Uiso   1.00
H118   H     0.78529   0.20722   0.01688   0.00000  Uiso   1.00
N119   N     0.73745   0.15214   0.01284   0.00000  Uiso   1.00
N120   N     0.76256   0.18119   0.32049   0.00000  Uiso   1.00
O121   O     0.75326   0.09538   0.20659   0.00000  Uiso   1.00
O122   O     0.74675   0.23796   0.12674   0.00000  Uiso   1.00
O123   O     0.74480   0.08559   0.10279   0.00000  Uiso   1.00
O124   O     0.75520   0.24774   0.23055   0.00000  Uiso   1.00
O125   O     0.68936   0.17155   0.21857   0.00000  Uiso   1.00
O126   O     0.81065   0.16179   0.11476   0.00000  Uiso   1.00
O127   O     0.68090   0.16176   0.11477   0.00000  Uiso   1.00
O128   O     0.81910   0.17157   0.21857   0.00000  Uiso   1.00
O129   O     0.89053   0.26257   0.18821   0.00000  Uiso   1.00
H130   H     0.85941   0.25756   0.16885   0.00000  Uiso   1.00
O131   O     0.61033   0.06774   0.14381   0.00000  Uiso   1.00
H132   H     0.64290   0.07294   0.15605   0.00000  Uiso   1.00
O133   O     0.53297   0.02115   0.13670   0.00000  Uiso   1.00
C134   C     0.53759   0.32484   0.07766   0.00000  Uiso   1.00
H135   H     0.56661   0.30094   0.08208   0.00000  Uiso   1.00
H136   H     0.54710   0.01629   0.04595   0.00000  Uiso   1.00
C137   C     0.99552   0.28791   0.05317   0.00000  Uiso   1.00
H138   H     0.97864   0.27717   0.09089   0.00000  Uiso   1.00
H139   H     0.97053   0.30765   0.02940   0.00000  Uiso   1.00
C140   C     0.50711   0.23766   0.01073   0.00000  Uiso   1.00
H141   H     0.53051   0.24620   0.31124   0.00000  Uiso   1.00
H142   H     0.97603   0.21655   0.31844   0.00000  Uiso   1.00
H143   H     0.52360   0.21248   0.03810   0.00000  Uiso   1.00
O144   O     0.96632   0.31004   0.21202   0.00000  Uiso   1.00
C145   C     0.99224   0.01489   0.25755   0.00000  Uiso   1.00
H146   H     0.51894   0.03450   0.23808   0.00000  Uiso   1.00
H147   H     0.50894   0.33083   0.29235   0.00000  Uiso   1.00
C148   C     0.96225   0.05616   0.28764   0.00000  Uiso   1.00
H149   H     0.93888   0.06598   0.25199   0.00000  Uiso   1.00
H150   H     0.94273   0.04035   0.31999   0.00000  Uiso   1.00
C151   C     0.98942   0.10581   0.32227   0.00000  Uiso   1.00
H152   H     0.51601   0.09672   0.02111   0.00000  Uiso   1.00
H153   H     0.96684   0.13258   0.01531   0.00000  Uiso   1.00
H154   H     0.50530   0.12545   0.28949   0.00000  Uiso   1.00
O155   O     0.70591   0.31463   0.10422   0.00000  Uiso   1.00
C156   C     0.71007   0.31559   0.04234   0.00000  Uiso   1.00
H157   H     0.71001   0.27441   0.01627   0.00000  Uiso   1.00
H158   H     0.74192   0.00195   0.03375   0.00000  Uiso   1.00
C159   C     0.66898   0.00608   0.01782   0.00000  Uiso   1.00
H160   H     0.63817   0.31603   0.02323   0.00000  Uiso   1.00
H161   H     0.66700   0.04668   0.04456   0.00000  Uiso   1.00
C162   C     0.67037   0.00680   0.28384   0.00000  Uiso   1.00
H163   H     0.69814   0.03434   0.27823   0.00000  Uiso   1.00
H164   H     0.63836   0.01992   0.26641   0.00000  Uiso   1.00
H165   H     0.67524   0.30050   0.25656   0.00000  Uiso   1.00
O166   O     0.77877   0.02024   0.24444   0.00000  Uiso   1.00
C167   C     0.82313   0.00781   0.25733   0.00000  Uiso   1.00
H168   H     0.84457   0.01534   0.22145   0.00000  Uiso   1.00
H169   H     0.82470   0.29977   0.26045   0.00000  Uiso   1.00
C170   C     0.84167   0.04117   0.31976   0.00000  Uiso   1.00
H171   H     0.81701   0.03957   0.02054   0.00000  Uiso   1.00
H172   H     0.87237   0.02474   0.00242   0.00000  Uiso   1.00
C173   C     0.85218   0.09797   0.31718   0.00000  Uiso   1.00
H174   H     0.82069   0.11573   0.30783   0.00000  Uiso   1.00
H175   H     0.87410   0.10094   0.28048   0.00000  Uiso   1.00
H176   H     0.86916   0.12021   0.02811   0.00000  Uiso   1.00
C177   C     0.24669   0.39991   0.15141   0.00000  Uiso   1.00
C178   C     0.25292   0.59987   0.18199   0.00000  Uiso   1.00
C179   C     0.01543   0.40187   0.13546   0.00000  Uiso   1.00
C180   C     0.48547   0.59533   0.19870   0.00000  Uiso   1.00
C181   C     0.24047   0.34367   0.14475   0.00000  Uiso   1.00
C182   C     0.25932   0.65581   0.18920   0.00000  Uiso   1.00
C183   C     0.16475   0.49900   0.16726   0.00000  Uiso   1.00
C184   C     0.33538   0.49941   0.16576   0.00000  Uiso   1.00
C185   C     0.41007   0.54867   0.17757   0.00000  Uiso   1.00
C186   C     0.09071   0.44839   0.15486   0.00000  Uiso   1.00
C187   C     0.38370   0.50071   0.16369   0.00000  Uiso   1.00
C188   C     0.11673   0.49658   0.16855   0.00000  Uiso   1.00
C189   C     0.40330   0.45324   0.14860   0.00000  Uiso   1.00
C190   C     0.09696   0.54376   0.18131   0.00000  Uiso   1.00
C191   C     0.44958   0.45222   0.14780   0.00000  Uiso   1.00
C192   C     0.05083   0.54461   0.18095   0.00000  Uiso   1.00
C193   C     0.47682   0.49942   0.16422   0.00000  Uiso   1.00
C194   C     0.02365   0.49757   0.16508   0.00000  Uiso   1.00
C195   C     0.45731   0.54829   0.18035   0.00000  Uiso   1.00
C196   C     0.04344   0.44880   0.15134   0.00000  Uiso   1.00
C197   C     0.46889   0.40425   0.13337   0.00000  Uiso   1.00
C198   C     0.03204   0.59243   0.19668   0.00000  Uiso   1.00
Cu199  Cu    0.25501   0.50579   0.22813   0.00000  Uiso   1.00
Cu200  Cu    0.24500   0.49421   0.10521   0.00000  Uiso   1.00
H201   H     0.38224   0.41694   0.13772   0.00000  Uiso   1.00
H202   H     0.11783   0.58011   0.19140   0.00000  Uiso   1.00
H203   H     0.44774   0.36819   0.12398   0.00000  Uiso   1.00
H204   H     0.05430   0.62759   0.20791   0.00000  Uiso   1.00
H205   H     0.21443   0.45987   0.31650   0.00000  Uiso   1.00
H206   H     0.28529   0.54055   0.01688   0.00000  Uiso   1.00
N207   N     0.23745   0.48547   0.01284   0.00000  Uiso   1.00
N208   N     0.26256   0.51453   0.32049   0.00000  Uiso   1.00
O209   O     0.25326   0.42871   0.20659   0.00000  Uiso   1.00
O210   O     0.24675   0.57129   0.12674   0.00000  Uiso   1.00
O211   O     0.24480   0.41892   0.10279   0.00000  Uiso   1.00
O212   O     0.25520   0.58108   0.23055   0.00000  Uiso   1.00
O213   O     0.18936   0.50488   0.21857   0.00000  Uiso   1.00
O214   O     0.31065   0.49512   0.11476   0.00000  Uiso   1.00
O215   O     0.18090   0.49510   0.11477   0.00000  Uiso   1.00
O216   O     0.31910   0.50490   0.21857   0.00000  Uiso   1.00
O217   O     0.39053   0.59590   0.18821   0.00000  Uiso   1.00
H218   H     0.35941   0.59090   0.16885   0.00000  Uiso   1.00
O219   O     0.11033   0.40107   0.14381   0.00000  Uiso   1.00
H220   H     0.14290   0.40627   0.15605   0.00000  Uiso   1.00
O221   O     0.03297   0.35448   0.13670   0.00000  Uiso   1.00
C222   C     0.03759   0.65818   0.07766   0.00000  Uiso   1.00
H223   H     0.06661   0.63427   0.08208   0.00000  Uiso   1.00
H224   H     0.04710   0.34963   0.04595   0.00000  Uiso   1.00
C225   C     0.49552   0.62124   0.05317   0.00000  Uiso   1.00
H226   H     0.47864   0.61051   0.09089   0.00000  Uiso   1.00
H227   H     0.47053   0.64098   0.02940   0.00000  Uiso   1.00
C228   C     0.00711   0.57099   0.01073   0.00000  Uiso   1.00
H229   H     0.03051   0.57954   0.31124   0.00000  Uiso   1.00
H230   H     0.47603   0.54989   0.31844   0.00000  Uiso   1.00
H231   H     0.02360   0.54581   0.03810   0.00000  Uiso   1.00
O232   O     0.46632   0.64337   0.21202   0.00000  Uiso   1.00
C233   C     0.49224   0.34822   0.25755   0.00000  Uiso   1.00
H234   H     0.01894   0.36784   0.23808   0.00000  Uiso   1.00
H235   H     0.00894   0.66416   0.29235   0.00000  Uiso   1.00
C236   C     0.46225   0.38949   0.28764   0.00000  Uiso   1.00
H237   H     0.43888   0.39931   0.25199   0.00000  Uiso   1.00
H238   H     0.44273   0.37368   0.31999   0.00000  Uiso   1.00
C239   C     0.48942   0.43915   0.32227   0.00000  Uiso   1.00
H240   H     0.01601   0.43005   0.02111   0.00000  Uiso   1.00
H241   H     0.46684   0.46591   0.01531   0.00000  Uiso   1.00
H242   H     0.00530   0.45878   0.28949   0.00000  Uiso   1.00
O243   O     0.20591   0.64797   0.10422   0.00000  Uiso   1.00
C244   C     0.21007   0.64892   0.04234   0.00000  Uiso   1.00
H245   H     0.21001   0.60774   0.01627   0.00000  Uiso   1.00
H246   H     0.24192   0.33529   0.03375   0.00000  Uiso   1.00
C247   C     0.16898   0.33941   0.01782   0.00000  Uiso   1.00
H248   H     0.13817   0.64937   0.02323   0.00000  Uiso   1.00
H249   H     0.16700   0.38001   0.04456   0.00000  Uiso   1.00
C250   C     0.17037   0.34014   0.28384   0.00000  Uiso   1.00
H251   H     0.19814   0.36767   0.27823   0.00000  Uiso   1.00
H252   H     0.13836   0.35325   0.26641   0.00000  Uiso   1.00
H253   H     0.17524   0.63384   0.25656   0.00000  Uiso   1.00
O254   O     0.27877   0.35358   0.24444   0.00000  Uiso   1.00
C255   C     0.32313   0.34114   0.25733   0.00000  Uiso   1.00
H256   H     0.34457   0.34867   0.22145   0.00000  Uiso   1.00
H257   H     0.32470   0.63310   0.26045   0.00000  Uiso   1.00
C258   C     0.34167   0.37450   0.31976   0.00000  Uiso   1.00
H259   H     0.31701   0.37290   0.02054   0.00000  Uiso   1.00
H260   H     0.37237   0.35807   0.00242   0.00000  Uiso   1.00
C261   C     0.35218   0.43130   0.31718   0.00000  Uiso   1.00
H262   H     0.32069   0.44906   0.30783   0.00000  Uiso   1.00
H263   H     0.37410   0.43428   0.28048   0.00000  Uiso   1.00
H264   H     0.36916   0.45354   0.02811   0.00000  Uiso   1.00
C265   C     0.74669   0.39991   0.15141   0.00000  Uiso   1.00
C266   C     0.75292   0.59987   0.18199   0.00000  Uiso   1.00
C267   C     0.51543   0.40187   0.13546   0.00000  Uiso   1.00
C268   C     0.98547   0.59533   0.19870   0.00000  Uiso   1.00
C269   C     0.74047   0.34367   0.14475   0.00000  Uiso   1.00
C270   C     0.75932   0.65581   0.18920   0.00000  Uiso   1.00
C271   C     0.66475   0.49900   0.16726   0.00000  Uiso   1.00
C272   C     0.83538   0.49941   0.16576   0.00000  Uiso   1.00
C273   C     0.91007   0.54867   0.17757   0.00000  Uiso   1.00
C274   C     0.59071   0.44839   0.15486   0.00000  Uiso   1.00
C275   C     0.88370   0.50071   0.16369   0.00000  Uiso   1.00
C276   C     0.61673   0.49658   0.16855   0.00000  Uiso   1.00
C277   C     0.90330   0.45324   0.14860   0.00000  Uiso   1.00
C278   C     0.59696   0.54376   0.18131   0.00000  Uiso   1.00
C279   C     0.94958   0.45222   0.14780   0.00000  Uiso   1.00
C280   C     0.55083   0.54461   0.18095   0.00000  Uiso   1.00
C281   C     0.97682   0.49942   0.16422   0.00000  Uiso   1.00
C282   C     0.52365   0.49757   0.16508   0.00000  Uiso   1.00
C283   C     0.95731   0.54829   0.18035   0.00000  Uiso   1.00
C284   C     0.54344   0.44880   0.15134   0.00000  Uiso   1.00
C285   C     0.96889   0.40425   0.13337   0.00000  Uiso   1.00
C286   C     0.53204   0.59243   0.19668   0.00000  Uiso   1.00
Cu287  Cu    0.75501   0.50579   0.22813   0.00000  Uiso   1.00
Cu288  Cu    0.74500   0.49421   0.10521   0.00000  Uiso   1.00
H289   H     0.88224   0.41694   0.13772   0.00000  Uiso   1.00
H290   H     0.61783   0.58011   0.19140   0.00000  Uiso   1.00
H291   H     0.94774   0.36819   0.12398   0.00000  Uiso   1.00
H292   H     0.55430   0.62759   0.20791   0.00000  Uiso   1.00
H293   H     0.71443   0.45987   0.31650   0.00000  Uiso   1.00
H294   H     0.78529   0.54055   0.01688   0.00000  Uiso   1.00
N295   N     0.73745   0.48547   0.01284   0.00000  Uiso   1.00
N296   N     0.76256   0.51453   0.32049   0.00000  Uiso   1.00
O297   O     0.75326   0.42871   0.20659   0.00000  Uiso   1.00
O298   O     0.74675   0.57129   0.12674   0.00000  Uiso   1.00
O299   O     0.74480   0.41892   0.10279   0.00000  Uiso   1.00
O300   O     0.75520   0.58108   0.23055   0.00000  Uiso   1.00
O301   O     0.68936   0.50488   0.21857   0.00000  Uiso   1.00
O302   O     0.81065   0.49512   0.11476   0.00000  Uiso   1.00
O303   O     0.68090   0.49510   0.11477   0.00000  Uiso   1.00
O304   O     0.81910   0.50490   0.21857   0.00000  Uiso   1.00
O305   O     0.89053   0.59590   0.18821   0.00000  Uiso   1.00
H306   H     0.85941   0.59090   0.16885   0.00000  Uiso   1.00
O307   O     0.61033   0.40107   0.14381   0.00000  Uiso   1.00
H308   H     0.64290   0.40627   0.15605   0.00000  Uiso   1.00
O309   O     0.53297   0.35448   0.13670   0.00000  Uiso   1.00
C310   C     0.53759   0.65818   0.07766   0.00000  Uiso   1.00
H311   H     0.56661   0.63427   0.08208   0.00000  Uiso   1.00
H312   H     0.54710   0.34963   0.04595   0.00000  Uiso   1.00
C313   C     0.99552   0.62124   0.05317   0.00000  Uiso   1.00
H314   H     0.97864   0.61051   0.09089   0.00000  Uiso   1.00
H315   H     0.97053   0.64098   0.02940   0.00000  Uiso   1.00
C316   C     0.50711   0.57099   0.01073   0.00000  Uiso   1.00
H317   H     0.53051   0.57954   0.31124   0.00000  Uiso   1.00
H318   H     0.97603   0.54989   0.31844   0.00000  Uiso   1.00
H319   H     0.52360   0.54581   0.03810   0.00000  Uiso   1.00
O320   O     0.96632   0.64337   0.21202   0.00000  Uiso   1.00
C321   C     0.99224   0.34822   0.25755   0.00000  Uiso   1.00
H322   H     0.51894   0.36784   0.23808   0.00000  Uiso   1.00
H323   H     0.50894   0.66416   0.29235   0.00000  Uiso   1.00
C324   C     0.96225   0.38949   0.28764   0.00000  Uiso   1.00
H325   H     0.93888   0.39931   0.25199   0.00000  Uiso   1.00
H326   H     0.94273   0.37368   0.31999   0.00000  Uiso   1.00
C327   C     0.98942   0.43915   0.32227   0.00000  Uiso   1.00
H328   H     0.51601   0.43005   0.02111   0.00000  Uiso   1.00
H329   H     0.96684   0.46591   0.01531   0.00000  Uiso   1.00
H330   H     0.50530   0.45878   0.28949   0.00000  Uiso   1.00
O331   O     0.70591   0.64797   0.10422   0.00000  Uiso   1.00
C332   C     0.71007   0.64892   0.04234   0.00000  Uiso   1.00
H333   H     0.71001   0.60774   0.01627   0.00000  Uiso   1.00
H334   H     0.74192   0.33529   0.03375   0.00000  Uiso   1.00
C335   C     0.66898   0.33941   0.01782   0.00000  Uiso   1.00
H336   H     0.63817   0.64937   0.02323   0.00000  Uiso   1.00
H337   H     0.66700   0.38001   0.04456   0.00000  Uiso   1.00
C338   C     0.67037   0.34014   0.28384   0.00000  Uiso   1.00
H339   H     0.69814   0.36767   0.27823   0.00000  Uiso   1.00
H340   H     0.63836   0.35325   0.26641   0.00000  Uiso   1.00
H341   H     0.67524   0.63384   0.25656   0.00000  Uiso   1.00
O342   O     0.77877   0.35358   0.24444   0.00000  Uiso   1.00
C343   C     0.82313   0.34114   0.25733   0.00000  Uiso   1.00
H344   H     0.84457   0.34867   0.22145   0.00000  Uiso   1.00
H345   H     0.82470   0.63310   0.26045   0.00000  Uiso   1.00
C346   C     0.84167   0.37450   0.31976   0.00000  Uiso   1.00
H347   H     0.81701   0.37290   0.02054   0.00000  Uiso   1.00
H348   H     0.87237   0.35807   0.00242   0.00000  Uiso   1.00
C349   C     0.85218   0.43130   0.31718   0.00000  Uiso   1.00
H350   H     0.82069   0.44906   0.30783   0.00000  Uiso   1.00
H351   H     0.87410   0.43428   0.28048   0.00000  Uiso   1.00
H352   H     0.86916   0.45354   0.02811   0.00000  Uiso   1.00
C353   C     0.24669   0.73325   0.15141   0.00000  Uiso   1.00
C354   C     0.25292   0.93320   0.18199   0.00000  Uiso   1.00
C355   C     0.01543   0.73521   0.13546   0.00000  Uiso   1.00
C356   C     0.48547   0.92866   0.19870   0.00000  Uiso   1.00
C357   C     0.24047   0.67700   0.14475   0.00000  Uiso   1.00
C358   C     0.25932   0.98914   0.18920   0.00000  Uiso   1.00
C359   C     0.16475   0.83234   0.16726   0.00000  Uiso   1.00
C360   C     0.33538   0.83274   0.16576   0.00000  Uiso   1.00
C361   C     0.41007   0.88201   0.17757   0.00000  Uiso   1.00
C362   C     0.09071   0.78172   0.15486   0.00000  Uiso   1.00
C363   C     0.38370   0.83404   0.16369   0.00000  Uiso   1.00
C364   C     0.11673   0.82991   0.16855   0.00000  Uiso   1.00
C365   C     0.40330   0.78657   0.14860   0.00000  Uiso   1.00
C366   C     0.09696   0.87710   0.18131   0.00000  Uiso   1.00
C367   C     0.44958   0.78555   0.14780   0.00000  Uiso   1.00
C368   C     0.05083   0.87795   0.18095   0.00000  Uiso   1.00
C369   C     0.47682   0.83275   0.16422   0.00000  Uiso   1.00
C370   C     0.02365   0.83090   0.16508   0.00000  Uiso   1.00
C371   C     0.45731   0.88162   0.18035   0.00000  Uiso   1.00
C372   C     0.04344   0.78213   0.15134   0.00000  Uiso   1.00
C373   C     0.46889   0.73759   0.13337   0.00000  Uiso   1.00
C374   C     0.03204   0.92576   0.19668   0.00000  Uiso   1.00
Cu375  Cu    0.25501   0.83913   0.22813   0.00000  Uiso   1.00
Cu376  Cu    0.24500   0.82754   0.10521   0.00000  Uiso   1.00
H377   H     0.38224   0.75027   0.13772   0.00000  Uiso   1.00
H378   H     0.11783   0.91344   0.19140   0.00000  Uiso   1.00
H379   H     0.44774   0.70152   0.12398   0.00000  Uiso   1.00
H380   H     0.05430   0.96092   0.20791   0.00000  Uiso   1.00
H381   H     0.21443   0.79321   0.31650   0.00000  Uiso   1.00
H382   H     0.28529   0.87389   0.01688   0.00000  Uiso   1.00
N383   N     0.23745   0.81881   0.01284   0.00000  Uiso   1.00
N384   N     0.26256   0.84786   0.32049   0.00000  Uiso   1.00
O385   O     0.25326   0.76204   0.20659   0.00000  Uiso   1.00
O386   O     0.24675   0.90462   0.12674   0.00000  Uiso   1.00
O387   O     0.24480   0.75226   0.10279   0.00000  Uiso   1.00
O388   O     0.25520   0.91441   0.23055   0.00000  Uiso   1.00
O389   O     0.18936   0.83821   0.21857   0.00000  Uiso   1.00
O390   O     0.31065   0.82845   0.11476   0.00000  Uiso   1.00
O391   O     0.18090   0.82843   0.11477   0.00000  Uiso   1.00
O392   O     0.31910   0.83824   0.21857   0.00000  Uiso   1.00
O393   O     0.39053   0.92923   0.18821   0.00000  Uiso   1.00
H394   H     0.35941   0.92423   0.16885   0.00000  Uiso   1.00
O395   O     0.11033   0.73441   0.14381   0.00000  Uiso   1.00
H396   H     0.14290   0.73960   0.15605   0.00000  Uiso   1.00
O397   O     0.03297   0.68782   0.13670   0.00000  Uiso   1.00
C398   C     0.03759   0.99151   0.07766   0.00000  Uiso   1.00
H399   H     0.06661   0.96760   0.08208   0.00000  Uiso   1.00
H400   H     0.04710   0.68296   0.04595   0.00000  Uiso   1.00
C401   C     0.49552   0.95457   0.05317   0.00000  Uiso   1.00
H402   H     0.47864   0.94384   0.09089   0.00000  Uiso   1.00
H403   H     0.47053   0.97432   0.02940   0.00000  Uiso   1.00
C404   C     0.00711   0.90433   0.01073   0.00000  Uiso   1.00
H405   H     0.03051   0.91287   0.31124   0.00000  Uiso   1.00
H406   H     0.47603   0.88322   0.31844   0.00000  Uiso   1.00
H407   H     0.02360   0.87914   0.03810   0.00000  Uiso   1.00
O408   O     0.46632   0.97671   0.21202   0.00000  Uiso   1.00
C409   C     0.49224   0.68156   0.25755   0.00000  Uiso   1.00
H410   H     0.01894   0.70117   0.23808   0.00000  Uiso   1.00
H411   H     0.00894   0.99749   0.29235   0.00000  Uiso   1.00
C412   C     0.46225   0.72283   0.28764   0.00000  Uiso   1.00
H413   H     0.43888   0.73264   0.25199   0.00000  Uiso   1.00
H414   H     0.44273   0.70702   0.31999   0.00000  Uiso   1.00
C415   C     0.48942   0.77248   0.32227   0.00000  Uiso   1.00
H416   H     0.01601   0.76338   0.02111   0.00000  Uiso   1.00
H417   H     0.46684   0.79925   0.01531   0.00000  Uiso   1.00
H418   H     0.00530   0.79212   0.28949   0.00000  Uiso   1.00
O419   O     0.20591   0.98130   0.10422   0.00000  Uiso   1.00
C420   C     0.21007   0.98225   0.04234   0.00000  Uiso   1.00
H421   H     0.21001   0.94108   0.01627   0.00000  Uiso   1.00
H422   H     0.24192   0.66862   0.03375   0.00000  Uiso   1.00
C423   C     0.16898   0.67274   0.01782   0.00000  Uiso   1.00
H424   H     0.13817   0.98270   0.02323   0.00000  Uiso   1.00
H425   H     0.16700   0.71335   0.04456   0.00000  Uiso   1.00
C426   C     0.17037   0.67347   0.28384   0.00000  Uiso   1.00
H427   H     0.19814   0.70101   0.27823   0.00000  Uiso   1.00
H428   H     0.13836   0.68658   0.26641   0.00000  Uiso   1.00
H429   H     0.17524   0.96717   0.25656   0.00000  Uiso   1.00
O430   O     0.27877   0.68691   0.24444   0.00000  Uiso   1.00
C431   C     0.32313   0.67448   0.25733   0.00000  Uiso   1.00
H432   H     0.34457   0.68200   0.22145   0.00000  Uiso   1.00
H433   H     0.32470   0.96644   0.26045   0.00000  Uiso   1.00
C434   C     0.34167   0.70784   0.31976   0.00000  Uiso   1.00
H435   H     0.31701   0.70624   0.02054   0.00000  Uiso   1.00
H436   H     0.37237   0.69140   0.00242   0.00000  Uiso   1.00
C437   C     0.35218   0.76464   0.31718   0.00000  Uiso   1.00
H438   H     0.32069   0.78239   0.30783   0.00000  Uiso   1.00
H439   H     0.37410   0.76761   0.28048   0.00000  Uiso   1.00
H440   H     0.36916   0.78688   0.02811   0.00000  Uiso   1.00
C441   C     0.74669   0.73325   0.15141   0.00000  Uiso   1.00
C442   C     0.75292   0.93320   0.18199   0.00000  Uiso   1.00
C443   C     0.51543   0.73521   0.13546   0.00000  Uiso   1.00
C444   C     0.98547   0.92866   0.19870   0.00000  Uiso   1.00
C445   C     0.74047   0.67700   0.14475   0.00000  Uiso   1.00
C446   C     0.75932   0.98914   0.18920   0.00000  Uiso   1.00
C447   C     0.66475   0.83234   0.16726   0.00000  Uiso   1.00
C448   C     0.83538   0.83274   0.16576   0.00000  Uiso   1.00
C449   C     0.91007   0.88201   0.17757   0.00000  Uiso   1.00
C450   C     0.59071   0.78172   0.15486   0.00000  Uiso   1.00
C451   C     0.88370   0.83404   0.16369   0.00000  Uiso   1.00
C452   C     0.61673   0.82991   0.16855   0.00000  Uiso   1.00
C453   C     0.90330   0.78657   0.14860   0.00000  Uiso   1.00
C454   C     0.59696   0.87710   0.18131   0.00000  Uiso   1.00
C455   C     0.94958   0.78555   0.14780   0.00000  Uiso   1.00
C456   C     0.55083   0.87795   0.18095   0.00000  Uiso   1.00
C457   C     0.97682   0.83275   0.16422   0.00000  Uiso   1.00
C458   C     0.52365   0.83090   0.16508   0.00000  Uiso   1.00
C459   C     0.95731   0.88162   0.18035   0.00000  Uiso   1.00
C460   C     0.54344   0.78213   0.15134   0.00000  Uiso   1.00
C461   C     0.96889   0.73759   0.13337   0.00000  Uiso   1.00
C462   C     0.53204   0.92576   0.19668   0.00000  Uiso   1.00
Cu463  Cu    0.75501   0.83913   0.22813   0.00000  Uiso   1.00
Cu464  Cu    0.74500   0.82754   0.10521   0.00000  Uiso   1.00
H465   H     0.88224   0.75027   0.13772   0.00000  Uiso   1.00
H466   H     0.61783   0.91344   0.19140   0.00000  Uiso   1.00
H467   H     0.94774   0.70152   0.12398   0.00000  Uiso   1.00
H468   H     0.55430   0.96092   0.20791   0.00000  Uiso   1.00
H469   H     0.71443   0.79321   0.31650   0.00000  Uiso   1.00
H470   H     0.78529   0.87389   0.01688   0.00000  Uiso   1.00
N471   N     0.73745   0.81881   0.01284   0.00000  Uiso   1.00
N472   N     0.76256   0.84786   0.32049   0.00000  Uiso   1.00
O473   O     0.75326   0.76204   0.20659   0.00000  Uiso   1.00
O474   O     0.74675   0.90462   0.12674   0.00000  Uiso   1.00
O475   O     0.74480   0.75226   0.10279   0.00000  Uiso   1.00
O476   O     0.75520   0.91441   0.23055   0.00000  Uiso   1.00
O477   O     0.68936   0.83821   0.21857   0.00000  Uiso   1.00
O478   O     0.81065   0.82845   0.11476   0.00000  Uiso   1.00
O479   O     0.68090   0.82843   0.11477   0.00000  Uiso   1.00
O480   O     0.81910   0.83824   0.21857   0.00000  Uiso   1.00
O481   O     0.89053   0.92923   0.18821   0.00000  Uiso   1.00
H482   H     0.85941   0.92423   0.16885   0.00000  Uiso   1.00
O483   O     0.61033   0.73441   0.14381   0.00000  Uiso   1.00
H484   H     0.64290   0.73960   0.15605   0.00000  Uiso   1.00
O485   O     0.53297   0.68782   0.13670   0.00000  Uiso   1.00
C486   C     0.53759   0.99151   0.07766   0.00000  Uiso   1.00
H487   H     0.56661   0.96760   0.08208   0.00000  Uiso   1.00
H488   H     0.54710   0.68296   0.04595   0.00000  Uiso   1.00
C489   C     0.99552   0.95457   0.05317   0.00000  Uiso   1.00
H490   H     0.97864   0.94384   0.09089   0.00000  Uiso   1.00
H491   H     0.97053   0.97432   0.02940   0.00000  Uiso   1.00
C492   C     0.50711   0.90433   0.01073   0.00000  Uiso   1.00
H493   H     0.53051   0.91287   0.31124   0.00000  Uiso   1.00
H494   H     0.97603   0.88322   0.31844   0.00000  Uiso   1.00
H495   H     0.52360   0.87914   0.03810   0.00000  Uiso   1.00
O496   O     0.96632   0.97671   0.21202   0.00000  Uiso   1.00
C497   C     0.99224   0.68156   0.25755   0.00000  Uiso   1.00
H498   H     0.51894   0.70117   0.23808   0.00000  Uiso   1.00
H499   H     0.50894   0.99749   0.29235   0.00000  Uiso   1.00
C500   C     0.96225   0.72283   0.28764   0.00000  Uiso   1.00
H501   H     0.93888   0.73264   0.25199   0.00000  Uiso   1.00
H502   H     0.94273   0.70702   0.31999   0.00000  Uiso   1.00
C503   C     0.98942   0.77248   0.32227   0.00000  Uiso   1.00
H504   H     0.51601   0.76338   0.02111   0.00000  Uiso   1.00
H505   H     0.96684   0.79925   0.01531   0.00000  Uiso   1.00
H506   H     0.50530   0.79212   0.28949   0.00000  Uiso   1.00
O507   O     0.70591   0.98130   0.10422   0.00000  Uiso   1.00
C508   C     0.71007   0.98225   0.04234   0.00000  Uiso   1.00
H509   H     0.71001   0.94108   0.01627   0.00000  Uiso   1.00
H510   H     0.74192   0.66862   0.03375   0.00000  Uiso   1.00
C511   C     0.66898   0.67274   0.01782   0.00000  Uiso   1.00
H512   H     0.63817   0.98270   0.02323   0.00000  Uiso   1.00
H513   H     0.66700   0.71335   0.04456   0.00000  Uiso   1.00
C514   C     0.67037   0.67347   0.28384   0.00000  Uiso   1.00
H515   H     0.69814   0.70101   0.27823   0.00000  Uiso   1.00
H516   H     0.63836   0.68658   0.26641   0.00000  Uiso   1.00
H517   H     0.67524   0.96717   0.25656   0.00000  Uiso   1.00
O518   O     0.77877   0.68691   0.24444   0.00000  Uiso   1.00
C519   C     0.82313   0.67448   0.25733   0.00000  Uiso   1.00
H520   H     0.84457   0.68200   0.22145   0.00000  Uiso   1.00
H521   H     0.82470   0.96644   0.26045   0.00000  Uiso   1.00
C522   C     0.84167   0.70784   0.31976   0.00000  Uiso   1.00
H523   H     0.81701   0.70624   0.02054   0.00000  Uiso   1.00
H524   H     0.87237   0.69140   0.00242   0.00000  Uiso   1.00
C525   C     0.85218   0.76464   0.31718   0.00000  Uiso   1.00
H526   H     0.82069   0.78239   0.30783   0.00000  Uiso   1.00
H527   H     0.87410   0.76761   0.28048   0.00000  Uiso   1.00
H528   H     0.86916   0.78688   0.02811   0.00000  Uiso   1.00
C529   C     0.24669   0.06658   0.48475   0.00000  Uiso   1.00
C530   C     0.25292   0.26654   0.51532   0.00000  Uiso   1.00
C531   C     0.01543   0.06854   0.46879   0.00000  Uiso   1.00
C532   C     0.48547   0.26199   0.53203   0.00000  Uiso   1.00
C533   C     0.24047   0.01034   0.47808   0.00000  Uiso   1.00
C534   C     0.25932   0.32247   0.52253   0.00000  Uiso   1.00
C535   C     0.16475   0.16567   0.50059   0.00000  Uiso   1.00
C536   C     0.33538   0.16607   0.49909   0.00000  Uiso   1.00
C537   C     0.41007   0.21534   0.51090   0.00000  Uiso   1.00
C538   C     0.09071   0.11505   0.48819   0.00000  Uiso   1.00
C539   C     0.38370   0.16738   0.49702   0.00000  Uiso   1.00
C540   C     0.11673   0.16324   0.50189   0.00000  Uiso   1.00
C541   C     0.40330   0.11991   0.48193   0.00000  Uiso   1.00
C542   C     0.09696   0.21043   0.51465   0.00000  Uiso   1.00
C543   C     0.44958   0.11889   0.48113   0.00000  Uiso   1.00
C544   C     0.05083   0.21128   0.51428   0.00000  Uiso   1.00
C545   C     0.47682   0.16609   0.49756   0.00000  Uiso   1.00
C546   C     0.02365   0.16423   0.49842   0.00000  Uiso   1.00
C547   C     0.45731   0.21495   0.51369   0.00000  Uiso   1.00
C548   C     0.04344   0.11547   0.48467   0.00000  Uiso   1.00
C549   C     0.46889   0.07092   0.46671   0.00000  Uiso   1.00
C550   C     0.03204   0.25910   0.53002   0.00000  Uiso   1.00
Cu551  Cu    0.25501   0.17246   0.56146   0.00000  Uiso   1.00
Cu552  Cu    0.24500   0.16087   0.43854   0.00000  Uiso   1.00
H553   H     0.38224   0.08361   0.47106   0.00000  Uiso   1.00
H554   H     0.11783   0.24678   0.52474   0.00000  Uiso   1.00
H555   H     0.44774   0.03485   0.45732   0.00000  Uiso   1.00
H556   H     0.05430   0.29426   0.54125   0.00000  Uiso   1.00
H557   H     0.21443   0.12654   0.64984   0.00000  Uiso   1.00
H558   H     0.28529   0.20722   0.35022   0.00000  Uiso   1.00
N559   N     0.23745   0.15214   0.34617   0.00000  Uiso   1.00
N560   N     0.26256   0.18119   0.65383   0.00000  Uiso   1.00
O561   O     0.25326   0.09538   0.53992   0.00000  Uiso   1.00
O562   O     0.24675   0.23796   0.46008   0.00000  Uiso   1.00
O563   O     0.24480   0.08559   0.43612   0.00000  Uiso   1.00
O564   O     0.25520   0.24774   0.56388   0.00000  Uiso   1.00
O565   O     0.18936   0.17155   0.55191   0.00000  Uiso   1.00
O566   O     0.31065   0.16179   0.44809   0.00000  Uiso   1.00
O567   O     0.18090   0.16176   0.44810   0.00000  Uiso   1.00
O568   O     0.31910   0.17157   0.55190   0.00000  Uiso   1.00
O569   O     0.39053   0.26257   0.52155   0.00000  Uiso   1.00
H570   H     0.35941   0.25756   0.50219   0.00000  Uiso   1.00
O571   O     0.11033   0.06774   0.47714   0.00000  Uiso   1.00
H572   H     0.14290   0.07294   0.48939   0.00000  Uiso   1.00
O573   O     0.03297   0.02115   0.47003   0.00000  Uiso   1.00
C574   C     0.03759   0.32484   0.41099   0.00000  Uiso   1.00
H575   H     0.06661   0.30094   0.41542   0.00000  Uiso   1.00
H576   H     0.04710   0.01629   0.37928   0.00000  Uiso   1.00
C577   C     0.49552   0.28791   0.38651   0.00000  Uiso   1.00
H578   H     0.47864   0.27717   0.42422   0.00000  Uiso   1.00
H579   H     0.47053   0.30765   0.36273   0.00000  Uiso   1.00
C580   C     0.00711   0.23766   0.34406   0.00000  Uiso   1.00
H581   H     0.03051   0.24620   0.64457   0.00000  Uiso   1.00
H582   H     0.47603   0.21655   0.65177   0.00000  Uiso   1.00
H583   H     0.02360   0.21248   0.37144   0.00000  Uiso   1.00
O584   O     0.46632   0.31004   0.54535   0.00000  Uiso   1.00
C585   C     0.49224   0.01489   0.59088   0.00000  Uiso   1.00
H586   H     0.01894   0.03450   0.57142   0.00000  Uiso   1.00
H587   H     0.00894   0.33083   0.62569   0.00000  Uiso   1.00
C588   C     0.46225   0.05616   0.62097   0.00000  Uiso   1.00
H589   H     0.43888   0.06598   0.58532   0.00000  Uiso   1.00
H590   H     0.44273   0.04035   0.65333   0.00000  Uiso   1.00
C591   C     0.48942   0.10581   0.65560   0.00000  Uiso   1.00
H592   H     0.01601   0.09672   0.35444   0.00000  Uiso   1.00
H593   H     0.46684   0.13258   0.34865   0.00000  Uiso   1.00
H594   H     0.00530   0.12545   0.62283   0.00000  Uiso   1.00
O595   O     0.20591   0.31463   0.43756   0.00000  Uiso   1.00
C596   C     0.21007   0.31559   0.37567   0.00000  Uiso   1.00
H597   H     0.21001   0.27441   0.34960   0.00000  Uiso   1.00
H598   H     0.24192   0.00195   0.36708   0.00000  Uiso   1.00
C599   C     0.16898   0.00608   0.35115   0.00000  Uiso   1.00
H600   H     0.13817   0.31603   0.35656   0.00000  Uiso   1.00
H601   H     0.16700   0.04668   0.37790   0.00000  Uiso   1.00
C602   C     0.17037   0.00680   0.61717   0.00000  Uiso   1.00
H603   H     0.19814   0.03434   0.61156   0.00000  Uiso   1.00
H604   H     0.13836   0.01992   0.59975   0.00000  Uiso   1.00
H605   H     0.17524   0.30050   0.58990   0.00000  Uiso   1.00
O606   O     0.27877   0.02024   0.57778   0.00000  Uiso   1.00
C607   C     0.32313   0.00781   0.59066   0.00000  Uiso   1.00
H608   H     0.34457   0.01534   0.55479   0.00000  Uiso   1.00
H609   H     0.32470   0.29977   0.59378   0.00000  Uiso   1.00
C610   C     0.34167   0.04117   0.65310   0.00000  Uiso   1.00
H611   H     0.31701   0.03957   0.35388   0.00000  Uiso   1.00
H612   H     0.37237   0.02474   0.33575   0.00000  Uiso   1.00
C613   C     0.35218   0.09797   0.65052   0.00000  Uiso   1.00
H614   H     0.32069   0.11573   0.64117   0.00000  Uiso   1.00
H615   H     0.37410   0.10094   0.61381   0.00000  Uiso   1.00
H616   H     0.36916   0.12021   0.36144   0.00000  Uiso   1.00
C617   C     0.74669   0.06658   0.48475   0.00000  Uiso   1.00
C618   C     0.75292   0.26654   0.51532   0.00000  Uiso   1.00
C619   C     0.51543   0.06854   0.46879   0.00000  Uiso   1.00
C620   C     0.98547   0.26199   0.53203   0.00000  Uiso   1.00
C621   C     0.74047   0.01034   0.47808   0.00000  Uiso   1.00
C622   C     0.75932   0.32247   0.52253   0.00000  Uiso   1.00
C623   C     0.66475   0.16567   0.50059   0.00000  Uiso   1.00
C624   C     0.83538   0.16607   0.49909   0.00000  Uiso   1.00
C625   C     0.91007   0.21534   0.51090   0.00000  Uiso   1.00
C626   C     0.59071   0.11505   0.48819   0.00000  Uiso   1.00
C627   C     0.88370   0.16738   0.49702   0.00000  Uiso   1.00
C628   C     0.61673   0.16324   0.50189   0.00000  Uiso   1.00
C629   C     0.90330   0.11991   0.48193   0.00000  Uiso   1.00
C630   C     0.59696   0.21043   0.51465   0.00000  Uiso   1.00
C631   C     0.94958   0.11889   0.48113   0.00000  Uiso   1.00
C632   C     0.55083   0.21128   0.51428   0.00000  Uiso   1.00
C633   C     0.97682   0.16609   0.49756   0.00000  Uiso   1.00
C634   C     0.52365   0.16423   0.49842   0.00000  Uiso   1.00
C635   C     0.95731   0.21495   0.51369   0.00000  Uiso   1.00
C636   C     0.54344   0.11547   0.48467   0.00000  Uiso   1.00
C637   C     0.96889   0.07092   0.46671   0.00000  Uiso   1.00
C638   C     0.53204   0.25910   0.53002   0.00000  Uiso   1.00
Cu639  Cu    0.75501   0.17246   0.56146   0.00000  Uiso   1.00
Cu640  Cu    0.74500   0.16087   0.43854   0.00000  Uiso   1.00
H641   H     0.88224   0.08361   0.47106   0.00000  Uiso   1.00
H642   H     0.61783   0.24678   0.52474   0.00000  Uiso   1.00
H643   H     0.94774   0.03485   0.45732   0.00000  Uiso   1.00
H644   H     0.55430   0.29426   0.54125   0.00000  Uiso   1.00
H645   H     0.71443   0.12654   0.64984   0.00000  Uiso   1.00
H646   H     0.78529   0.20722   0.35022   0.00000  Uiso   1.00
N647   N     0.73745   0.15214   0.34617   0.00000  Uiso   1.00
N648   N     0.76256   0.18119   0.65383   0.00000  Uiso   1.00
O649   O     0.75326   0.09538   0.53992   0.00000  Uiso   1.00
O650   O     0.74675   0.23796   0.46008   0.00000  Uiso   1.00
O651   O     0.74480   0.08559   0.43612   0.00000  Uiso   1.00
O652   O     0.75520   0.24774   0.56388   0.00000  Uiso   1.00
O653   O     0.68936   0.17155   0.55191   0.00000  Uiso   1.00
O654   O     0.81065   0.16179   0.44809   0.00000  Uiso   1.00
O655   O     0.68090   0.16176   0.44810   0.00000  Uiso   1.00
O656   O     0.81910   0.17157   0.55190   0.00000  Uiso   1.00
O657   O     0.89053   0.26257   0.52155   0.00000  Uiso   1.00
H658   H     0.85941   0.25756   0.50219   0.00000  Uiso   1.00
O659   O     0.61033   0.06774   0.47714   0.00000  Uiso   1.00
H660   H     0.64290   0.07294   0.48939   0.00000  Uiso   1.00
O661   O     0.53297   0.02115   0.47003   0.00000  Uiso   1.00
C662   C     0.53759   0.32484   0.41099   0.00000  Uiso   1.00
H663   H     0.56661   0.30094   0.41542   0.00000  Uiso   1.00
H664   H     0.54710   0.01629   0.37928   0.00000  Uiso   1.00
C665   C     0.99552   0.28791   0.38651   0.00000  Uiso   1.00
H666   H     0.97864   0.27717   0.42422   0.00000  Uiso   1.00
H667   H     0.97053   0.30765   0.36273   0.00000  Uiso   1.00
C668   C     0.50711   0.23766   0.34406   0.00000  Uiso   1.00
H669   H     0.53051   0.24620   0.64457   0.00000  Uiso   1.00
H670   H     0.97603   0.21655   0.65177   0.00000  Uiso   1.00
H671   H     0.52360   0.21248   0.37144   0.00000  Uiso   1.00
O672   O     0.96632   0.31004   0.54535   0.00000  Uiso   1.00
C673   C     0.99224   0.01489   0.59088   0.00000  Uiso   1.00
H674   H     0.51894   0.03450   0.57142   0.00000  Uiso   1.00
H675   H     0.50894   0.33083   0.62569   0.00000  Uiso   1.00
C676   C     0.96225   0.05616   0.62097   0.00000  Uiso   1.00
H677   H     0.93888   0.06598   0.58532   0.00000  Uiso   1.00
H678   H     0.94273   0.04035   0.65333   0.00000  Uiso   1.00
C679   C     0.98942   0.10581   0.65560   0.00000  Uiso   1.00
H680   H     0.51601   0.09672   0.35444   0.00000  Uiso   1.00
H681   H     0.96684   0.13258   0.34865   0.00000  Uiso   1.00
H682   H     0.50530   0.12545   0.62283   0.00000  Uiso   1.00
O683   O     0.70591   0.31463   0.43756   0.00000  Uiso   1.00
C684   C     0.71007   0.31559   0.37567   0.00000  Uiso   1.00
H685   H     0.71001   0.27441   0.34960   0.00000  Uiso   1.00
H686   H     0.74192   0.00195   0.36708   0.00000  Uiso   1.00
C687   C     0.66898   0.00608   0.35115   0.00000  Uiso   1.00
H688   H     0.63817   0.31603   0.35656   0.00000  Uiso   1.00
H689   H     0.66700   0.04668   0.37790   0.00000  Uiso   1.00
C690   C     0.67037   0.00680   0.61717   0.00000  Uiso   1.00
H691   H     0.69814   0.03434   0.61156   0.00000  Uiso   1.00
H692   H     0.63836   0.01992   0.59975   0.00000  Uiso   1.00
H693   H     0.67524   0.30050   0.58990   0.00000  Uiso   1.00
O694   O     0.77877   0.02024   0.57778   0.00000  Uiso   1.00
C695   C     0.82313   0.00781   0.59066   0.00000  Uiso   1.00
H696   H     0.84457   0.01534   0.55479   0.00000  Uiso   1.00
H697   H     0.82470   0.29977   0.59378   0.00000  Uiso   1.00
C698   C     0.84167   0.04117   0.65310   0.00000  Uiso   1.00
H699   H     0.81701   0.03957   0.35388   0.00000  Uiso   1.00
H700   H     0.87237   0.02474   0.33575   0.00000  Uiso   1.00
C701   C     0.85218   0.09797   0.65052   0.00000  Uiso   1.00
H702   H     0.82069   0.11573   0.64117   0.00000  Uiso   1.00
H703   H     0.87410   0.10094   0.61381   0.00000  Uiso   1.00
H704   H     0.86916   0.12021   0.36144   0.00000  Uiso   1.00
C705   C     0.24669   0.39991   0.48475   0.00000  Uiso   1.00
C706   C     0.25292   0.59987   0.51532   0.00000  Uiso   1.00
C707   C     0.01543   0.40187   0.46879   0.00000  Uiso   1.00
C708   C     0.48547   0.59533   0.53203   0.00000  Uiso   1.00
C709   C     0.24047   0.34367   0.47808   0.00000  Uiso   1.00
C710   C     0.25932   0.65581   0.52253   0.00000  Uiso   1.00
C711   C     0.16475   0.49900   0.50059   0.00000  Uiso   1.00
C712   C     0.33538   0.49941   0.49909   0.00000  Uiso   1.00
C713   C     0.41007   0.54867   0.51090   0.00000  Uiso   1.00
C714   C     0.09071   0.44839   0.48819   0.00000  Uiso   1.00
C715   C     0.38370   0.50071   0.49702   0.00000  Uiso   1.00
C716   C     0.11673   0.49658   0.50189   0.00000  Uiso   1.00
C717   C     0.40330   0.45324   0.48193   0.00000  Uiso   1.00
C718   C     0.09696   0.54376   0.51465   0.00000  Uiso   1.00
C719   C     0.44958   0.45222   0.48113   0.00000  Uiso   1.00
C720   C     0.05083   0.54461   0.51428   0.00000  Uiso   1.00
C721   C     0.47682   0.49942   0.49756   0.00000  Uiso   1.00
C722   C     0.02365   0.49757   0.49842   0.00000  Uiso   1.00
C723   C     0.45731   0.54829   0.51369   0.00000  Uiso   1.00
C724   C     0.04344   0.44880   0.48467   0.00000  Uiso   1.00
C725   C     0.46889   0.40425   0.46671   0.00000  Uiso   1.00
C726   C     0.03204   0.59243   0.53002   0.00000  Uiso   1.00
Cu727  Cu    0.25501   0.50579   0.56146   0.00000  Uiso   1.00
Cu728  Cu    0.24500   0.49421   0.43854   0.00000  Uiso   1.00
H729   H     0.38224   0.41694   0.47106   0.00000  Uiso   1.00
H730   H     0.11783   0.58011   0.52474   0.00000  Uiso   1.00
H731   H     0.44774   0.36819   0.45732   0.00000  Uiso   1.00
H732   H     0.05430   0.62759   0.54125   0.00000  Uiso   1.00
H733   H     0.21443   0.45987   0.64984   0.00000  Uiso   1.00
H734   H     0.28529   0.54055   0.35022   0.00000  Uiso   1.00
N735   N     0.23745   0.48547   0.34617   0.00000  Uiso   1.00
N736   N     0.26256   0.51453   0.65383   0.00000  Uiso   1.00
O737   O     0.25326   0.42871   0.53992   0.00000  Uiso   1.00
O738   O     0.24675   0.57129   0.46008   0.00000  Uiso   1.00
O739   O     0.24480   0.41892   0.43612   0.00000  Uiso   1.00
O740   O     0.25520   0.58108   0.56388   0.00000  Uiso   1.00
O741   O     0.18936   0.50488   0.55191   0.00000  Uiso   1.00
O742   O     0.31065   0.49512   0.44809   0.00000  Uiso   1.00
O743   O     0.18090   0.49510   0.44810   0.00000  Uiso   1.00
O744   O     0.31910   0.50490   0.55190   0.00000  Uiso   1.00
O745   O     0.39053   0.59590   0.52155   0.00000  Uiso   1.00
H746   H     0.35941   0.59090   0.50219   0.00000  Uiso   1.00
O747   O     0.11033   0.40107   0.47714   0.00000  Uiso   1.00
H748   H     0.14290   0.40627   0.48939   0.00000  Uiso   1.00
O749   O     0.03297   0.35448   0.47003   0.00000  Uiso   1.00
C750   C     0.03759   0.65818   0.41099   0.00000  Uiso   1.00
H751   H     0.06661   0.63427   0.41542   0.00000  Uiso   1.00
H752   H     0.04710   0.34963   0.37928   0.00000  Uiso   1.00
C753   C     0.49552   0.62124   0.38651   0.00000  Uiso   1.00
H754   H     0.47864   0.61051   0.42422   0.00000  Uiso   1.00
H755   H     0.47053   0.64098   0.36273   0.00000  Uiso   1.00
C756   C     0.00711   0.57099   0.34406   0.00000  Uiso   1.00
H757   H     0.03051   0.57954   0.64457   0.00000  Uiso   1.00
H758   H     0.47603   0.54989   0.65177   0.00000  Uiso   1.00
H759   H     0.02360   0.54581   0.37144   0.00000  Uiso   1.00
O760   O     0.46632   0.64337   0.54535   0.00000  Uiso   1.00
C761   C     0.49224   0.34822   0.59088   0.00000  Uiso   1.00
H762   H     0.01894   0.36784   0.57142   0.00000  Uiso   1.00
H763   H     0.00894   0.66416   0.62569   0.00000  Uiso   1.00
C764   C     0.46225   0.38949   0.62097   0.00000  Uiso   1.00
H765   H     0.43888   0.39931   0.58532   0.00000  Uiso   1.00
H766   H     0.44273   0.37368   0.65333   0.00000  Uiso   1.00
C767   C     0.48942   0.43915   0.65560   0.00000  Uiso   1.00
H768   H     0.01601   0.43005   0.35444   0.00000  Uiso   1.00
H769   H     0.46684   0.46591   0.34865   0.00000  Uiso   1.00
H770   H     0.00530   0.45878   0.62283   0.00000  Uiso   1.00
O771   O     0.20591   0.64797   0.43756   0.00000  Uiso   1.00
C772   C     0.21007   0.64892   0.37567   0.00000  Uiso   1.00
H773   H     0.21001   0.60774   0.34960   0.00000  Uiso   1.00
H774   H     0.24192   0.33529   0.36708   0.00000  Uiso   1.00
C775   C     0.16898   0.33941   0.35115   0.00000  Uiso   1.00
H776   H     0.13817   0.64937   0.35656   0.00000  Uiso   1.00
H777   H     0.16700   0.38001   0.37790   0.00000  Uiso   1.00
C778   C     0.17037   0.34014   0.61717   0.00000  Uiso   1.00
H779   H     0.19814   0.36767   0.61156   0.00000  Uiso   1.00
H780   H     0.13836   0.35325   0.59975   0.00000  Uiso   1.00
H781   H     0.17524   0.63384   0.58990   0.00000  Uiso   1.00
O782   O     0.27877   0.35358   0.57778   0.00000  Uiso   1.00
C783   C     0.32313   0.34114   0.59066   0.00000  Uiso   1.00
H784   H     0.34457   0.34867   0.55479   0.00000  Uiso   1.00
H785   H     0.32470   0.63310   0.59378   0.00000  Uiso   1.00
C786   C     0.34167   0.37450   0.65310   0.00000  Uiso   1.00
H787   H     0.31701   0.37290   0.35388   0.00000  Uiso   1.00
H788   H     0.37237   0.35807   0.33575   0.00000  Uiso   1.00
C789   C     0.35218   0.43130   0.65052   0.00000  Uiso   1.00
H790   H     0.32069   0.44906   0.64117   0.00000  Uiso   1.00
H791   H     0.37410   0.43428   0.61381   0.00000  Uiso   1.00
H792   H     0.36916   0.45354   0.36144   0.00000  Uiso   1.00
C793   C     0.74669   0.39991   0.48475   0.00000  Uiso   1.00
C794   C     0.75292   0.59987   0.51532   0.00000  Uiso   1.00
C795   C     0.51543   0.40187   0.46879   0.00000  Uiso   1.00
C796   C     0.98547   0.59533   0.53203   0.00000  Uiso   1.00
C797   C     0.74047   0.34367   0.47808   0.00000  Uiso   1.00
C798   C     0.75932   0.65581   0.52253   0.00000  Uiso   1.00
C799   C     0.66475   0.49900   0.50059   0.00000  Uiso   1.00
C800   C     0.83538   0.49941   0.49909   0.00000  Uiso   1.00
C801   C     0.91007   0.54867   0.51090   0.00000  Uiso   1.00
C802   C     0.59071   0.44839   0.48819   0.00000  Uiso   1.00
C803   C     0.88370   0.50071   0.49702   0.00000  Uiso   1.00
C804   C     0.61673   0.49658   0.50189   0.00000  Uiso   1.00
C805   C     0.90330   0.45324   0.48193   0.00000  Uiso   1.00
C806   C     0.59696   0.54376   0.51465   0.00000  Uiso   1.00
C807   C     0.94958   0.45222   0.48113   0.00000  Uiso   1.00
C808   C     0.55083   0.54461   0.51428   0.00000  Uiso   1.00
C809   C     0.97682   0.49942   0.49756   0.00000  Uiso   1.00
C810   C     0.52365   0.49757   0.49842   0.00000  Uiso   1.00
C811   C     0.95731   0.54829   0.51369   0.00000  Uiso   1.00
C812   C     0.54344   0.44880   0.48467   0.00000  Uiso   1.00
C813   C     0.96889   0.40425   0.46671   0.00000  Uiso   1.00
C814   C     0.53204   0.59243   0.53002   0.00000  Uiso   1.00
Cu815  Cu    0.75501   0.50579   0.56146   0.00000  Uiso   1.00
Cu816  Cu    0.74500   0.49421   0.43854   0.00000  Uiso   1.00
H817   H     0.88224   0.41694   0.47106   0.00000  Uiso   1.00
H818   H     0.61783   0.58011   0.52474   0.00000  Uiso   1.00
H819   H     0.94774   0.36819   0.45732   0.00000  Uiso   1.00
H820   H     0.55430   0.62759   0.54125   0.00000  Uiso   1.00
H821   H     0.71443   0.45987   0.64984   0.00000  Uiso   1.00
H822   H     0.78529   0.54055   0.35022   0.00000  Uiso   1.00
N823   N     0.73745   0.48547   0.34617   0.00000  Uiso   1.00
N824   N     0.76256   0.51453   0.65383   0.00000  Uiso   1.00
O825   O     0.75326   0.42871   0.53992   0.00000  Uiso   1.00
O826   O     0.74675   0.57129   0.46008   0.00000  Uiso   1.00
O827   O     0.74480   0.41892   0.43612   0.00000  Uiso   1.00
O828   O     0.75520   0.58108   0.56388   0.00000  Uiso   1.00
O829   O     0.68936   0.50488   0.55191   0.00000  Uiso   1.00
O830   O     0.81065   0.49512   0.44809   0.00000  Uiso   1.00
O831   O     0.68090   0.49510   0.44810   0.00000  Uiso   1.00
O832   O     0.81910   0.50490   0.55190   0.00000  Uiso   1.00
O833   O     0.89053   0.59590   0.52155   0.00000  Uiso   1.00
H834   H     0.85941   0.59090   0.50219   0.00000  Uiso   1.00
O835   O     0.61033   0.40107   0.47714   0.00000  Uiso   1.00
H836   H     0.64290   0.40627   0.48939   0.00000  Uiso   1.00
O837   O     0.53297   0.35448   0.47003   0.00000  Uiso   1.00
C838   C     0.53759   0.65818   0.41099   0.00000  Uiso   1.00
H839   H     0.56661   0.63427   0.41542   0.00000  Uiso   1.00
H840   H     0.54710   0.34963   0.37928   0.00000  Uiso   1.00
C841   C     0.99552   0.62124   0.38651   0.00000  Uiso   1.00
H842   H     0.97864   0.61051   0.42422   0.00000  Uiso   1.00
H843   H     0.97053   0.64098   0.36273   0.00000  Uiso   1.00
C844   C     0.50711   0.57099   0.34406   0.00000  Uiso   1.00
H845   H     0.53051   0.57954   0.64457   0.00000  Uiso   1.00
H846   H     0.97603   0.54989   0.65177   0.00000  Uiso   1.00
H847   H     0.52360   0.54581   0.37144   0.00000  Uiso   1.00
O848   O     0.96632   0.64337   0.54535   0.00000  Uiso   1.00
C849   C     0.99224   0.34822   0.59088   0.00000  Uiso   1.00
H850   H     0.51894   0.36784   0.57142   0.00000  Uiso   1.00
H851   H     0.50894   0.66416   0.62569   0.00000  Uiso   1.00
C852   C     0.96225   0.38949   0.62097   0.00000  Uiso   1.00
H853   H     0.93888   0.39931   0.58532   0.00000  Uiso   1.00
H854   H     0.94273   0.37368   0.65333   0.00000  Uiso   1.00
C855   C     0.98942   0.43915   0.65560   0.00000  Uiso   1.00
H856   H     0.51601   0.43005   0.35444   0.00000  Uiso   1.00
H857   H     0.96684   0.46591   0.34865   0.00000  Uiso   1.00
H858   H     0.50530   0.45878   0.62283   0.00000  Uiso   1.00
O859   O     0.70591   0.64797   0.43756   0.00000  Uiso   1.00
C860   C     0.71007   0.64892   0.37567   0.00000  Uiso   1.00
H861   H     0.71001   0.60774   0.34960   0.00000  Uiso   1.00
H862   H     0.74192   0.33529   0.36708   0.00000  Uiso   1.00
C863   C     0.66898   0.33941   0.35115   0.00000  Uiso   1.00
H864   H     0.63817   0.64937   0.35656   0.00000  Uiso   1.00
H865   H     0.66700   0.38001   0.37790   0.00000  Uiso   1.00
C866   C     0.67037   0.34014   0.61717   0.00000  Uiso   1.00
H867   H     0.69814   0.36767   0.61156   0.00000  Uiso   1.00
H868   H     0.63836   0.35325   0.59975   0.00000  Uiso   1.00
H869   H     0.67524   0.63384   0.58990   0.00000  Uiso   1.00
O870   O     0.77877   0.35358   0.57778   0.00000  Uiso   1.00
C871   C     0.82313   0.34114   0.59066   0.00000  Uiso   1.00
H872   H     0.84457   0.34867   0.55479   0.00000  Uiso   1.00
H873   H     0.82470   0.63310   0.59378   0.00000  Uiso   1.00
C874   C     0.84167   0.37450   0.65310   0.00000  Uiso   1.00
H875   H     0.81701   0.37290   0.35388   0.00000  Uiso   1.00
H876   H     0.87237   0.35807   0.33575   0.00000  Uiso   1.00
C877   C     0.85218   0.43130   0.65052   0.00000  Uiso   1.00
H878   H     0.82069   0.44906   0.64117   0.00000  Uiso   1.00
H879   H     0.87410   0.43428   0.61381   0.00000  Uiso   1.00
H880   H     0.86916   0.45354   0.36144   0.00000  Uiso   1.00
C881   C     0.24669   0.73325   0.48475   0.00000  Uiso   1.00
C882   C     0.25292   0.93320   0.51532   0.00000  Uiso   1.00
C883   C     0.01543   0.73521   0.46879   0.00000  Uiso   1.00
C884   C     0.48547   0.92866   0.53203   0.00000  Uiso   1.00
C885   C     0.24047   0.67700   0.47808   0.00000  Uiso   1.00
C886   C     0.25932   0.98914   0.52253   0.00000  Uiso   1.00
C887   C     0.16475   0.83234   0.50059   0.00000  Uiso   1.00
C888   C     0.33538   0.83274   0.49909   0.00000  Uiso   1.00
C889   C     0.41007   0.88201   0.51090   0.00000  Uiso   1.00
C890   C     0.09071   0.78172   0.48819   0.00000  Uiso   1.00
C891   C     0.38370   0.83404   0.49702   0.00000  Uiso   1.00
C892   C     0.11673   0.82991   0.50189   0.00000  Uiso   1.00
C893   C     0.40330   0.78657   0.48193   0.00000  Uiso   1.00
C894   C     0.09696   0.87710   0.51465   0.00000  Uiso   1.00
C895   C     0.44958   0.78555   0.48113   0.00000  Uiso   1.00
C896   C     0.05083   0.87795   0.51428   0.00000  Uiso   1.00
C897   C     0.47682   0.83275   0.49756   0.00000  Uiso   1.00
C898   C     0.02365   0.83090   0.49842   0.00000  Uiso   1.00
C899   C     0.45731   0.88162   0.51369   0.00000  Uiso   1.00
C900   C     0.04344   0.78213   0.48467   0.00000  Uiso   1.00
C901   C     0.46889   0.73759   0.46671   0.00000  Uiso   1.00
C902   C     0.03204   0.92576   0.53002   0.00000  Uiso   1.00
Cu903  Cu    0.25501   0.83913   0.56146   0.00000  Uiso   1.00
Cu904  Cu    0.24500   0.82754   0.43854   0.00000  Uiso   1.00
H905   H     0.38224   0.75027   0.47106   0.00000  Uiso   1.00
H906   H     0.11783   0.91344   0.52474   0.00000  Uiso   1.00
H907   H     0.44774   0.70152   0.45732   0.00000  Uiso   1.00
H908   H     0.05430   0.96092   0.54125   0.00000  Uiso   1.00
H909   H     0.21443   0.79321   0.64984   0.00000  Uiso   1.00
H910   H     0.28529   0.87389   0.35022   0.00000  Uiso   1.00
N911   N     0.23745   0.81881   0.34617   0.00000  Uiso   1.00
N912   N     0.26256   0.84786   0.65383   0.00000  Uiso   1.00
O913   O     0.25326   0.76204   0.53992   0.00000  Uiso   1.00
O914   O     0.24675   0.90462   0.46008   0.00000  Uiso   1.00
O915   O     0.24480   0.75226   0.43612   0.00000  Uiso   1.00
O916   O     0.25520   0.91441   0.56388   0.00000  Uiso   1.00
O917   O     0.18936   0.83821   0.55191   0.00000  Uiso   1.00
O918   O     0.31065   0.82845   0.44809   0.00000  Uiso   1.00
O919   O     0.18090   0.82843   0.44810   0.00000  Uiso   1.00
O920   O     0.31910   0.83824   0.55190   0.00000  Uiso   1.00
O921   O     0.39053   0.92923   0.52155   0.00000  Uiso   1.00
H922   H     0.35941   0.92423   0.50219   0.00000  Uiso   1.00
O923   O     0.11033   0.73441   0.47714   0.00000  Uiso   1.00
H924   H     0.14290   0.73960   0.48939   0.00000  Uiso   1.00
O925   O     0.03297   0.68782   0.47003   0.00000  Uiso   1.00
C926   C     0.03759   0.99151   0.41099   0.00000  Uiso   1.00
H927   H     0.06661   0.96760   0.41542   0.00000  Uiso   1.00
H928   H     0.04710   0.68296   0.37928   0.00000  Uiso   1.00
C929   C     0.49552   0.95457   0.38651   0.00000  Uiso   1.00
H930   H     0.47864   0.94384   0.42422   0.00000  Uiso   1.00
H931   H     0.47053   0.97432   0.36273   0.00000  Uiso   1.00
C932   C     0.00711   0.90433   0.34406   0.00000  Uiso   1.00
H933   H     0.03051   0.91287   0.64457   0.00000  Uiso   1.00
H934   H     0.47603   0.88322   0.65177   0.00000  Uiso   1.00
H935   H     0.02360   0.87914   0.37144   0.00000  Uiso   1.00
O936   O     0.46632   0.97671   0.54535   0.00000  Uiso   1.00
C937   C     0.49224   0.68156   0.59088   0.00000  Uiso   1.00
H938   H     0.01894   0.70117   0.57142   0.00000  Uiso   1.00
H939   H     0.00894   0.99749   0.62569   0.00000  Uiso   1.00
C940   C     0.46225   0.72283   0.62097   0.00000  Uiso   1.00
H941   H     0.43888   0.73264   0.58532   0.00000  Uiso   1.00
H942   H     0.44273   0.70702   0.65333   0.00000  Uiso   1.00
C943   C     0.48942   0.77248   0.65560   0.00000  Uiso   1.00
H944   H     0.01601   0.76338   0.35444   0.00000  Uiso   1.00
H945   H     0.46684   0.79925   0.34865   0.00000  Uiso   1.00
H946   H     0.00530   0.79212   0.62283   0.00000  Uiso   1.00
O947   O     0.20591   0.98130   0.43756   0.00000  Uiso   1.00
C948   C     0.21007   0.98225   0.37567   0.00000  Uiso   1.00
H949   H     0.21001   0.94108   0.34960   0.00000  Uiso   1.00
H950   H     0.24192   0.66862   0.36708   0.00000  Uiso   1.00
C951   C     0.16898   0.67274   0.35115   0.00000  Uiso   1.00
H952   H     0.13817   0.98270   0.35656   0.00000  Uiso   1.00
H953   H     0.16700   0.71335   0.37790   0.00000  Uiso   1.00
C954   C     0.17037   0.67347   0.61717   0.00000  Uiso   1.00
H955   H     0.19814   0.70101   0.61156   0.00000  Uiso   1.00
H956   H     0.13836   0.68658   0.59975   0.00000  Uiso   1.00
H957   H     0.17524   0.96717   0.58990   0.00000  Uiso   1.00
O958   O     0.27877   0.68691   0.57778   0.00000  Uiso   1.00
C959   C     0.32313   0.67448   0.59066   0.00000  Uiso   1.00
H960   H     0.34457   0.68200   0.55479   0.00000  Uiso   1.00
H961   H     0.32470   0.96644   0.59378   0.00000  Uiso   1.00
C962   C     0.34167   0.70784   0.65310   0.00000  Uiso   1.00
H963   H     0.31701   0.70624   0.35388   0.00000  Uiso   1.00
H964   H     0.37237   0.69140   0.33575   0.00000  Uiso   1.00
C965   C     0.35218   0.76464   0.65052   0.00000  Uiso   1.00
H966   H     0.32069   0.78239   0.64117   0.00000  Uiso   1.00
H967   H     0.37410   0.76761   0.61381   0.00000  Uiso   1.00
H968   H     0.36916   0.78688   0.36144   0.00000  Uiso   1.00
C969   C     0.74669   0.73325   0.48475   0.00000  Uiso   1.00
C970   C     0.75292   0.93320   0.51532   0.00000  Uiso   1.00
C971   C     0.51543   0.73521   0.46879   0.00000  Uiso   1.00
C972   C     0.98547   0.92866   0.53203   0.00000  Uiso   1.00
C973   C     0.74047   0.67700   0.47808   0.00000  Uiso   1.00
C974   C     0.75932   0.98914   0.52253   0.00000  Uiso   1.00
C975   C     0.66475   0.83234   0.50059   0.00000  Uiso   1.00
C976   C     0.83538   0.83274   0.49909   0.00000  Uiso   1.00
C977   C     0.91007   0.88201   0.51090   0.00000  Uiso   1.00
C978   C     0.59071   0.78172   0.48819   0.00000  Uiso   1.00
C979   C     0.88370   0.83404   0.49702   0.00000  Uiso   1.00
C980   C     0.61673   0.82991   0.50189   0.00000  Uiso   1.00
C981   C     0.90330   0.78657   0.48193   0.00000  Uiso   1.00
C982   C     0.59696   0.87710   0.51465   0.00000  Uiso   1.00
C983   C     0.94958   0.78555   0.48113   0.00000  Uiso   1.00
C984   C     0.55083   0.87795   0.51428   0.00000  Uiso   1.00
C985   C     0.97682   0.83275   0.49756   0.00000  Uiso   1.00
C986   C     0.52365   0.83090   0.49842   0.00000  Uiso   1.00
C987   C     0.95731   0.88162   0.51369   0.00000  Uiso   1.00
C988   C     0.54344   0.78213   0.48467   0.00000  Uiso   1.00
C989   C     0.96889   0.73759   0.46671   0.00000  Uiso   1.00
C990   C     0.53204   0.92576   0.53002   0.00000  Uiso   1.00
Cu991  Cu    0.75501   0.83913   0.56146   0.00000  Uiso   1.00
Cu992  Cu    0.74500   0.82754   0.43854   0.00000  Uiso   1.00
H993   H     0.88224   0.75027   0.47106   0.00000  Uiso   1.00
H994   H     0.61783   0.91344   0.52474   0.00000  Uiso   1.00
H995   H     0.94774   0.70152   0.45732   0.00000  Uiso   1.00
H996   H     0.55430   0.96092   0.54125   0.00000  Uiso   1.00
H997   H     0.71443   0.79321   0.64984   0.00000  Uiso   1.00
H998   H     0.78529   0.87389   0.35022   0.00000  Uiso   1.00
N999   N     0.73745   0.81881   0.34617   0.00000  Uiso   1.00
N1000  N     0.76256   0.84786   0.65383   0.00000  Uiso   1.00
O1001  O     0.75326   0.76204   0.53992   0.00000  Uiso   1.00
O1002  O     0.74675   0.90462   0.46008   0.00000  Uiso   1.00
O1003  O     0.74480   0.75226   0.43612   0.00000  Uiso   1.00
O1004  O     0.75520   0.91441   0.56388   0.00000  Uiso   1.00
O1005  O     0.68936   0.83821   0.55191   0.00000  Uiso   1.00
O1006  O     0.81065   0.82845   0.44809   0.00000  Uiso   1.00
O1007  O     0.68090   0.82843   0.44810   0.00000  Uiso   1.00
O1008  O     0.81910   0.83824   0.55190   0.00000  Uiso   1.00
O1009  O     0.89053   0.92923   0.52155   0.00000  Uiso   1.00
H1010  H     0.85941   0.92423   0.50219   0.00000  Uiso   1.00
O1011  O     0.61033   0.73441   0.47714   0.00000  Uiso   1.00
H1012  H     0.64290   0.73960   0.48939   0.00000  Uiso   1.00
O1013  O     0.53297   0.68782   0.47003   0.00000  Uiso   1.00
C1014  C     0.53759   0.99151   0.41099   0.00000  Uiso   1.00
H1015  H     0.56661   0.96760   0.41542   0.00000  Uiso   1.00
H1016  H     0.54710   0.68296   0.37928   0.00000  Uiso   1.00
C1017  C     0.99552   0.95457   0.38651   0.00000  Uiso   1.00
H1018  H     0.97864   0.94384   0.42422   0.00000  Uiso   1.00
H1019  H     0.97053   0.97432   0.36273   0.00000  Uiso   1.00
C1020  C     0.50711   0.90433   0.34406   0.00000  Uiso   1.00
H1021  H     0.53051   0.91287   0.64457   0.00000  Uiso   1.00
H1022  H     0.97603   0.88322   0.65177   0.00000  Uiso   1.00
H1023  H     0.52360   0.87914   0.37144   0.00000  Uiso   1.00
O1024  O     0.96632   0.97671   0.54535   0.00000  Uiso   1.00
C1025  C     0.99224   0.68156   0.59088   0.00000  Uiso   1.00
H1026  H     0.51894   0.70117   0.57142   0.00000  Uiso   1.00
H1027  H     0.50894   0.99749   0.62569   0.00000  Uiso   1.00
C1028  C     0.96225   0.72283   0.62097   0.00000  Uiso   1.00
H1029  H     0.93888   0.73264   0.58532   0.00000  Uiso   1.00
H1030  H     0.94273   0.70702   0.65333   0.00000  Uiso   1.00
C1031  C     0.98942   0.77248   0.65560   0.00000  Uiso   1.00
H1032  H     0.51601   0.76338   0.35444   0.00000  Uiso   1.00
H1033  H     0.96684   0.79925   0.34865   0.00000  Uiso   1.00
H1034  H     0.50530   0.79212   0.62283   0.00000  Uiso   1.00
O1035  O     0.70591   0.98130   0.43756   0.00000  Uiso   1.00
C1036  C     0.71007   0.98225   0.37567   0.00000  Uiso   1.00
H1037  H     0.71001   0.94108   0.34960   0.00000  Uiso   1.00
H1038  H     0.74192   0.66862   0.36708   0.00000  Uiso   1.00
C1039  C     0.66898   0.67274   0.35115   0.00000  Uiso   1.00
H1040  H     0.63817   0.98270   0.35656   0.00000  Uiso   1.00
H1041  H     0.66700   0.71335   0.37790   0.00000  Uiso   1.00
C1042  C     0.67037   0.67347   0.61717   0.00000  Uiso   1.00
H1043  H     0.69814   0.70101   0.61156   0.00000  Uiso   1.00
H1044  H     0.63836   0.68658   0.59975   0.00000  Uiso   1.00
H1045  H     0.67524   0.96717   0.58990   0.00000  Uiso   1.00
O1046  O     0.77877   0.68691   0.57778   0.00000  Uiso   1.00
C1047  C     0.82313   0.67448   0.59066   0.00000  Uiso   1.00
H1048  H     0.84457   0.68200   0.55479   0.00000  Uiso   1.00
H1049  H     0.82470   0.96644   0.59378   0.00000  Uiso   1.00
C1050  C     0.84167   0.70784   0.65310   0.00000  Uiso   1.00
H1051  H     0.81701   0.70624   0.35388   0.00000  Uiso   1.00
H1052  H     0.87237   0.69140   0.33575   0.00000  Uiso   1.00
C1053  C     0.85218   0.76464   0.65052   0.00000  Uiso   1.00
H1054  H     0.82069   0.78239   0.64117   0.00000  Uiso   1.00
H1055  H     0.87410   0.76761   0.61381   0.00000  Uiso   1.00
H1056  H     0.86916   0.78688   0.36144   0.00000  Uiso   1.00
C1057  C     0.24669   0.06658   0.81808   0.00000  Uiso   1.00
C1058  C     0.25292   0.26654   0.84865   0.00000  Uiso   1.00
C1059  C     0.01543   0.06854   0.80213   0.00000  Uiso   1.00
C1060  C     0.48547   0.26199   0.86537   0.00000  Uiso   1.00
C1061  C     0.24047   0.01034   0.81142   0.00000  Uiso   1.00
C1062  C     0.25932   0.32247   0.85586   0.00000  Uiso   1.00
C1063  C     0.16475   0.16567   0.83393   0.00000  Uiso   1.00
C1064  C     0.33538   0.16607   0.83242   0.00000  Uiso   1.00
C1065  C     0.41007   0.21534   0.84424   0.00000  Uiso   1.00
C1066  C     0.09071   0.11505   0.82152   0.00000  Uiso   1.00
C1067  C     0.38370   0.16738   0.83036   0.00000  Uiso   1.00
C1068  C     0.11673   0.16324   0.83522   0.00000  Uiso   1.00
C1069  C     0.40330   0.11991   0.81526   0.00000  Uiso   1.00
C1070  C     0.09696   0.21043   0.84798   0.00000  Uiso   1.00
C1071  C     0.44958   0.11889   0.81447   0.00000  Uiso   1.00
C1072  C     0.05083   0.21128   0.84761   0.00000  Uiso   1.00
C1073  C     0.47682   0.16609   0.83089   0.00000  Uiso   1.00
C1074  C     0.02365   0.16423   0.83175   0.00000  Uiso   1.00
C1075  C     0.45731   0.21495   0.84702   0.00000  Uiso   1.00
C1076  C     0.04344   0.11547   0.81800   0.00000  Uiso   1.00
C1077  C     0.46889   0.07092   0.80004   0.00000  Uiso   1.00
C1078  C     0.03204   0.25910   0.86335   0.00000  Uiso   1.00
Cu1079 Cu    0.25501   0.17246   0.89479   0.00000  Uiso   1.00
Cu1080 Cu    0.24500   0.16087   0.77187   0.00000  Uiso   1.00
H1081  H     0.38224   0.08361   0.80439   0.00000  Uiso   1.00
H1082  H     0.11783   0.24678   0.85807   0.00000  Uiso   1.00
H1083  H     0.44774   0.03485   0.79065   0.00000  Uiso   1.00
H1084  H     0.05430   0.29426   0.87458   0.00000  Uiso   1.00
H1085  H     0.21443   0.12654   0.98317   0.00000  Uiso   1.00
H1086  H     0.28529   0.20722   0.68355   0.00000  Uiso   1.00
N1087  N     0.23745   0.15214   0.67951   0.00000  Uiso   1.00
N1088  N     0.26256   0.18119   0.98716   0.00000  Uiso   1.00
O1089  O     0.25326   0.09538   0.87326   0.00000  Uiso   1.00
O1090  O     0.24675   0.23796   0.79341   0.00000  Uiso   1.00
O1091  O     0.24480   0.08559   0.76945   0.00000  Uiso   1.00
O1092  O     0.25520   0.24774   0.89721   0.00000  Uiso   1.00
O1093  O     0.18936   0.17155   0.88524   0.00000  Uiso   1.00
O1094  O     0.31065   0.16179   0.78143   0.00000  Uiso   1.00
O1095  O     0.18090   0.16176   0.78143   0.00000  Uiso   1.00
O1096  O     0.31910   0.17157   0.88523   0.00000  Uiso   1.00
O1097  O     0.39053   0.26257   0.85488   0.00000  Uiso   1.00
H1098  H     0.35941   0.25756   0.83552   0.00000  Uiso   1.00
O1099  O     0.11033   0.06774   0.81047   0.00000  Uiso   1.00
H1100  H     0.14290   0.07294   0.82272   0.00000  Uiso   1.00
O1101  O     0.03297   0.02115   0.80336   0.00000  Uiso   1.00
C1102  C     0.03759   0.32484   0.74433   0.00000  Uiso   1.00
H1103  H     0.06661   0.30094   0.74875   0.00000  Uiso   1.00
H1104  H     0.04710   0.01629   0.71262   0.00000  Uiso   1.00
C1105  C     0.49552   0.28791   0.71984   0.00000  Uiso   1.00
H1106  H     0.47864   0.27717   0.75756   0.00000  Uiso   1.00
H1107  H     0.47053   0.30765   0.69607   0.00000  Uiso   1.00
C1108  C     0.00711   0.23766   0.67740   0.00000  Uiso   1.00
H1109  H     0.03051   0.24620   0.97790   0.00000  Uiso   1.00
H1110  H     0.47603   0.21655   0.98510   0.00000  Uiso   1.00
H1111  H     0.02360   0.21248   0.70477   0.00000  Uiso   1.00
O1112  O     0.46632   0.31004   0.87869   0.00000  Uiso   1.00
C1113  C     0.49224   0.01489   0.92422   0.00000  Uiso   1.00
H1114  H     0.01894   0.03450   0.90475   0.00000  Uiso   1.00
H1115  H     0.00894   0.33083   0.95902   0.00000  Uiso   1.00
C1116  C     0.46225   0.05616   0.95430   0.00000  Uiso   1.00
H1117  H     0.43888   0.06598   0.91866   0.00000  Uiso   1.00
H1118  H     0.44273   0.04035   0.98666   0.00000  Uiso   1.00
C1119  C     0.48942   0.10581   0.98893   0.00000  Uiso   1.00
H1120  H     0.01601   0.09672   0.68777   0.00000  Uiso   1.00
H1121  H     0.46684   0.13258   0.68198   0.00000  Uiso   1.00
H1122  H     0.00530   0.12545   0.95616   0.00000  Uiso   1.00
O1123  O     0.20591   0.31463   0.77089   0.00000  Uiso   1.00
C1124  C     0.21007   0.31559   0.70900   0.00000  Uiso   1.00
H1125  H     0.21001   0.27441   0.68294   0.00000  Uiso   1.00
H1126  H     0.24192   0.00195   0.70041   0.00000  Uiso   1.00
C1127  C     0.16898   0.00608   0.68448   0.00000  Uiso   1.00
H1128  H     0.13817   0.31603   0.68989   0.00000  Uiso   1.00
H1129  H     0.16700   0.04668   0.71123   0.00000  Uiso   1.00
C1130  C     0.17037   0.00680   0.95051   0.00000  Uiso   1.00
H1131  H     0.19814   0.03434   0.94489   0.00000  Uiso   1.00
H1132  H     0.13836   0.01992   0.93308   0.00000  Uiso   1.00
H1133  H     0.17524   0.30050   0.92323   0.00000  Uiso   1.00
O1134  O     0.27877   0.02024   0.91111   0.00000  Uiso   1.00
C1135  C     0.32313   0.00781   0.92399   0.00000  Uiso   1.00
H1136  H     0.34457   0.01534   0.88812   0.00000  Uiso   1.00
H1137  H     0.32470   0.29977   0.92711   0.00000  Uiso   1.00
C1138  C     0.34167   0.04117   0.98643   0.00000  Uiso   1.00
H1139  H     0.31701   0.03957   0.68721   0.00000  Uiso   1.00
H1140  H     0.37237   0.02474   0.66908   0.00000  Uiso   1.00
C1141  C     0.35218   0.09797   0.98385   0.00000  Uiso   1.00
H1142  H     0.32069   0.11573   0.97450   0.00000  Uiso   1.00
H1143  H     0.37410   0.10094   0.94715   0.00000  Uiso   1.00
H1144  H     0.36916   0.12021   0.69477   0.00000  Uiso   1.00
C1145  C     0.74669   0.06658   0.81808   0.00000  Uiso   1.00
C1146  C     0.75292   0.26654   0.84865   0.00000  Uiso   1.00
C1147  C     0.51543   0.06854   0.80213   0.00000  Uiso   1.00
C1148  C     0.98547   0.26199   0.86537   0.00000  Uiso   1.00
C1149  C     0.74047   0.01034   0.81142   0.00000  Uiso   1.00
C1150  C     0.75932   0.32247   0.85586   0.00000  Uiso   1.00
C1151  C     0.66475   0.16567   0.83393   0.00000  Uiso   1.00
C1152  C     0.83538   0.16607   0.83242   0.00000  Uiso   1.00
C1153  C     0.91007   0.21534   0.84424   0.00000  Uiso   1.00
C1154  C     0.59071   0.11505   0.82152   0.00000  Uiso   1.00
C1155  C     0.88370   0.16738   0.83036   0.00000  Uiso   1.00
C1156  C     0.61673   0.16324   0.83522   0.00000  Uiso   1.00
C1157  C     0.90330   0.11991   0.81526   0.00000  Uiso   1.00
C1158  C     0.59696   0.21043   0.84798   0.00000  Uiso   1.00
C1159  C     0.94958   0.11889   0.81447   0.00000  Uiso   1.00
C1160  C     0.55083   0.21128   0.84761   0.00000  Uiso   1.00
C1161  C     0.97682   0.16609   0.83089   0.00000  Uiso   1.00
C1162  C     0.52365   0.16423   0.83175   0.00000  Uiso   1.00
C1163  C     0.95731   0.21495   0.84702   0.00000  Uiso   1.00
C1164  C     0.54344   0.11547   0.81800   0.00000  Uiso   1.00
C1165  C     0.96889   0.07092   0.80004   0.00000  Uiso   1.00
C1166  C     0.53204   0.25910   0.86335   0.00000  Uiso   1.00
Cu1167 Cu    0.75501   0.17246   0.89479   0.00000  Uiso   1.00
Cu1168 Cu    0.74500   0.16087   0.77187   0.00000  Uiso   1.00
H1169  H     0.88224   0.08361   0.80439   0.00000  Uiso   1.00
H1170  H     0.61783   0.24678   0.85807   0.00000  Uiso   1.00
H1171  H     0.94774   0.03485   0.79065   0.00000  Uiso   1.00
H1172  H     0.55430   0.29426   0.87458   0.00000  Uiso   1.00
H1173  H     0.71443   0.12654   0.98317   0.00000  Uiso   1.00
H1174  H     0.78529   0.20722   0.68355   0.00000  Uiso   1.00
N1175  N     0.73745   0.15214   0.67951   0.00000  Uiso   1.00
N1176  N     0.76256   0.18119   0.98716   0.00000  Uiso   1.00
O1177  O     0.75326   0.09538   0.87326   0.00000  Uiso   1.00
O1178  O     0.74675   0.23796   0.79341   0.00000  Uiso   1.00
O1179  O     0.74480   0.08559   0.76945   0.00000  Uiso   1.00
O1180  O     0.75520   0.24774   0.89721   0.00000  Uiso   1.00
O1181  O     0.68936   0.17155   0.88524   0.00000  Uiso   1.00
O1182  O     0.81065   0.16179   0.78143   0.00000  Uiso   1.00
O1183  O     0.68090   0.16176   0.78143   0.00000  Uiso   1.00
O1184  O     0.81910   0.17157   0.88523   0.00000  Uiso   1.00
O1185  O     0.89053   0.26257   0.85488   0.00000  Uiso   1.00
H1186  H     0.85941   0.25756   0.83552   0.00000  Uiso   1.00
O1187  O     0.61033   0.06774   0.81047   0.00000  Uiso   1.00
H1188  H     0.64290   0.07294   0.82272   0.00000  Uiso   1.00
O1189  O     0.53297   0.02115   0.80336   0.00000  Uiso   1.00
C1190  C     0.53759   0.32484   0.74433   0.00000  Uiso   1.00
H1191  H     0.56661   0.30094   0.74875   0.00000  Uiso   1.00
H1192  H     0.54710   0.01629   0.71262   0.00000  Uiso   1.00
C1193  C     0.99552   0.28791   0.71984   0.00000  Uiso   1.00
H1194  H     0.97864   0.27717   0.75756   0.00000  Uiso   1.00
H1195  H     0.97053   0.30765   0.69607   0.00000  Uiso   1.00
C1196  C     0.50711   0.23766   0.67740   0.00000  Uiso   1.00
H1197  H     0.53051   0.24620   0.97790   0.00000  Uiso   1.00
H1198  H     0.97603   0.21655   0.98510   0.00000  Uiso   1.00
H1199  H     0.52360   0.21248   0.70477   0.00000  Uiso   1.00
O1200  O     0.96632   0.31004   0.87869   0.00000  Uiso   1.00
C1201  C     0.99224   0.01489   0.92422   0.00000  Uiso   1.00
H1202  H     0.51894   0.03450   0.90475   0.00000  Uiso   1.00
H1203  H     0.50894   0.33083   0.95902   0.00000  Uiso   1.00
C1204  C     0.96225   0.05616   0.95430   0.00000  Uiso   1.00
H1205  H     0.93888   0.06598   0.91866   0.00000  Uiso   1.00
H1206  H     0.94273   0.04035   0.98666   0.00000  Uiso   1.00
C1207  C     0.98942   0.10581   0.98893   0.00000  Uiso   1.00
H1208  H     0.51601   0.09672   0.68777   0.00000  Uiso   1.00
H1209  H     0.96684   0.13258   0.68198   0.00000  Uiso   1.00
H1210  H     0.50530   0.12545   0.95616   0.00000  Uiso   1.00
O1211  O     0.70591   0.31463   0.77089   0.00000  Uiso   1.00
C1212  C     0.71007   0.31559   0.70900   0.00000  Uiso   1.00
H1213  H     0.71001   0.27441   0.68294   0.00000  Uiso   1.00
H1214  H     0.74192   0.00195   0.70041   0.00000  Uiso   1.00
C1215  C     0.66898   0.00608   0.68448   0.00000  Uiso   1.00
H1216  H     0.63817   0.31603   0.68989   0.00000  Uiso   1.00
H1217  H     0.66700   0.04668   0.71123   0.00000  Uiso   1.00
C1218  C     0.67037   0.00680   0.95051   0.00000  Uiso   1.00
H1219  H     0.69814   0.03434   0.94489   0.00000  Uiso   1.00
H1220  H     0.63836   0.01992   0.93308   0.00000  Uiso   1.00
H1221  H     0.67524   0.30050   0.92323   0.00000  Uiso   1.00
O1222  O     0.77877   0.02024   0.91111   0.00000  Uiso   1.00
C1223  C     0.82313   0.00781   0.92399   0.00000  Uiso   1.00
H1224  H     0.84457   0.01534   0.88812   0.00000  Uiso   1.00
H1225  H     0.82470   0.29977   0.92711   0.00000  Uiso   1.00
C1226  C     0.84167   0.04117   0.98643   0.00000  Uiso   1.00
H1227  H     0.81701   0.03957   0.68721   0.00000  Uiso   1.00
H1228  H     0.87237   0.02474   0.66908   0.00000  Uiso   1.00
C1229  C     0.85218   0.09797   0.98385   0.00000  Uiso   1.00
H1230  H     0.82069   0.11573   0.97450   0.00000  Uiso   1.00
H1231  H     0.87410   0.10094   0.94715   0.00000  Uiso   1.00
H1232  H     0.86916   0.12021   0.69477   0.00000  Uiso   1.00
C1233  C     0.24669   0.39991   0.81808   0.00000  Uiso   1.00
C1234  C     0.25292   0.59987   0.84865   0.00000  Uiso   1.00
C1235  C     0.01543   0.40187   0.80213   0.00000  Uiso   1.00
C1236  C     0.48547   0.59533   0.86537   0.00000  Uiso   1.00
C1237  C     0.24047   0.34367   0.81142   0.00000  Uiso   1.00
C1238  C     0.25932   0.65581   0.85586   0.00000  Uiso   1.00
C1239  C     0.16475   0.49900   0.83393   0.00000  Uiso   1.00
C1240  C     0.33538   0.49941   0.83242   0.00000  Uiso   1.00
C1241  C     0.41007   0.54867   0.84424   0.00000  Uiso   1.00
C1242  C     0.09071   0.44839   0.82152   0.00000  Uiso   1.00
C1243  C     0.38370   0.50071   0.83036   0.00000  Uiso   1.00
C1244  C     0.11673   0.49658   0.83522   0.00000  Uiso   1.00
C1245  C     0.40330   0.45324   0.81526   0.00000  Uiso   1.00
C1246  C     0.09696   0.54376   0.84798   0.00000  Uiso   1.00
C1247  C     0.44958   0.45222   0.81447   0.00000  Uiso   1.00
C1248  C     0.05083   0.54461   0.84761   0.00000  Uiso   1.00
C1249  C     0.47682   0.49942   0.83089   0.00000  Uiso   1.00
C1250  C     0.02365   0.49757   0.83175   0.00000  Uiso   1.00
C1251  C     0.45731   0.54829   0.84702   0.00000  Uiso   1.00
C1252  C     0.04344   0.44880   0.81800   0.00000  Uiso   1.00
C1253  C     0.46889   0.40425   0.80004   0.00000  Uiso   1.00
C1254  C     0.03204   0.59243   0.86335   0.00000  Uiso   1.00
Cu1255 Cu    0.25501   0.50579   0.89479   0.00000  Uiso   1.00
Cu1256 Cu    0.24500   0.49421   0.77187   0.00000  Uiso   1.00
H1257  H     0.38224   0.41694   0.80439   0.00000  Uiso   1.00
H1258  H     0.11783   0.58011   0.85807   0.00000  Uiso   1.00
H1259  H     0.44774   0.36819   0.79065   0.00000  Uiso   1.00
H1260  H     0.05430   0.62759   0.87458   0.00000  Uiso   1.00
H1261  H     0.21443   0.45987   0.98317   0.00000  Uiso   1.00
H1262  H     0.28529   0.54055   0.68355   0.00000  Uiso   1.00
N1263  N     0.23745   0.48547   0.67951   0.00000  Uiso   1.00
N1264  N     0.26256   0.51453   0.98716   0.00000  Uiso   1.00
O1265  O     0.25326   0.42871   0.87326   0.00000  Uiso   1.00
O1266  O     0.24675   0.57129   0.79341   0.00000  Uiso   1.00
O1267  O     0.24480   0.41892   0.76945   0.00000  Uiso   1.00
O1268  O     0.25520   0.58108   0.89721   0.00000  Uiso   1.00
O1269  O     0.18936   0.50488   0.88524   0.00000  Uiso   1.00
O1270  O     0.31065   0.49512   0.78143   0.00000  Uiso   1.00
O1271  O     0.18090   0.49510   0.78143   0.00000  Uiso   1.00
O1272  O     0.31910   0.50490   0.88523   0.00000  Uiso   1.00
O1273  O     0.39053   0.59590   0.85488   0.00000  Uiso   1.00
H1274  H     0.35941   0.59090   0.83552   0.00000  Uiso   1.00
O1275  O     0.11033   0.40107   0.81047   0.00000  Uiso   1.00
H1276  H     0.14290   0.40627   0.82272   0.00000  Uiso   1.00
O1277  O     0.03297   0.35448   0.80336   0.00000  Uiso   1.00
C1278  C     0.03759   0.65818   0.74433   0.00000  Uiso   1.00
H1279  H     0.06661   0.63427   0.74875   0.00000  Uiso   1.00
H1280  H     0.04710   0.34963   0.71262   0.00000  Uiso   1.00
C1281  C     0.49552   0.62124   0.71984   0.00000  Uiso   1.00
H1282  H     0.47864   0.61051   0.75756   0.00000  Uiso   1.00
H1283  H     0.47053   0.64098   0.69607   0.00000  Uiso   1.00
C1284  C     0.00711   0.57099   0.67740   0.00000  Uiso   1.00
H1285  H     0.03051   0.57954   0.97790   0.00000  Uiso   1.00
H1286  H     0.47603   0.54989   0.98510   0.00000  Uiso   1.00
H1287  H     0.02360   0.54581   0.70477   0.00000  Uiso   1.00
O1288  O     0.46632   0.64337   0.87869   0.00000  Uiso   1.00
C1289  C     0.49224   0.34822   0.92422   0.00000  Uiso   1.00
H1290  H     0.01894   0.36784   0.90475   0.00000  Uiso   1.00
H1291  H     0.00894   0.66416   0.95902   0.00000  Uiso   1.00
C1292  C     0.46225   0.38949   0.95430   0.00000  Uiso   1.00
H1293  H     0.43888   0.39931   0.91866   0.00000  Uiso   1.00
H1294  H     0.44273   0.37368   0.98666   0.00000  Uiso   1.00
C1295  C     0.48942   0.43915   0.98893   0.00000  Uiso   1.00
H1296  H     0.01601   0.43005   0.68777   0.00000  Uiso   1.00
H1297  H     0.46684   0.46591   0.68198   0.00000  Uiso   1.00
H1298  H     0.00530   0.45878   0.95616   0.00000  Uiso   1.00
O1299  O     0.20591   0.64797   0.77089   0.00000  Uiso   1.00
C1300  C     0.21007   0.64892   0.70900   0.00000  Uiso   1.00
H1301  H     0.21001   0.60774   0.68294   0.00000  Uiso   1.00
H1302  H     0.24192   0.33529   0.70041   0.00000  Uiso   1.00
C1303  C     0.16898   0.33941   0.68448   0.00000  Uiso   1.00
H1304  H     0.13817   0.64937   0.68989   0.00000  Uiso   1.00
H1305  H     0.16700   0.38001   0.71123   0.00000  Uiso   1.00
C1306  C     0.17037   0.34014   0.95051   0.00000  Uiso   1.00
H1307  H     0.19814   0.36767   0.94489   0.00000  Uiso   1.00
H1308  H     0.13836   0.35325   0.93308   0.00000  Uiso   1.00
H1309  H     0.17524   0.63384   0.92323   0.00000  Uiso   1.00
O1310  O     0.27877   0.35358   0.91111   0.00000  Uiso   1.00
C1311  C     0.32313   0.34114   0.92399   0.00000  Uiso   1.00
H1312  H     0.34457   0.34867   0.88812   0.00000  Uiso   1.00
H1313  H     0.32470   0.63310   0.92711   0.00000  Uiso   1.00
C1314  C     0.34167   0.37450   0.98643   0.00000  Uiso   1.00
H1315  H     0.31701   0.37290   0.68721   0.00000  Uiso   1.00
H1316  H     0.37237   0.35807   0.66908   0.00000  Uiso   1.00
C1317  C     0.35218   0.43130   0.98385   0.00000  Uiso   1.00
H1318  H     0.32069   0.44906   0.97450   0.00000  Uiso   1.00
H1319  H     0.37410   0.43428   0.94715   0.00000  Uiso   1.00
H1320  H     0.36916   0.45354   0.69477   0.00000  Uiso   1.00
C1321  C     0.74669   0.39991   0.81808   0.00000  Uiso   1.00
C1322  C     0.75292   0.59987   0.84865   0.00000  Uiso   1.00
C1323  C     0.51543   0.40187   0.80213   0.00000  Uiso   1.00
C1324  C     0.98547   0.59533   0.86537   0.00000  Uiso   1.00
C1325  C     0.74047   0.34367   0.81142   0.00000  Uiso   1.00
C1326  C     0.75932   0.65581   0.85586   0.00000  Uiso   1.00
C1327  C     0.66475   0.49900   0.83393   0.00000  Uiso   1.00
C1328  C     0.83538   0.49941   0.83242   0.00000  Uiso   1.00
C1329  C     0.91007   0.54867   0.84424   0.00000  Uiso   1.00
C1330  C     0.59071   0.44839   0.82152   0.00000  Uiso   1.00
C1331  C     0.88370   0.50071   0.83036   0.00000  Uiso   1.00
C1332  C     0.61673   0.49658   0.83522   0.00000  Uiso   1.00
C1333  C     0.90330   0.45324   0.81526   0.00000  Uiso   1.00
C1334  C     0.59696   0.54376   0.84798   0.00000  Uiso   1.00
C1335  C     0.94958   0.45222   0.81447   0.00000  Uiso   1.00
C1336  C     0.55083   0.54461   0.84761   0.00000  Uiso   1.00
C1337  C     0.97682   0.49942   0.83089   0.00000  Uiso   1.00
C1338  C     0.52365   0.49757   0.83175   0.00000  Uiso   1.00
C1339  C     0.95731   0.54829   0.84702   0.00000  Uiso   1.00
C1340  C     0.54344   0.44880   0.81800   0.00000  Uiso   1.00
C1341  C     0.96889   0.40425   0.80004   0.00000  Uiso   1.00
C1342  C     0.53204   0.59243   0.86335   0.00000  Uiso   1.00
Cu1343 Cu    0.75501   0.50579   0.89479   0.00000  Uiso   1.00
Cu1344 Cu    0.74500   0.49421   0.77187   0.00000  Uiso   1.00
H1345  H     0.88224   0.41694   0.80439   0.00000  Uiso   1.00
H1346  H     0.61783   0.58011   0.85807   0.00000  Uiso   1.00
H1347  H     0.94774   0.36819   0.79065   0.00000  Uiso   1.00
H1348  H     0.55430   0.62759   0.87458   0.00000  Uiso   1.00
H1349  H     0.71443   0.45987   0.98317   0.00000  Uiso   1.00
H1350  H     0.78529   0.54055   0.68355   0.00000  Uiso   1.00
N1351  N     0.73745   0.48547   0.67951   0.00000  Uiso   1.00
N1352  N     0.76256   0.51453   0.98716   0.00000  Uiso   1.00
O1353  O     0.75326   0.42871   0.87326   0.00000  Uiso   1.00
O1354  O     0.74675   0.57129   0.79341   0.00000  Uiso   1.00
O1355  O     0.74480   0.41892   0.76945   0.00000  Uiso   1.00
O1356  O     0.75520   0.58108   0.89721   0.00000  Uiso   1.00
O1357  O     0.68936   0.50488   0.88524   0.00000  Uiso   1.00
O1358  O     0.81065   0.49512   0.78143   0.00000  Uiso   1.00
O1359  O     0.68090   0.49510   0.78143   0.00000  Uiso   1.00
O1360  O     0.81910   0.50490   0.88523   0.00000  Uiso   1.00
O1361  O     0.89053   0.59590   0.85488   0.00000  Uiso   1.00
H1362  H     0.85941   0.59090   0.83552   0.00000  Uiso   1.00
O1363  O     0.61033   0.40107   0.81047   0.00000  Uiso   1.00
H1364  H     0.64290   0.40627   0.82272   0.00000  Uiso   1.00
O1365  O     0.53297   0.35448   0.80336   0.00000  Uiso   1.00
C1366  C     0.53759   0.65818   0.74433   0.00000  Uiso   1.00
H1367  H     0.56661   0.63427   0.74875   0.00000  Uiso   1.00
H1368  H     0.54710   0.34963   0.71262   0.00000  Uiso   1.00
C1369  C     0.99552   0.62124   0.71984   0.00000  Uiso   1.00
H1370  H     0.97864   0.61051   0.75756   0.00000  Uiso   1.00
H1371  H     0.97053   0.64098   0.69607   0.00000  Uiso   1.00
C1372  C     0.50711   0.57099   0.67740   0.00000  Uiso   1.00
H1373  H     0.53051   0.57954   0.97790   0.00000  Uiso   1.00
H1374  H     0.97603   0.54989   0.98510   0.00000  Uiso   1.00
H1375  H     0.52360   0.54581   0.70477   0.00000  Uiso   1.00
O1376  O     0.96632   0.64337   0.87869   0.00000  Uiso   1.00
C1377  C     0.99224   0.34822   0.92422   0.00000  Uiso   1.00
H1378  H     0.51894   0.36784   0.90475   0.00000  Uiso   1.00
H1379  H     0.50894   0.66416   0.95902   0.00000  Uiso   1.00
C1380  C     0.96225   0.38949   0.95430   0.00000  Uiso   1.00
H1381  H     0.93888   0.39931   0.91866   0.00000  Uiso   1.00
H1382  H     0.94273   0.37368   0.98666   0.00000  Uiso   1.00
C1383  C     0.98942   0.43915   0.98893   0.00000  Uiso   1.00
H1384  H     0.51601   0.43005   0.68777   0.00000  Uiso   1.00
H1385  H     0.96684   0.46591   0.68198   0.00000  Uiso   1.00
H1386  H     0.50530   0.45878   0.95616   0.00000  Uiso   1.00
O1387  O     0.70591   0.64797   0.77089   0.00000  Uiso   1.00
C1388  C     0.71007   0.64892   0.70900   0.00000  Uiso   1.00
H1389  H     0.71001   0.60774   0.68294   0.00000  Uiso   1.00
H1390  H     0.74192   0.33529   0.70041   0.00000  Uiso   1.00
C1391  C     0.66898   0.33941   0.68448   0.00000  Uiso   1.00
H1392  H     0.63817   0.64937   0.68989   0.00000  Uiso   1.00
H1393  H     0.66700   0.38001   0.71123   0.00000  Uiso   1.00
C1394  C     0.67037   0.34014   0.95051   0.00000  Uiso   1.00
H1395  H     0.69814   0.36767   0.94489   0.00000  Uiso   1.00
H1396  H     0.63836   0.35325   0.93308   0.00000  Uiso   1.00
H1397  H     0.67524   0.63384   0.92323   0.00000  Uiso   1.00
O1398  O     0.77877   0.35358   0.91111   0.00000  Uiso   1.00
C1399  C     0.82313   0.34114   0.92399   0.00000  Uiso   1.00
H1400  H     0.84457   0.34867   0.88812   0.00000  Uiso   1.00
H1401  H     0.82470   0.63310   0.92711   0.00000  Uiso   1.00
C1402  C     0.84167   0.37450   0.98643   0.00000  Uiso   1.00
H1403  H     0.81701   0.37290   0.68721   0.00000  Uiso   1.00
H1404  H     0.87237   0.35807   0.66908   0.00000  Uiso   1.00
C1405  C     0.85218   0.43130   0.98385   0.00000  Uiso   1.00
H1406  H     0.82069   0.44906   0.97450   0.00000  Uiso   1.00
H1407  H     0.87410   0.43428   0.94715   0.00000  Uiso   1.00
H1408  H     0.86916   0.45354   0.69477   0.00000  Uiso   1.00
C1409  C     0.24669   0.73325   0.81808   0.00000  Uiso   1.00
C1410  C     0.25292   0.93320   0.84865   0.00000  Uiso   1.00
C1411  C     0.01543   0.73521   0.80213   0.00000  Uiso   1.00
C1412  C     0.48547   0.92866   0.86537   0.00000  Uiso   1.00
C1413  C     0.24047   0.67700   0.81142   0.00000  Uiso   1.00
C1414  C     0.25932   0.98914   0.85586   0.00000  Uiso   1.00
C1415  C     0.16475   0.83234   0.83393   0.00000  Uiso   1.00
C1416  C     0.33538   0.83274   0.83242   0.00000  Uiso   1.00
C1417  C     0.41007   0.88201   0.84424   0.00000  Uiso   1.00
C1418  C     0.09071   0.78172   0.82152   0.00000  Uiso   1.00
C1419  C     0.38370   0.83404   0.83036   0.00000  Uiso   1.00
C1420  C     0.11673   0.82991   0.83522   0.00000  Uiso   1.00
C1421  C     0.40330   0.78657   0.81526   0.00000  Uiso   1.00
C1422  C     0.09696   0.87710   0.84798   0.00000  Uiso   1.00
C1423  C     0.44958   0.78555   0.81447   0.00000  Uiso   1.00
C1424  C     0.05083   0.87795   0.84761   0.00000  Uiso   1.00
C1425  C     0.47682   0.83275   0.83089   0.00000  Uiso   1.00
C1426  C     0.02365   0.83090   0.83175   0.00000  Uiso   1.00
C1427  C     0.45731   0.88162   0.84702   0.00000  Uiso   1.00
C1428  C     0.04344   0.78213   0.81800   0.00000  Uiso   1.00
C1429  C     0.46889   0.73759   0.80004   0.00000  Uiso   1.00
C1430  C     0.03204   0.92576   0.86335   0.00000  Uiso   1.00
Cu1431 Cu    0.25501   0.83913   0.89479   0.00000  Uiso   1.00
Cu1432 Cu    0.24500   0.82754   0.77187   0.00000  Uiso   1.00
H1433  H     0.38224   0.75027   0.80439   0.00000  Uiso   1.00
H1434  H     0.11783   0.91344   0.85807   0.00000  Uiso   1.00
H1435  H     0.44774   0.70152   0.79065   0.00000  Uiso   1.00
H1436  H     0.05430   0.96092   0.87458   0.00000  Uiso   1.00
H1437  H     0.21443   0.79321   0.98317   0.00000  Uiso   1.00
H1438  H     0.28529   0.87389   0.68355   0.00000  Uiso   1.00
N1439  N     0.23745   0.81881   0.67951   0.00000  Uiso   1.00
N1440  N     0.26256   0.84786   0.98716   0.00000  Uiso   1.00
O1441  O     0.25326   0.76204   0.87326   0.00000  Uiso   1.00
O1442  O     0.24675   0.90462   0.79341   0.00000  Uiso   1.00
O1443  O     0.24480   0.75226   0.76945   0.00000  Uiso   1.00
O1444  O     0.25520   0.91441   0.89721   0.00000  Uiso   1.00
O1445  O     0.18936   0.83821   0.88524   0.00000  Uiso   1.00
O1446  O     0.31065   0.82845   0.78143   0.00000  Uiso   1.00
O1447  O     0.18090   0.82843   0.78143   0.00000  Uiso   1.00
O1448  O     0.31910   0.83824   0.88523   0.00000  Uiso   1.00
O1449  O     0.39053   0.92923   0.85488   0.00000  Uiso   1.00
H1450  H     0.35941   0.92423   0.83552   0.00000  Uiso   1.00
O1451  O     0.11033   0.73441   0.81047   0.00000  Uiso   1.00
H1452  H     0.14290   0.73960   0.82272   0.00000  Uiso   1.00
O1453  O     0.03297   0.68782   0.80336   0.00000  Uiso   1.00
C1454  C     0.03759   0.99151   0.74433   0.00000  Uiso   1.00
H1455  H     0.06661   0.96760   0.74875   0.00000  Uiso   1.00
H1456  H     0.04710   0.68296   0.71262   0.00000  Uiso   1.00
C1457  C     0.49552   0.95457   0.71984   0.00000  Uiso   1.00
H1458  H     0.47864   0.94384   0.75756   0.00000  Uiso   1.00
H1459  H     0.47053   0.97432   0.69607   0.00000  Uiso   1.00
C1460  C     0.00711   0.90433   0.67740   0.00000  Uiso   1.00
H1461  H     0.03051   0.91287   0.97790   0.00000  Uiso   1.00
H1462  H     0.47603   0.88322   0.98510   0.00000  Uiso   1.00
H1463  H     0.02360   0.87914   0.70477   0.00000  Uiso   1.00
O1464  O     0.46632   0.97671   0.87869   0.00000  Uiso   1.00
C1465  C     0.49224   0.68156   0.92422   0.00000  Uiso   1.00
H1466  H     0.01894   0.70117   0.90475   0.00000  Uiso   1.00
H1467  H     0.00894   0.99749   0.95902   0.00000  Uiso   1.00
C1468  C     0.46225   0.72283   0.95430   0.00000  Uiso   1.00
H1469  H     0.43888   0.73264   0.91866   0.00000  Uiso   1.00
H1470  H     0.44273   0.70702   0.98666   0.00000  Uiso   1.00
C1471  C     0.48942   0.77248   0.98893   0.00000  Uiso   1.00
H1472  H     0.01601   0.76338   0.68777   0.00000  Uiso   1.00
H1473  H     0.46684   0.79925   0.68198   0.00000  Uiso   1.00
H1474  H     0.00530   0.79212   0.95616   0.00000  Uiso   1.00
O1475  O     0.20591   0.98130   0.77089   0.00000  Uiso   1.00
C1476  C     0.21007   0.98225   0.70900   0.00000  Uiso   1.00
H1477  H     0.21001   0.94108   0.68294   0.00000  Uiso   1.00
H1478  H     0.24192   0.66862   0.70041   0.00000  Uiso   1.00
C1479  C     0.16898   0.67274   0.68448   0.00000  Uiso   1.00
H1480  H     0.13817   0.98270   0.68989   0.00000  Uiso   1.00
H1481  H     0.16700   0.71335   0.71123   0.00000  Uiso   1.00
C1482  C     0.17037   0.67347   0.95051   0.00000  Uiso   1.00
H1483  H     0.19814   0.70101   0.94489   0.00000  Uiso   1.00
H1484  H     0.13836   0.68658   0.93308   0.00000  Uiso   1.00
H1485  H     0.17524   0.96717   0.92323   0.00000  Uiso   1.00
O1486  O     0.27877   0.68691   0.91111   0.00000  Uiso   1.00
C1487  C     0.32313   0.67448   0.92399   0.00000  Uiso   1.00
H1488  H     0.34457   0.68200   0.88812   0.00000  Uiso   1.00
H1489  H     0.32470   0.96644   0.92711   0.00000  Uiso   1.00
C1490  C     0.34167   0.70784   0.98643   0.00000  Uiso   1.00
H1491  H     0.31701   0.70624   0.68721   0.00000  Uiso   1.00
H1492  H     0.37237   0.69140   0.66908   0.00000  Uiso   1.00
C1493  C     0.35218   0.76464   0.98385   0.00000  Uiso   1.00
H1494  H     0.32069   0.78239   0.97450   0.00000  Uiso   1.00
H1495  H     0.37410   0.76761   0.94715   0.00000  Uiso   1.00
H1496  H     0.36916   0.78688   0.69477   0.00000  Uiso   1.00
C1497  C     0.74669   0.73325   0.81808   0.00000  Uiso   1.00
C1498  C     0.75292   0.93320   0.84865   0.00000  Uiso   1.00
C1499  C     0.51543   0.73521   0.80213   0.00000  Uiso   1.00
C1500  C     0.98547   0.92866   0.86537   0.00000  Uiso   1.00
C1501  C     0.74047   0.67700   0.81142   0.00000  Uiso   1.00
C1502  C     0.75932   0.98914   0.85586   0.00000  Uiso   1.00
C1503  C     0.66475   0.83234   0.83393   0.00000  Uiso   1.00
C1504  C     0.83538   0.83274   0.83242   0.00000  Uiso   1.00
C1505  C     0.91007   0.88201   0.84424   0.00000  Uiso   1.00
C1506  C     0.59071   0.78172   0.82152   0.00000  Uiso   1.00
C1507  C     0.88370   0.83404   0.83036   0.00000  Uiso   1.00
C1508  C     0.61673   0.82991   0.83522   0.00000  Uiso   1.00
C1509  C     0.90330   0.78657   0.81526   0.00000  Uiso   1.00
C1510  C     0.59696   0.87710   0.84798   0.00000  Uiso   1.00
C1511  C     0.94958   0.78555   0.81447   0.00000  Uiso   1.00
C1512  C     0.55083   0.87795   0.84761   0.00000  Uiso   1.00
C1513  C     0.97682   0.83275   0.83089   0.00000  Uiso   1.00
C1514  C     0.52365   0.83090   0.83175   0.00000  Uiso   1.00
C1515  C     0.95731   0.88162   0.84702   0.00000  Uiso   1.00
C1516  C     0.54344   0.78213   0.81800   0.00000  Uiso   1.00
C1517  C     0.96889   0.73759   0.80004   0.00000  Uiso   1.00
C1518  C     0.53204   0.92576   0.86335   0.00000  Uiso   1.00
Cu1519 Cu    0.75501   0.83913   0.89479   0.00000  Uiso   1.00
Cu1520 Cu    0.74500   0.82754   0.77187   0.00000  Uiso   1.00
H1521  H     0.88224   0.75027   0.80439   0.00000  Uiso   1.00
H1522  H     0.61783   0.91344   0.85807   0.00000  Uiso   1.00
H1523  H     0.94774   0.70152   0.79065   0.00000  Uiso   1.00
H1524  H     0.55430   0.96092   0.87458   0.00000  Uiso   1.00
H1525  H     0.71443   0.79321   0.98317   0.00000  Uiso   1.00
H1526  H     0.78529   0.87389   0.68355   0.00000  Uiso   1.00
N1527  N     0.73745   0.81881   0.67951   0.00000  Uiso   1.00
N1528  N     0.76256   0.84786   0.98716   0.00000  Uiso   1.00
O1529  O     0.75326   0.76204   0.87326   0.00000  Uiso   1.00
O1530  O     0.74675   0.90462   0.79341   0.00000  Uiso   1.00
O1531  O     0.74480   0.75226   0.76945   0.00000  Uiso   1.00
O1532  O     0.75520   0.91441   0.89721   0.00000  Uiso   1.00
O1533  O     0.68936   0.83821   0.88524   0.00000  Uiso   1.00
O1534  O     0.81065   0.82845   0.78143   0.00000  Uiso   1.00
O1535  O     0.68090   0.82843   0.78143   0.00000  Uiso   1.00
O1536  O     0.81910   0.83824   0.88523   0.00000  Uiso   1.00
O1537  O     0.89053   0.92923   0.85488   0.00000  Uiso   1.00
H1538  H     0.85941   0.92423   0.83552   0.00000  Uiso   1.00
O1539  O     0.61033   0.73441   0.81047   0.00000  Uiso   1.00
H1540  H     0.64290   0.73960   0.82272   0.00000  Uiso   1.00
O1541  O     0.53297   0.68782   0.80336   0.00000  Uiso   1.00
C1542  C     0.53759   0.99151   0.74433   0.00000  Uiso   1.00
H1543  H     0.56661   0.96760   0.74875   0.00000  Uiso   1.00
H1544  H     0.54710   0.68296   0.71262   0.00000  Uiso   1.00
C1545  C     0.99552   0.95457   0.71984   0.00000  Uiso   1.00
H1546  H     0.97864   0.94384   0.75756   0.00000  Uiso   1.00
H1547  H     0.97053   0.97432   0.69607   0.00000  Uiso   1.00
C1548  C     0.50711   0.90433   0.67740   0.00000  Uiso   1.00
H1549  H     0.53051   0.91287   0.97790   0.00000  Uiso   1.00
H1550  H     0.97603   0.88322   0.98510   0.00000  Uiso   1.00
H1551  H     0.52360   0.87914   0.70477   0.00000  Uiso   1.00
O1552  O     0.96632   0.97671   0.87869   0.00000  Uiso   1.00
C1553  C     0.99224   0.68156   0.92422   0.00000  Uiso   1.00
H1554  H     0.51894   0.70117   0.90475   0.00000  Uiso   1.00
H1555  H     0.50894   0.99749   0.95902   0.00000  Uiso   1.00
C1556  C     0.96225   0.72283   0.95430   0.00000  Uiso   1.00
H1557  H     0.93888   0.73264   0.91866   0.00000  Uiso   1.00
H1558  H     0.94273   0.70702   0.98666   0.00000  Uiso   1.00
C1559  C     0.98942   0.77248   0.98893   0.00000  Uiso   1.00
H1560  H     0.51601   0.76338   0.68777   0.00000  Uiso   1.00
H1561  H     0.96684   0.79925   0.68198   0.00000  Uiso   1.00
H1562  H     0.50530   0.79212   0.95616   0.00000  Uiso   1.00
O1563  O     0.70591   0.98130   0.77089   0.00000  Uiso   1.00
C1564  C     0.71007   0.98225   0.70900   0.00000  Uiso   1.00
H1565  H     0.71001   0.94108   0.68294   0.00000  Uiso   1.00
H1566  H     0.74192   0.66862   0.70041   0.00000  Uiso   1.00
C1567  C     0.66898   0.67274   0.68448   0.00000  Uiso   1.00
H1568  H     0.63817   0.98270   0.68989   0.00000  Uiso   1.00
H1569  H     0.66700   0.71335   0.71123   0.00000  Uiso   1.00
C1570  C     0.67037   0.67347   0.95051   0.00000  Uiso   1.00
H1571  H     0.69814   0.70101   0.94489   0.00000  Uiso   1.00
H1572  H     0.63836   0.68658   0.93308   0.00000  Uiso   1.00
H1573  H     0.67524   0.96717   0.92323   0.00000  Uiso   1.00
O1574  O     0.77877   0.68691   0.91111   0.00000  Uiso   1.00
C1575  C     0.82313   0.67448   0.92399   0.00000  Uiso   1.00
H1576  H     0.84457   0.68200   0.88812   0.00000  Uiso   1.00
H1577  H     0.82470   0.96644   0.92711   0.00000  Uiso   1.00
C1578  C     0.84167   0.70784   0.98643   0.00000  Uiso   1.00
H1579  H     0.81701   0.70624   0.68721   0.00000  Uiso   1.00
H1580  H     0.87237   0.69140   0.66908   0.00000  Uiso   1.00
C1581  C     0.85218   0.76464   0.98385   0.00000  Uiso   1.00
H1582  H     0.82069   0.78239   0.97450   0.00000  Uiso   1.00
H1583  H     0.87410   0.76761   0.94715   0.00000  Uiso   1.00
H1584  H     0.86916   0.78688   0.69477   0.00000  Uiso   1.00
loop_
_geom_bond_atom_site_label_1
_geom_bond_atom_site_label_2
_geom_bond_distance
_geom_bond_site_symmetry_2
_ccdc_geom_bond_type
C1     O33     1.298   .     A
C1     C5      1.454   .     S
C1     O35     1.300   .     A
C2     O34     1.297   .     A
C2     C6      1.444   .     S
C2     O36     1.295   .     A
C3     O45     1.383   .     S
C3     C20     1.416   .     A
C3     C109    1.398   1_455 S
C4     C19     1.422   .     A
C4     O56     1.397   .     S
C4     C110    1.406   .     S
C5     C358    1.352   1_545 S
C5     O419    1.398   1_545 S
C6     C181    1.352   .     S
C6     O254    1.395   .     S
C7     C12     1.441   .     S
C7     O37     1.298   .     A
C7     O39     1.296   .     A
C8     O38     1.299   .     A
C8     C11     1.452   .     S
C8     O40     1.301   .     A
C9     C19     1.414   .     A
C9     C11     1.413   .     A
C9     O41     1.382   .     S
C10    C20     1.415   .     A
C10    C12     1.412   .     A
C10    O43     1.385   .     S
C11    C13     1.392   .     A
C12    C14     1.385   .     A
C13    H25     1.086   .     S
C13    C15     1.391   .     A
C14    H26     1.084   .     S
C14    C16     1.384   .     A
C15    C17     1.410   .     A
C15    C21     1.399   .     A
C16    C18     1.405   .     A
C16    C22     1.390   .     A
C17    C19     1.425   .     A
C17    C106    1.407   .     S
C18    C20     1.423   .     A
C18    C105    1.407   1_455 S
C21    H27     1.083   .     S
C21    C91     1.398   .     S
C22    H28     1.081   .     S
C22    C92     1.406   1_455 S
Cu23   O40     1.951   .     S
Cu23   O36     1.968   .     S
Cu23   O33     1.974   .     S
Cu23   Cu24    2.708   .     S
Cu23   O37     1.963   .     S
Cu23   N32     2.035   .     S
Cu24   O39     1.951   .     S
Cu24   O38     1.963   .     S
Cu24   O35     1.968   .     S
Cu24   O34     1.974   .     S
Cu24   N31     2.035   .     S
H29    N559    1.028   .     S
H30    N1088   1.029   1_554 S
N31    H1085   1.028   1_554 S
N31    N1088   1.298   1_554 S
N32    N559    1.298   .     S
N32    H558    1.029   .     S
O41    H42     0.989   .     S
O43    H44     0.989   .     S
O45    C398    1.404   1_545 S
C46    H47     1.112   .     S
C46    O221    1.404   .     S
C46    H224    1.111   .     S
C46    C137    1.538   1_455 S
H48    C398    1.111   1_545 S
C49    H51     1.106   .     S
C49    H50     1.101   .     S
C49    C134    1.538   .     S
C49    C140    1.522   .     S
C52    H55     1.111   .     S
C52    C137    1.522   1_455 S
C52    H1109   1.106   1_554 S
C52    H1198   1.110   1_454 S
H53    C580    1.106   .     S
H54    C668    1.110   .     S
O56    C233    1.415   .     S
C57    C60     1.521   .     S
C57    O408    1.415   1_545 S
C57    H146    1.099   .     S
C57    H499    1.095   1_545 S
H58    C145    1.099   1_455 S
H59    C321    1.095   1_455 S
C60    C63     1.522   .     S
C60    H62     1.104   .     S
C60    H61     1.109   .     S
C63    H680    1.108   .     S
C63    H593    1.110   .     S
C63    H154    1.111   .     S
H64    C1207   1.108   1_454 S
H65    C1119   1.110   1_554 S
H66    C151    1.111   1_455 S
O67    C68     1.414   .     S
O67    C181    1.398   .     S
C68    H69     1.111   .     S
C68    H246    1.113   .     S
C68    C247    1.533   .     S
H70    C420    1.113   1_545 S
C71    H73     1.110   .     S
C71    C420    1.533   1_545 S
C71    H424    1.112   1_545 S
C71    C1130   1.524   1_554 S
H72    C247    1.112   .     S
C74    H76     1.111   .     S
C74    H75     1.107   .     S
C74    C599    1.524   .     S
C74    H429    1.109   1_545 S
H77    C250    1.109   .     S
O78    C79     1.411   .     S
O78    C358    1.395   1_545 S
C79    C82     1.529   .     S
C79    H80     1.114   .     S
C79    H433    1.109   1_545 S
H81    C255    1.109   .     S
C82    C85     1.525   .     S
C82    H611    1.111   .     S
C82    H612    1.107   .     S
H83    C1138   1.111   1_554 S
H84    C1138   1.107   1_554 S
C85    H86     1.102   .     S
C85    H87     1.107   .     S
C85    H616    1.108   .     S
H88    C1141   1.108   1_554 S
C89    O121    1.298   .     A
C89    C93     1.454   .     S
C89    O123    1.300   .     A
C90    O122    1.297   .     A
C90    C94     1.444   .     S
C90    O124    1.295   .     A
C91    O133    1.383   .     S
C91    C108    1.416   .     A
C92    C107    1.422   .     A
C92    O144    1.397   .     S
C92    C22     1.406   1_655 S
C93    C446    1.352   1_545 S
C93    O507    1.398   1_545 S
C94    C269    1.352   .     S
C94    O342    1.395   .     S
C95    C100    1.441   .     S
C95    O125    1.298   .     A
C95    O127    1.296   .     A
C96    O126    1.299   .     A
C96    C99     1.452   .     S
C96    O128    1.301   .     A
C97    C107    1.414   .     A
C97    C99     1.413   .     A
C97    O129    1.382   .     S
C98    C108    1.415   .     A
C98    C100    1.412   .     A
C98    O131    1.385   .     S
C99    C101    1.392   .     A
C100   C102    1.385   .     A
C101   H113    1.086   .     S
C101   C103    1.391   .     A
C102   H114    1.084   .     S
C102   C104    1.384   .     A
C103   C105    1.410   .     A
C103   C109    1.399   .     A
C104   C106    1.405   .     A
C104   C110    1.390   .     A
C105   C107    1.425   .     A
C105   C18     1.407   1_655 S
C106   C108    1.423   .     A
C109   H115    1.083   .     S
C109   C3      1.398   1_655 S
C110   H116    1.081   .     S
Cu111  O128    1.951   .     S
Cu111  O124    1.968   .     S
Cu111  O121    1.974   .     S
Cu111  Cu112   2.708   .     S
Cu111  O125    1.963   .     S
Cu111  N120    2.035   .     S
Cu112  O127    1.951   .     S
Cu112  O126    1.963   .     S
Cu112  O123    1.968   .     S
Cu112  O122    1.974   .     S
Cu112  N119    2.035   .     S
H117   N647    1.028   .     S
H118   N1176   1.029   1_554 S
N119   H1173   1.028   1_554 S
N119   N1176   1.298   1_554 S
N120   N647    1.298   .     S
N120   H646    1.029   .     S
O129   H130    0.989   .     S
O131   H132    0.989   .     S
O133   C486    1.404   1_545 S
C134   H135    1.112   .     S
C134   O309    1.404   .     S
C134   H312    1.111   .     S
H136   C486    1.111   1_545 S
C137   H139    1.106   .     S
C137   H138    1.101   .     S
C137   C46     1.538   1_655 S
C137   C52     1.522   1_655 S
C140   H143    1.111   .     S
C140   H1197   1.106   1_554 S
C140   H1110   1.110   1_554 S
H141   C668    1.106   .     S
H142   C580    1.110   1_655 S
O144   C321    1.415   .     S
C145   C148    1.521   .     S
C145   O496    1.415   1_545 S
C145   H58     1.099   1_655 S
C145   H411    1.095   1_645 S
H147   C233    1.095   .     S
C148   C151    1.522   .     S
C148   H150    1.104   .     S
C148   H149    1.109   .     S
C151   H592    1.108   1_655 S
C151   H681    1.110   .     S
C151   H66     1.111   1_655 S
H152   C1119   1.108   1_554 S
H153   C1207   1.110   1_554 S
O155   C156    1.414   .     S
O155   C269    1.398   .     S
C156   H157    1.111   .     S
C156   H334    1.113   .     S
C156   C335    1.533   .     S
H158   C508    1.113   1_545 S
C159   H161    1.110   .     S
C159   C508    1.533   1_545 S
C159   H512    1.112   1_545 S
C159   C1218   1.524   1_554 S
H160   C335    1.112   .     S
C162   H164    1.111   .     S
C162   H163    1.107   .     S
C162   C687    1.524   .     S
C162   H517    1.109   1_545 S
H165   C338    1.109   .     S
O166   C167    1.411   .     S
O166   C446    1.395   1_545 S
C167   C170    1.529   .     S
C167   H168    1.114   .     S
C167   H521    1.109   1_545 S
H169   C343    1.109   .     S
C170   C173    1.525   .     S
C170   H699    1.111   .     S
C170   H700    1.107   .     S
H171   C1226   1.111   1_554 S
H172   C1226   1.107   1_554 S
C173   H174    1.102   .     S
C173   H175    1.107   .     S
C173   H704    1.108   .     S
H176   C1229   1.108   1_554 S
C177   O209    1.298   .     A
C177   C181    1.454   .     S
C177   O211    1.300   .     A
C178   O210    1.297   .     A
C178   C182    1.444   .     S
C178   O212    1.295   .     A
C179   O221    1.383   .     S
C179   C196    1.416   .     A
C179   C285    1.398   1_455 S
C180   C195    1.422   .     A
C180   O232    1.397   .     S
C180   C286    1.406   .     S
C182   C357    1.352   .     S
C182   O430    1.395   .     S
C183   C188    1.441   .     S
C183   O213    1.298   .     A
C183   O215    1.296   .     A
C184   O214    1.299   .     A
C184   C187    1.452   .     S
C184   O216    1.301   .     A
C185   C195    1.414   .     A
C185   C187    1.413   .     A
C185   O217    1.382   .     S
C186   C196    1.415   .     A
C186   C188    1.412   .     A
C186   O219    1.385   .     S
C187   C189    1.392   .     A
C188   C190    1.385   .     A
C189   H201    1.086   .     S
C189   C191    1.391   .     A
C190   H202    1.084   .     S
C190   C192    1.384   .     A
C191   C193    1.410   .     A
C191   C197    1.399   .     A
C192   C194    1.405   .     A
C192   C198    1.390   .     A
C193   C195    1.425   .     A
C193   C282    1.407   .     S
C194   C196    1.423   .     A
C194   C281    1.407   1_455 S
C197   H203    1.083   .     S
C197   C267    1.398   .     S
C198   H204    1.081   .     S
C198   C268    1.406   1_455 S
Cu199  O216    1.951   .     S
Cu199  O212    1.968   .     S
Cu199  O209    1.974   .     S
Cu199  Cu200   2.708   .     S
Cu199  O213    1.963   .     S
Cu199  N208    2.035   .     S
Cu200  O215    1.951   .     S
Cu200  O214    1.963   .     S
Cu200  O211    1.968   .     S
Cu200  O210    1.974   .     S
Cu200  N207    2.035   .     S
H205   N735    1.028   .     S
H206   N1264   1.029   1_554 S
N207   H1261   1.028   1_554 S
N207   N1264   1.298   1_554 S
N208   N735    1.298   .     S
N208   H734    1.029   .     S
O217   H218    0.989   .     S
O219   H220    0.989   .     S
C222   H223    1.112   .     S
C222   O397    1.404   .     S
C222   H400    1.111   .     S
C222   C313    1.538   1_455 S
C225   H227    1.106   .     S
C225   H226    1.101   .     S
C225   C310    1.538   .     S
C225   C316    1.522   .     S
C228   H231    1.111   .     S
C228   C313    1.522   1_455 S
C228   H1285   1.106   1_554 S
C228   H1374   1.110   1_454 S
H229   C756    1.106   .     S
H230   C844    1.110   .     S
O232   C409    1.415   .     S
C233   C236    1.521   .     S
C233   H322    1.099   .     S
H234   C321    1.099   1_455 S
H235   C497    1.095   1_455 S
C236   C239    1.522   .     S
C236   H238    1.104   .     S
C236   H237    1.109   .     S
C239   H856    1.108   .     S
C239   H769    1.110   .     S
C239   H330    1.111   .     S
H240   C1383   1.108   1_454 S
H241   C1295   1.110   1_554 S
H242   C327    1.111   1_455 S
O243   C244    1.414   .     S
O243   C357    1.398   .     S
C244   H245    1.111   .     S
C244   H422    1.113   .     S
C244   C423    1.533   .     S
C247   H249    1.110   .     S
C247   C1306   1.524   1_554 S
H248   C423    1.112   .     S
C250   H252    1.111   .     S
C250   H251    1.107   .     S
C250   C775    1.524   .     S
H253   C426    1.109   .     S
O254   C255    1.411   .     S
C255   C258    1.529   .     S
C255   H256    1.114   .     S
H257   C431    1.109   .     S
C258   C261    1.525   .     S
C258   H787    1.111   .     S
C258   H788    1.107   .     S
H259   C1314   1.111   1_554 S
H260   C1314   1.107   1_554 S
C261   H262    1.102   .     S
C261   H263    1.107   .     S
C261   H792    1.108   .     S
H264   C1317   1.108   1_554 S
C265   O297    1.298   .     A
C265   C269    1.454   .     S
C265   O299    1.300   .     A
C266   O298    1.297   .     A
C266   C270    1.444   .     S
C266   O300    1.295   .     A
C267   O309    1.383   .     S
C267   C284    1.416   .     A
C268   C283    1.422   .     A
C268   O320    1.397   .     S
C268   C198    1.406   1_655 S
C270   C445    1.352   .     S
C270   O518    1.395   .     S
C271   C276    1.441   .     S
C271   O301    1.298   .     A
C271   O303    1.296   .     A
C272   O302    1.299   .     A
C272   C275    1.452   .     S
C272   O304    1.301   .     A
C273   C283    1.414   .     A
C273   C275    1.413   .     A
C273   O305    1.382   .     S
C274   C284    1.415   .     A
C274   C276    1.412   .     A
C274   O307    1.385   .     S
C275   C277    1.392   .     A
C276   C278    1.385   .     A
C277   H289    1.086   .     S
C277   C279    1.391   .     A
C278   H290    1.084   .     S
C278   C280    1.384   .     A
C279   C281    1.410   .     A
C279   C285    1.399   .     A
C280   C282    1.405   .     A
C280   C286    1.390   .     A
C281   C283    1.425   .     A
C281   C194    1.407   1_655 S
C282   C284    1.423   .     A
C285   H291    1.083   .     S
C285   C179    1.398   1_655 S
C286   H292    1.081   .     S
Cu287  O304    1.951   .     S
Cu287  O300    1.968   .     S
Cu287  O297    1.974   .     S
Cu287  Cu288   2.708   .     S
Cu287  O301    1.963   .     S
Cu287  N296    2.035   .     S
Cu288  O303    1.951   .     S
Cu288  O302    1.963   .     S
Cu288  O299    1.968   .     S
Cu288  O298    1.974   .     S
Cu288  N295    2.035   .     S
H293   N823    1.028   .     S
H294   N1352   1.029   1_554 S
N295   H1349   1.028   1_554 S
N295   N1352   1.298   1_554 S
N296   N823    1.298   .     S
N296   H822    1.029   .     S
O305   H306    0.989   .     S
O307   H308    0.989   .     S
C310   H311    1.112   .     S
C310   O485    1.404   .     S
C310   H488    1.111   .     S
C313   H315    1.106   .     S
C313   H314    1.101   .     S
C313   C222    1.538   1_655 S
C313   C228    1.522   1_655 S
C316   H319    1.111   .     S
C316   H1373   1.106   1_554 S
C316   H1286   1.110   1_554 S
H317   C844    1.106   .     S
H318   C756    1.110   1_655 S
O320   C497    1.415   .     S
C321   C324    1.521   .     S
C321   H234    1.099   1_655 S
C321   H59     1.095   1_655 S
H323   C409    1.095   .     S
C324   C327    1.522   .     S
C324   H326    1.104   .     S
C324   H325    1.109   .     S
C327   H768    1.108   1_655 S
C327   H857    1.110   .     S
C327   H242    1.111   1_655 S
H328   C1295   1.108   1_554 S
H329   C1383   1.110   1_554 S
O331   C332    1.414   .     S
O331   C445    1.398   .     S
C332   H333    1.111   .     S
C332   H510    1.113   .     S
C332   C511    1.533   .     S
C335   H337    1.110   .     S
C335   C1394   1.524   1_554 S
H336   C511    1.112   .     S
C338   H340    1.111   .     S
C338   H339    1.107   .     S
C338   C863    1.524   .     S
H341   C514    1.109   .     S
O342   C343    1.411   .     S
C343   C346    1.529   .     S
C343   H344    1.114   .     S
H345   C519    1.109   .     S
C346   C349    1.525   .     S
C346   H875    1.111   .     S
C346   H876    1.107   .     S
H347   C1402   1.111   1_554 S
H348   C1402   1.107   1_554 S
C349   H350    1.102   .     S
C349   H351    1.107   .     S
C349   H880    1.108   .     S
H352   C1405   1.108   1_554 S
C353   O385    1.298   .     A
C353   C357    1.454   .     S
C353   O387    1.300   .     A
C354   O386    1.297   .     A
C354   C358    1.444   .     S
C354   O388    1.295   .     A
C355   O397    1.383   .     S
C355   C372    1.416   .     A
C355   C461    1.398   1_455 S
C356   C371    1.422   .     A
C356   O408    1.397   .     S
C356   C462    1.406   .     S
C358   C5      1.352   1_565 S
C358   O78     1.395   1_565 S
C359   C364    1.441   .     S
C359   O389    1.298   .     A
C359   O391    1.296   .     A
C360   O390    1.299   .     A
C360   C363    1.452   .     S
C360   O392    1.301   .     A
C361   C371    1.414   .     A
C361   C363    1.413   .     A
C361   O393    1.382   .     S
C362   C372    1.415   .     A
C362   C364    1.412   .     A
C362   O395    1.385   .     S
C363   C365    1.392   .     A
C364   C366    1.385   .     A
C365   H377    1.086   .     S
C365   C367    1.391   .     A
C366   H378    1.084   .     S
C366   C368    1.384   .     A
C367   C369    1.410   .     A
C367   C373    1.399   .     A
C368   C370    1.405   .     A
C368   C374    1.390   .     A
C369   C371    1.425   .     A
C369   C458    1.407   .     S
C370   C372    1.423   .     A
C370   C457    1.407   1_455 S
C373   H379    1.083   .     S
C373   C443    1.398   .     S
C374   H380    1.081   .     S
C374   C444    1.406   1_455 S
Cu375  O392    1.951   .     S
Cu375  O388    1.968   .     S
Cu375  O385    1.974   .     S
Cu375  Cu376   2.708   .     S
Cu375  O389    1.963   .     S
Cu375  N384    2.035   .     S
Cu376  O391    1.951   .     S
Cu376  O390    1.963   .     S
Cu376  O387    1.968   .     S
Cu376  O386    1.974   .     S
Cu376  N383    2.035   .     S
H381   N911    1.028   .     S
H382   N1440   1.029   1_554 S
N383   H1437   1.028   1_554 S
N383   N1440   1.298   1_554 S
N384   N911    1.298   .     S
N384   H910    1.029   .     S
O393   H394    0.989   .     S
O395   H396    0.989   .     S
C398   H399    1.112   .     S
C398   O45     1.404   1_565 S
C398   H48     1.111   1_565 S
C398   C489    1.538   1_455 S
C401   H403    1.106   .     S
C401   H402    1.101   .     S
C401   C486    1.538   .     S
C401   C492    1.522   .     S
C404   H407    1.111   .     S
C404   C489    1.522   1_455 S
C404   H1461   1.106   1_554 S
C404   H1550   1.110   1_454 S
H405   C932    1.106   .     S
H406   C1020   1.110   .     S
O408   C57     1.415   1_565 S
C409   C412    1.521   .     S
C409   H498    1.099   .     S
H410   C497    1.099   1_455 S
H411   C145    1.095   1_465 S
C412   C415    1.522   .     S
C412   H414    1.104   .     S
C412   H413    1.109   .     S
C415   H1032   1.108   .     S
C415   H945    1.110   .     S
C415   H506    1.111   .     S
H416   C1559   1.108   1_454 S
H417   C1471   1.110   1_554 S
H418   C503    1.111   1_455 S
O419   C420    1.414   .     S
O419   C5      1.398   1_565 S
C420   H421    1.111   .     S
C420   H70     1.113   1_565 S
C420   C71     1.533   1_565 S
C423   H425    1.110   .     S
C423   C1482   1.524   1_554 S
H424   C71     1.112   1_565 S
C426   H428    1.111   .     S
C426   H427    1.107   .     S
C426   C951    1.524   .     S
H429   C74     1.109   1_565 S
O430   C431    1.411   .     S
C431   C434    1.529   .     S
C431   H432    1.114   .     S
H433   C79     1.109   1_565 S
C434   C437    1.525   .     S
C434   H963    1.111   .     S
C434   H964    1.107   .     S
H435   C1490   1.111   1_554 S
H436   C1490   1.107   1_554 S
C437   H438    1.102   .     S
C437   H439    1.107   .     S
C437   H968    1.108   .     S
H440   C1493   1.108   1_554 S
C441   O473    1.298   .     A
C441   C445    1.454   .     S
C441   O475    1.300   .     A
C442   O474    1.297   .     A
C442   C446    1.444   .     S
C442   O476    1.295   .     A
C443   O485    1.383   .     S
C443   C460    1.416   .     A
C444   C459    1.422   .     A
C444   O496    1.397   .     S
C444   C374    1.406   1_655 S
C446   C93     1.352   1_565 S
C446   O166    1.395   1_565 S
C447   C452    1.441   .     S
C447   O477    1.298   .     A
C447   O479    1.296   .     A
C448   O478    1.299   .     A
C448   C451    1.452   .     S
C448   O480    1.301   .     A
C449   C459    1.414   .     A
C449   C451    1.413   .     A
C449   O481    1.382   .     S
C450   C460    1.415   .     A
C450   C452    1.412   .     A
C450   O483    1.385   .     S
C451   C453    1.392   .     A
C452   C454    1.385   .     A
C453   H465    1.086   .     S
C453   C455    1.391   .     A
C454   H466    1.084   .     S
C454   C456    1.384   .     A
C455   C457    1.410   .     A
C455   C461    1.399   .     A
C456   C458    1.405   .     A
C456   C462    1.390   .     A
C457   C459    1.425   .     A
C457   C370    1.407   1_655 S
C458   C460    1.423   .     A
C461   H467    1.083   .     S
C461   C355    1.398   1_655 S
C462   H468    1.081   .     S
Cu463  O480    1.951   .     S
Cu463  O476    1.968   .     S
Cu463  O473    1.974   .     S
Cu463  Cu464   2.708   .     S
Cu463  O477    1.963   .     S
Cu463  N472    2.035   .     S
Cu464  O479    1.951   .     S
Cu464  O478    1.963   .     S
Cu464  O475    1.968   .     S
Cu464  O474    1.974   .     S
Cu464  N471    2.035   .     S
H469   N999    1.028   .     S
H470   N1528   1.029   1_554 S
N471   H1525   1.028   1_554 S
N471   N1528   1.298   1_554 S
N472   N999    1.298   .     S
N472   H998    1.029   .     S
O481   H482    0.989   .     S
O483   H484    0.989   .     S
C486   H487    1.112   .     S
C486   O133    1.404   1_565 S
C486   H136    1.111   1_565 S
C489   H491    1.106   .     S
C489   H490    1.101   .     S
C489   C398    1.538   1_655 S
C489   C404    1.522   1_655 S
C492   H495    1.111   .     S
C492   H1549   1.106   1_554 S
C492   H1462   1.110   1_554 S
H493   C1020   1.106   .     S
H494   C932    1.110   1_655 S
O496   C145    1.415   1_565 S
C497   C500    1.521   .     S
C497   H410    1.099   1_655 S
C497   H235    1.095   1_655 S
H499   C57     1.095   1_565 S
C500   C503    1.522   .     S
C500   H502    1.104   .     S
C500   H501    1.109   .     S
C503   H944    1.108   1_655 S
C503   H1033   1.110   .     S
C503   H418    1.111   1_655 S
H504   C1471   1.108   1_554 S
H505   C1559   1.110   1_554 S
O507   C508    1.414   .     S
O507   C93     1.398   1_565 S
C508   H509    1.111   .     S
C508   H158    1.113   1_565 S
C508   C159    1.533   1_565 S
C511   H513    1.110   .     S
C511   C1570   1.524   1_554 S
H512   C159    1.112   1_565 S
C514   H516    1.111   .     S
C514   H515    1.107   .     S
C514   C1039   1.524   .     S
H517   C162    1.109   1_565 S
O518   C519    1.411   .     S
C519   C522    1.529   .     S
C519   H520    1.114   .     S
H521   C167    1.109   1_565 S
C522   C525    1.525   .     S
C522   H1051   1.111   .     S
C522   H1052   1.107   .     S
H523   C1578   1.111   1_554 S
H524   C1578   1.107   1_554 S
C525   H526    1.102   .     S
C525   H527    1.107   .     S
C525   H1056   1.108   .     S
H528   C1581   1.108   1_554 S
C529   O561    1.298   .     A
C529   C533    1.454   .     S
C529   O563    1.300   .     A
C530   O562    1.297   .     A
C530   C534    1.444   .     S
C530   O564    1.295   .     A
C531   O573    1.383   .     S
C531   C548    1.416   .     A
C531   C637    1.398   1_455 S
C532   C547    1.422   .     A
C532   O584    1.397   .     S
C532   C638    1.406   .     S
C533   C886    1.352   1_545 S
C533   O947    1.398   1_545 S
C534   C709    1.352   .     S
C534   O782    1.395   .     S
C535   C540    1.441   .     S
C535   O565    1.298   .     A
C535   O567    1.296   .     A
C536   O566    1.299   .     A
C536   C539    1.452   .     S
C536   O568    1.301   .     A
C537   C547    1.414   .     A
C537   C539    1.413   .     A
C537   O569    1.382   .     S
C538   C548    1.415   .     A
C538   C540    1.412   .     A
C538   O571    1.385   .     S
C539   C541    1.392   .     A
C540   C542    1.385   .     A
C541   H553    1.086   .     S
C541   C543    1.391   .     A
C542   H554    1.084   .     S
C542   C544    1.384   .     A
C543   C545    1.410   .     A
C543   C549    1.399   .     A
C544   C546    1.405   .     A
C544   C550    1.390   .     A
C545   C547    1.425   .     A
C545   C634    1.407   .     S
C546   C548    1.423   .     A
C546   C633    1.407   1_455 S
C549   H555    1.083   .     S
C549   C619    1.398   .     S
C550   H556    1.081   .     S
C550   C620    1.406   1_455 S
Cu551  O568    1.951   .     S
Cu551  O564    1.968   .     S
Cu551  O561    1.974   .     S
Cu551  Cu552   2.708   .     S
Cu551  O565    1.963   .     S
Cu551  N560    2.035   .     S
Cu552  O567    1.951   .     S
Cu552  O566    1.963   .     S
Cu552  O563    1.968   .     S
Cu552  O562    1.974   .     S
Cu552  N559    2.035   .     S
H557   N1087   1.028   .     S
N560   N1087   1.298   .     S
N560   H1086   1.029   .     S
O569   H570    0.989   .     S
O571   H572    0.989   .     S
O573   C926    1.404   1_545 S
C574   H575    1.112   .     S
C574   O749    1.404   .     S
C574   H752    1.111   .     S
C574   C665    1.538   1_455 S
H576   C926    1.111   1_545 S
C577   H579    1.106   .     S
C577   H578    1.101   .     S
C577   C662    1.538   .     S
C577   C668    1.522   .     S
C580   H583    1.111   .     S
C580   C665    1.522   1_455 S
C580   H142    1.110   1_455 S
H581   C1108   1.106   .     S
H582   C1196   1.110   .     S
O584   C761    1.415   .     S
C585   C588    1.521   .     S
C585   O936    1.415   1_545 S
C585   H674    1.099   .     S
C585   H1027   1.095   1_545 S
H586   C673    1.099   1_455 S
H587   C849    1.095   1_455 S
C588   C591    1.522   .     S
C588   H590    1.104   .     S
C588   H589    1.109   .     S
C591   H1208   1.108   .     S
C591   H1121   1.110   .     S
C591   H682    1.111   .     S
H592   C151    1.108   1_455 S
H594   C679    1.111   1_455 S
O595   C596    1.414   .     S
O595   C709    1.398   .     S
C596   H597    1.111   .     S
C596   H774    1.113   .     S
C596   C775    1.533   .     S
H598   C948    1.113   1_545 S
C599   H601    1.110   .     S
C599   C948    1.533   1_545 S
C599   H952    1.112   1_545 S
H600   C775    1.112   .     S
C602   H604    1.111   .     S
C602   H603    1.107   .     S
C602   C1127   1.524   .     S
C602   H957    1.109   1_545 S
H605   C778    1.109   .     S
O606   C607    1.411   .     S
O606   C886    1.395   1_545 S
C607   C610    1.529   .     S
C607   H608    1.114   .     S
C607   H961    1.109   1_545 S
H609   C783    1.109   .     S
C610   C613    1.525   .     S
C610   H1139   1.111   .     S
C610   H1140   1.107   .     S
C613   H614    1.102   .     S
C613   H615    1.107   .     S
C613   H1144   1.108   .     S
C617   O649    1.298   .     A
C617   C621    1.454   .     S
C617   O651    1.300   .     A
C618   O650    1.297   .     A
C618   C622    1.444   .     S
C618   O652    1.295   .     A
C619   O661    1.383   .     S
C619   C636    1.416   .     A
C620   C635    1.422   .     A
C620   O672    1.397   .     S
C620   C550    1.406   1_655 S
C621   C974    1.352   1_545 S
C621   O1035   1.398   1_545 S
C622   C797    1.352   .     S
C622   O870    1.395   .     S
C623   C628    1.441   .     S
C623   O653    1.298   .     A
C623   O655    1.296   .     A
C624   O654    1.299   .     A
C624   C627    1.452   .     S
C624   O656    1.301   .     A
C625   C635    1.414   .     A
C625   C627    1.413   .     A
C625   O657    1.382   .     S
C626   C636    1.415   .     A
C626   C628    1.412   .     A
C626   O659    1.385   .     S
C627   C629    1.392   .     A
C628   C630    1.385   .     A
C629   H641    1.086   .     S
C629   C631    1.391   .     A
C630   H642    1.084   .     S
C630   C632    1.384   .     A
C631   C633    1.410   .     A
C631   C637    1.399   .     A
C632   C634    1.405   .     A
C632   C638    1.390   .     A
C633   C635    1.425   .     A
C633   C546    1.407   1_655 S
C634   C636    1.423   .     A
C637   H643    1.083   .     S
C637   C531    1.398   1_655 S
C638   H644    1.081   .     S
Cu639  O656    1.951   .     S
Cu639  O652    1.968   .     S
Cu639  O649    1.974   .     S
Cu639  Cu640   2.708   .     S
Cu639  O653    1.963   .     S
Cu639  N648    2.035   .     S
Cu640  O655    1.951   .     S
Cu640  O654    1.963   .     S
Cu640  O651    1.968   .     S
Cu640  O650    1.974   .     S
Cu640  N647    2.035   .     S
H645   N1175   1.028   .     S
N648   N1175   1.298   .     S
N648   H1174   1.029   .     S
O657   H658    0.989   .     S
O659   H660    0.989   .     S
O661   C1014   1.404   1_545 S
C662   H663    1.112   .     S
C662   O837    1.404   .     S
C662   H840    1.111   .     S
H664   C1014   1.111   1_545 S
C665   H667    1.106   .     S
C665   H666    1.101   .     S
C665   C574    1.538   1_655 S
C665   C580    1.522   1_655 S
C668   H671    1.111   .     S
H669   C1196   1.106   .     S
H670   C1108   1.110   1_655 S
O672   C849    1.415   .     S
C673   C676    1.521   .     S
C673   O1024   1.415   1_545 S
C673   H586    1.099   1_655 S
C673   H939    1.095   1_645 S
H675   C761    1.095   .     S
C676   C679    1.522   .     S
C676   H678    1.104   .     S
C676   H677    1.109   .     S
C679   H1120   1.108   1_655 S
C679   H1209   1.110   .     S
C679   H594    1.111   1_655 S
O683   C684    1.414   .     S
O683   C797    1.398   .     S
C684   H685    1.111   .     S
C684   H862    1.113   .     S
C684   C863    1.533   .     S
H686   C1036   1.113   1_545 S
C687   H689    1.110   .     S
C687   C1036   1.533   1_545 S
C687   H1040   1.112   1_545 S
H688   C863    1.112   .     S
C690   H692    1.111   .     S
C690   H691    1.107   .     S
C690   C1215   1.524   .     S
C690   H1045   1.109   1_545 S
H693   C866    1.109   .     S
O694   C695    1.411   .     S
O694   C974    1.395   1_545 S
C695   C698    1.529   .     S
C695   H696    1.114   .     S
C695   H1049   1.109   1_545 S
H697   C871    1.109   .     S
C698   C701    1.525   .     S
C698   H1227   1.111   .     S
C698   H1228   1.107   .     S
C701   H702    1.102   .     S
C701   H703    1.107   .     S
C701   H1232   1.108   .     S
C705   O737    1.298   .     A
C705   C709    1.454   .     S
C705   O739    1.300   .     A
C706   O738    1.297   .     A
C706   C710    1.444   .     S
C706   O740    1.295   .     A
C707   O749    1.383   .     S
C707   C724    1.416   .     A
C707   C813    1.398   1_455 S
C708   C723    1.422   .     A
C708   O760    1.397   .     S
C708   C814    1.406   .     S
C710   C885    1.352   .     S
C710   O958    1.395   .     S
C711   C716    1.441   .     S
C711   O741    1.298   .     A
C711   O743    1.296   .     A
C712   O742    1.299   .     A
C712   C715    1.452   .     S
C712   O744    1.301   .     A
C713   C723    1.414   .     A
C713   C715    1.413   .     A
C713   O745    1.382   .     S
C714   C724    1.415   .     A
C714   C716    1.412   .     A
C714   O747    1.385   .     S
C715   C717    1.392   .     A
C716   C718    1.385   .     A
C717   H729    1.086   .     S
C717   C719    1.391   .     A
C718   H730    1.084   .     S
C718   C720    1.384   .     A
C719   C721    1.410   .     A
C719   C725    1.399   .     A
C720   C722    1.405   .     A
C720   C726    1.390   .     A
C721   C723    1.425   .     A
C721   C810    1.407   .     S
C722   C724    1.423   .     A
C722   C809    1.407   1_455 S
C725   H731    1.083   .     S
C725   C795    1.398   .     S
C726   H732    1.081   .     S
C726   C796    1.406   1_455 S
Cu727  O744    1.951   .     S
Cu727  O740    1.968   .     S
Cu727  O737    1.974   .     S
Cu727  Cu728   2.708   .     S
Cu727  O741    1.963   .     S
Cu727  N736    2.035   .     S
Cu728  O743    1.951   .     S
Cu728  O742    1.963   .     S
Cu728  O739    1.968   .     S
Cu728  O738    1.974   .     S
Cu728  N735    2.035   .     S
H733   N1263   1.028   .     S
N736   N1263   1.298   .     S
N736   H1262   1.029   .     S
O745   H746    0.989   .     S
O747   H748    0.989   .     S
C750   H751    1.112   .     S
C750   O925    1.404   .     S
C750   H928    1.111   .     S
C750   C841    1.538   1_455 S
C753   H755    1.106   .     S
C753   H754    1.101   .     S
C753   C838    1.538   .     S
C753   C844    1.522   .     S
C756   H759    1.111   .     S
C756   C841    1.522   1_455 S
C756   H318    1.110   1_455 S
H757   C1284   1.106   .     S
H758   C1372   1.110   .     S
O760   C937    1.415   .     S
C761   C764    1.521   .     S
C761   H850    1.099   .     S
H762   C849    1.099   1_455 S
H763   C1025   1.095   1_455 S
C764   C767    1.522   .     S
C764   H766    1.104   .     S
C764   H765    1.109   .     S
C767   H1384   1.108   .     S
C767   H1297   1.110   .     S
C767   H858    1.111   .     S
H768   C327    1.108   1_455 S
H770   C855    1.111   1_455 S
O771   C772    1.414   .     S
O771   C885    1.398   .     S
C772   H773    1.111   .     S
C772   H950    1.113   .     S
C772   C951    1.533   .     S
C775   H777    1.110   .     S
H776   C951    1.112   .     S
C778   H780    1.111   .     S
C778   H779    1.107   .     S
C778   C1303   1.524   .     S
H781   C954    1.109   .     S
O782   C783    1.411   .     S
C783   C786    1.529   .     S
C783   H784    1.114   .     S
H785   C959    1.109   .     S
C786   C789    1.525   .     S
C786   H1315   1.111   .     S
C786   H1316   1.107   .     S
C789   H790    1.102   .     S
C789   H791    1.107   .     S
C789   H1320   1.108   .     S
C793   O825    1.298   .     A
C793   C797    1.454   .     S
C793   O827    1.300   .     A
C794   O826    1.297   .     A
C794   C798    1.444   .     S
C794   O828    1.295   .     A
C795   O837    1.383   .     S
C795   C812    1.416   .     A
C796   C811    1.422   .     A
C796   O848    1.397   .     S
C796   C726    1.406   1_655 S
C798   C973    1.352   .     S
C798   O1046   1.395   .     S
C799   C804    1.441   .     S
C799   O829    1.298   .     A
C799   O831    1.296   .     A
C800   O830    1.299   .     A
C800   C803    1.452   .     S
C800   O832    1.301   .     A
C801   C811    1.414   .     A
C801   C803    1.413   .     A
C801   O833    1.382   .     S
C802   C812    1.415   .     A
C802   C804    1.412   .     A
C802   O835    1.385   .     S
C803   C805    1.392   .     A
C804   C806    1.385   .     A
C805   H817    1.086   .     S
C805   C807    1.391   .     A
C806   H818    1.084   .     S
C806   C808    1.384   .     A
C807   C809    1.410   .     A
C807   C813    1.399   .     A
C808   C810    1.405   .     A
C808   C814    1.390   .     A
C809   C811    1.425   .     A
C809   C722    1.407   1_655 S
C810   C812    1.423   .     A
C813   H819    1.083   .     S
C813   C707    1.398   1_655 S
C814   H820    1.081   .     S
Cu815  O832    1.951   .     S
Cu815  O828    1.968   .     S
Cu815  O825    1.974   .     S
Cu815  Cu816   2.708   .     S
Cu815  O829    1.963   .     S
Cu815  N824    2.035   .     S
Cu816  O831    1.951   .     S
Cu816  O830    1.963   .     S
Cu816  O827    1.968   .     S
Cu816  O826    1.974   .     S
Cu816  N823    2.035   .     S
H821   N1351   1.028   .     S
N824   N1351   1.298   .     S
N824   H1350   1.029   .     S
O833   H834    0.989   .     S
O835   H836    0.989   .     S
C838   H839    1.112   .     S
C838   O1013   1.404   .     S
C838   H1016   1.111   .     S
C841   H843    1.106   .     S
C841   H842    1.101   .     S
C841   C750    1.538   1_655 S
C841   C756    1.522   1_655 S
C844   H847    1.111   .     S
H845   C1372   1.106   .     S
H846   C1284   1.110   1_655 S
O848   C1025   1.415   .     S
C849   C852    1.521   .     S
C849   H762    1.099   1_655 S
C849   H587    1.095   1_655 S
H851   C937    1.095   .     S
C852   C855    1.522   .     S
C852   H854    1.104   .     S
C852   H853    1.109   .     S
C855   H1296   1.108   1_655 S
C855   H1385   1.110   .     S
C855   H770    1.111   1_655 S
O859   C860    1.414   .     S
O859   C973    1.398   .     S
C860   H861    1.111   .     S
C860   H1038   1.113   .     S
C860   C1039   1.533   .     S
C863   H865    1.110   .     S
H864   C1039   1.112   .     S
C866   H868    1.111   .     S
C866   H867    1.107   .     S
C866   C1391   1.524   .     S
H869   C1042   1.109   .     S
O870   C871    1.411   .     S
C871   C874    1.529   .     S
C871   H872    1.114   .     S
H873   C1047   1.109   .     S
C874   C877    1.525   .     S
C874   H1403   1.111   .     S
C874   H1404   1.107   .     S
C877   H878    1.102   .     S
C877   H879    1.107   .     S
C877   H1408   1.108   .     S
C881   O913    1.298   .     A
C881   C885    1.454   .     S
C881   O915    1.300   .     A
C882   O914    1.297   .     A
C882   C886    1.444   .     S
C882   O916    1.295   .     A
C883   O925    1.383   .     S
C883   C900    1.416   .     A
C883   C989    1.398   1_455 S
C884   C899    1.422   .     A
C884   O936    1.397   .     S
C884   C990    1.406   .     S
C886   C533    1.352   1_565 S
C886   O606    1.395   1_565 S
C887   C892    1.441   .     S
C887   O917    1.298   .     A
C887   O919    1.296   .     A
C888   O918    1.299   .     A
C888   C891    1.452   .     S
C888   O920    1.301   .     A
C889   C899    1.414   .     A
C889   C891    1.413   .     A
C889   O921    1.382   .     S
C890   C900    1.415   .     A
C890   C892    1.412   .     A
C890   O923    1.385   .     S
C891   C893    1.392   .     A
C892   C894    1.385   .     A
C893   H905    1.086   .     S
C893   C895    1.391   .     A
C894   H906    1.084   .     S
C894   C896    1.384   .     A
C895   C897    1.410   .     A
C895   C901    1.399   .     A
C896   C898    1.405   .     A
C896   C902    1.390   .     A
C897   C899    1.425   .     A
C897   C986    1.407   .     S
C898   C900    1.423   .     A
C898   C985    1.407   1_455 S
C901   H907    1.083   .     S
C901   C971    1.398   .     S
C902   H908    1.081   .     S
C902   C972    1.406   1_455 S
Cu903  O920    1.951   .     S
Cu903  O916    1.968   .     S
Cu903  O913    1.974   .     S
Cu903  Cu904   2.708   .     S
Cu903  O917    1.963   .     S
Cu903  N912    2.035   .     S
Cu904  O919    1.951   .     S
Cu904  O918    1.963   .     S
Cu904  O915    1.968   .     S
Cu904  O914    1.974   .     S
Cu904  N911    2.035   .     S
H909   N1439   1.028   .     S
N912   N1439   1.298   .     S
N912   H1438   1.029   .     S
O921   H922    0.989   .     S
O923   H924    0.989   .     S
C926   H927    1.112   .     S
C926   O573    1.404   1_565 S
C926   H576    1.111   1_565 S
C926   C1017   1.538   1_455 S
C929   H931    1.106   .     S
C929   H930    1.101   .     S
C929   C1014   1.538   .     S
C929   C1020   1.522   .     S
C932   H935    1.111   .     S
C932   C1017   1.522   1_455 S
C932   H494    1.110   1_455 S
H933   C1460   1.106   .     S
H934   C1548   1.110   .     S
O936   C585    1.415   1_565 S
C937   C940    1.521   .     S
C937   H1026   1.099   .     S
H938   C1025   1.099   1_455 S
H939   C673    1.095   1_465 S
C940   C943    1.522   .     S
C940   H942    1.104   .     S
C940   H941    1.109   .     S
C943   H1560   1.108   .     S
C943   H1473   1.110   .     S
C943   H1034   1.111   .     S
H944   C503    1.108   1_455 S
H946   C1031   1.111   1_455 S
O947   C948    1.414   .     S
O947   C533    1.398   1_565 S
C948   H949    1.111   .     S
C948   H598    1.113   1_565 S
C948   C599    1.533   1_565 S
C951   H953    1.110   .     S
H952   C599    1.112   1_565 S
C954   H956    1.111   .     S
C954   H955    1.107   .     S
C954   C1479   1.524   .     S
H957   C602    1.109   1_565 S
O958   C959    1.411   .     S
C959   C962    1.529   .     S
C959   H960    1.114   .     S
H961   C607    1.109   1_565 S
C962   C965    1.525   .     S
C962   H1491   1.111   .     S
C962   H1492   1.107   .     S
C965   H966    1.102   .     S
C965   H967    1.107   .     S
C965   H1496   1.108   .     S
C969   O1001   1.298   .     A
C969   C973    1.454   .     S
C969   O1003   1.300   .     A
C970   O1002   1.297   .     A
C970   C974    1.444   .     S
C970   O1004   1.295   .     A
C971   O1013   1.383   .     S
C971   C988    1.416   .     A
C972   C987    1.422   .     A
C972   O1024   1.397   .     S
C972   C902    1.406   1_655 S
C974   C621    1.352   1_565 S
C974   O694    1.395   1_565 S
C975   C980    1.441   .     S
C975   O1005   1.298   .     A
C975   O1007   1.296   .     A
C976   O1006   1.299   .     A
C976   C979    1.452   .     S
C976   O1008   1.301   .     A
C977   C987    1.414   .     A
C977   C979    1.413   .     A
C977   O1009   1.382   .     S
C978   C988    1.415   .     A
C978   C980    1.412   .     A
C978   O1011   1.385   .     S
C979   C981    1.392   .     A
C980   C982    1.385   .     A
C981   H993    1.086   .     S
C981   C983    1.391   .     A
C982   H994    1.084   .     S
C982   C984    1.384   .     A
C983   C985    1.410   .     A
C983   C989    1.399   .     A
C984   C986    1.405   .     A
C984   C990    1.390   .     A
C985   C987    1.425   .     A
C985   C898    1.407   1_655 S
C986   C988    1.423   .     A
C989   H995    1.083   .     S
C989   C883    1.398   1_655 S
C990   H996    1.081   .     S
Cu991  O1008   1.951   .     S
Cu991  O1004   1.968   .     S
Cu991  O1001   1.974   .     S
Cu991  Cu992   2.708   .     S
Cu991  O1005   1.963   .     S
Cu991  N1000   2.035   .     S
Cu992  O1007   1.951   .     S
Cu992  O1006   1.963   .     S
Cu992  O1003   1.968   .     S
Cu992  O1002   1.974   .     S
Cu992  N999    2.035   .     S
H997   N1527   1.028   .     S
N1000  N1527   1.298   .     S
N1000  H1526   1.029   .     S
O1009  H1010   0.989   .     S
O1011  H1012   0.989   .     S
C1014  H1015   1.112   .     S
C1014  O661    1.404   1_565 S
C1014  H664    1.111   1_565 S
C1017  H1019   1.106   .     S
C1017  H1018   1.101   .     S
C1017  C926    1.538   1_655 S
C1017  C932    1.522   1_655 S
C1020  H1023   1.111   .     S
H1021  C1548   1.106   .     S
H1022  C1460   1.110   1_655 S
O1024  C673    1.415   1_565 S
C1025  C1028   1.521   .     S
C1025  H938    1.099   1_655 S
C1025  H763    1.095   1_655 S
H1027  C585    1.095   1_565 S
C1028  C1031   1.522   .     S
C1028  H1030   1.104   .     S
C1028  H1029   1.109   .     S
C1031  H1472   1.108   1_655 S
C1031  H1561   1.110   .     S
C1031  H946    1.111   1_655 S
O1035  C1036   1.414   .     S
O1035  C621    1.398   1_565 S
C1036  H1037   1.111   .     S
C1036  H686    1.113   1_565 S
C1036  C687    1.533   1_565 S
C1039  H1041   1.110   .     S
H1040  C687    1.112   1_565 S
C1042  H1044   1.111   .     S
C1042  H1043   1.107   .     S
C1042  C1567   1.524   .     S
H1045  C690    1.109   1_565 S
O1046  C1047   1.411   .     S
C1047  C1050   1.529   .     S
C1047  H1048   1.114   .     S
H1049  C695    1.109   1_565 S
C1050  C1053   1.525   .     S
C1050  H1579   1.111   .     S
C1050  H1580   1.107   .     S
C1053  H1054   1.102   .     S
C1053  H1055   1.107   .     S
C1053  H1584   1.108   .     S
C1057  O1089   1.298   .     A
C1057  C1061   1.454   .     S
C1057  O1091   1.300   .     A
C1058  O1090   1.297   .     A
C1058  C1062   1.444   .     S
C1058  O1092   1.295   .     A
C1059  O1101   1.383   .     S
C1059  C1076   1.416   .     A
C1059  C1165   1.398   1_455 S
C1060  C1075   1.422   .     A
C1060  O1112   1.397   .     S
C1060  C1166   1.406   .     S
C1061  C1414   1.352   1_545 S
C1061  O1475   1.398   1_545 S
C1062  C1237   1.352   .     S
C1062  O1310   1.395   .     S
C1063  C1068   1.441   .     S
C1063  O1093   1.298   .     A
C1063  O1095   1.296   .     A
C1064  O1094   1.299   .     A
C1064  C1067   1.452   .     S
C1064  O1096   1.301   .     A
C1065  C1075   1.414   .     A
C1065  C1067   1.413   .     A
C1065  O1097   1.382   .     S
C1066  C1076   1.415   .     A
C1066  C1068   1.412   .     A
C1066  O1099   1.385   .     S
C1067  C1069   1.392   .     A
C1068  C1070   1.385   .     A
C1069  H1081   1.086   .     S
C1069  C1071   1.391   .     A
C1070  H1082   1.084   .     S
C1070  C1072   1.384   .     A
C1071  C1073   1.410   .     A
C1071  C1077   1.399   .     A
C1072  C1074   1.405   .     A
C1072  C1078   1.390   .     A
C1073  C1075   1.425   .     A
C1073  C1162   1.407   .     S
C1074  C1076   1.423   .     A
C1074  C1161   1.407   1_455 S
C1077  H1083   1.083   .     S
C1077  C1147   1.398   .     S
C1078  H1084   1.081   .     S
C1078  C1148   1.406   1_455 S
Cu1079 O1096   1.951   .     S
Cu1079 O1092   1.968   .     S
Cu1079 O1089   1.974   .     S
Cu1079 Cu1080  2.708   .     S
Cu1079 O1093   1.963   .     S
Cu1079 N1088   2.035   .     S
Cu1080 O1095   1.951   .     S
Cu1080 O1094   1.963   .     S
Cu1080 O1091   1.968   .     S
Cu1080 O1090   1.974   .     S
Cu1080 N1087   2.035   .     S
H1085  N31     1.028   1_556 S
N1088  N31     1.298   1_556 S
N1088  H30     1.029   1_556 S
O1097  H1098   0.989   .     S
O1099  H1100   0.989   .     S
O1101  C1454   1.404   1_545 S
C1102  H1103   1.112   .     S
C1102  O1277   1.404   .     S
C1102  H1280   1.111   .     S
C1102  C1193   1.538   1_455 S
H1104  C1454   1.111   1_545 S
C1105  H1107   1.106   .     S
C1105  H1106   1.101   .     S
C1105  C1190   1.538   .     S
C1105  C1196   1.522   .     S
C1108  H1111   1.111   .     S
C1108  C1193   1.522   1_455 S
C1108  H670    1.110   1_455 S
H1109  C52     1.106   1_556 S
H1110  C140    1.110   1_556 S
O1112  C1289   1.415   .     S
C1113  C1116   1.521   .     S
C1113  O1464   1.415   1_545 S
C1113  H1202   1.099   .     S
C1113  H1555   1.095   1_545 S
H1114  C1201   1.099   1_455 S
H1115  C1377   1.095   1_455 S
C1116  C1119   1.522   .     S
C1116  H1118   1.104   .     S
C1116  H1117   1.109   .     S
C1119  H152    1.108   1_556 S
C1119  H65     1.110   1_556 S
C1119  H1210   1.111   .     S
H1120  C679    1.108   1_455 S
H1122  C1207   1.111   1_455 S
O1123  C1124   1.414   .     S
O1123  C1237   1.398   .     S
C1124  H1125   1.111   .     S
C1124  H1302   1.113   .     S
C1124  C1303   1.533   .     S
H1126  C1476   1.113   1_545 S
C1127  H1129   1.110   .     S
C1127  C1476   1.533   1_545 S
C1127  H1480   1.112   1_545 S
H1128  C1303   1.112   .     S
C1130  H1132   1.111   .     S
C1130  H1131   1.107   .     S
C1130  C71     1.524   1_556 S
C1130  H1485   1.109   1_545 S
H1133  C1306   1.109   .     S
O1134  C1135   1.411   .     S
O1134  C1414   1.395   1_545 S
C1135  C1138   1.529   .     S
C1135  H1136   1.114   .     S
C1135  H1489   1.109   1_545 S
H1137  C1311   1.109   .     S
C1138  C1141   1.525   .     S
C1138  H83     1.111   1_556 S
C1138  H84     1.107   1_556 S
C1141  H1142   1.102   .     S
C1141  H1143   1.107   .     S
C1141  H88     1.108   1_556 S
C1145  O1177   1.298   .     A
C1145  C1149   1.454   .     S
C1145  O1179   1.300   .     A
C1146  O1178   1.297   .     A
C1146  C1150   1.444   .     S
C1146  O1180   1.295   .     A
C1147  O1189   1.383   .     S
C1147  C1164   1.416   .     A
C1148  C1163   1.422   .     A
C1148  O1200   1.397   .     S
C1148  C1078   1.406   1_655 S
C1149  C1502   1.352   1_545 S
C1149  O1563   1.398   1_545 S
C1150  C1325   1.352   .     S
C1150  O1398   1.395   .     S
C1151  C1156   1.441   .     S
C1151  O1181   1.298   .     A
C1151  O1183   1.296   .     A
C1152  O1182   1.299   .     A
C1152  C1155   1.452   .     S
C1152  O1184   1.301   .     A
C1153  C1163   1.414   .     A
C1153  C1155   1.413   .     A
C1153  O1185   1.382   .     S
C1154  C1164   1.415   .     A
C1154  C1156   1.412   .     A
C1154  O1187   1.385   .     S
C1155  C1157   1.392   .     A
C1156  C1158   1.385   .     A
C1157  H1169   1.086   .     S
C1157  C1159   1.391   .     A
C1158  H1170   1.084   .     S
C1158  C1160   1.384   .     A
C1159  C1161   1.410   .     A
C1159  C1165   1.399   .     A
C1160  C1162   1.405   .     A
C1160  C1166   1.390   .     A
C1161  C1163   1.425   .     A
C1161  C1074   1.407   1_655 S
C1162  C1164   1.423   .     A
C1165  H1171   1.083   .     S
C1165  C1059   1.398   1_655 S
C1166  H1172   1.081   .     S
Cu1167 O1184   1.951   .     S
Cu1167 O1180   1.968   .     S
Cu1167 O1177   1.974   .     S
Cu1167 Cu1168  2.708   .     S
Cu1167 O1181   1.963   .     S
Cu1167 N1176   2.035   .     S
Cu1168 O1183   1.951   .     S
Cu1168 O1182   1.963   .     S
Cu1168 O1179   1.968   .     S
Cu1168 O1178   1.974   .     S
Cu1168 N1175   2.035   .     S
H1173  N119    1.028   1_556 S
N1176  N119    1.298   1_556 S
N1176  H118    1.029   1_556 S
O1185  H1186   0.989   .     S
O1187  H1188   0.989   .     S
O1189  C1542   1.404   1_545 S
C1190  H1191   1.112   .     S
C1190  O1365   1.404   .     S
C1190  H1368   1.111   .     S
H1192  C1542   1.111   1_545 S
C1193  H1195   1.106   .     S
C1193  H1194   1.101   .     S
C1193  C1102   1.538   1_655 S
C1193  C1108   1.522   1_655 S
C1196  H1199   1.111   .     S
H1197  C140    1.106   1_556 S
H1198  C52     1.110   1_656 S
O1200  C1377   1.415   .     S
C1201  C1204   1.521   .     S
C1201  O1552   1.415   1_545 S
C1201  H1114   1.099   1_655 S
C1201  H1467   1.095   1_645 S
H1203  C1289   1.095   .     S
C1204  C1207   1.522   .     S
C1204  H1206   1.104   .     S
C1204  H1205   1.109   .     S
C1207  H64     1.108   1_656 S
C1207  H153    1.110   1_556 S
C1207  H1122   1.111   1_655 S
O1211  C1212   1.414   .     S
O1211  C1325   1.398   .     S
C1212  H1213   1.111   .     S
C1212  H1390   1.113   .     S
C1212  C1391   1.533   .     S
H1214  C1564   1.113   1_545 S
C1215  H1217   1.110   .     S
C1215  C1564   1.533   1_545 S
C1215  H1568   1.112   1_545 S
H1216  C1391   1.112   .     S
C1218  H1220   1.111   .     S
C1218  H1219   1.107   .     S
C1218  C159    1.524   1_556 S
C1218  H1573   1.109   1_545 S
H1221  C1394   1.109   .     S
O1222  C1223   1.411   .     S
O1222  C1502   1.395   1_545 S
C1223  C1226   1.529   .     S
C1223  H1224   1.114   .     S
C1223  H1577   1.109   1_545 S
H1225  C1399   1.109   .     S
C1226  C1229   1.525   .     S
C1226  H171    1.111   1_556 S
C1226  H172    1.107   1_556 S
C1229  H1230   1.102   .     S
C1229  H1231   1.107   .     S
C1229  H176    1.108   1_556 S
C1233  O1265   1.298   .     A
C1233  C1237   1.454   .     S
C1233  O1267   1.300   .     A
C1234  O1266   1.297   .     A
C1234  C1238   1.444   .     S
C1234  O1268   1.295   .     A
C1235  O1277   1.383   .     S
C1235  C1252   1.416   .     A
C1235  C1341   1.398   1_455 S
C1236  C1251   1.422   .     A
C1236  O1288   1.397   .     S
C1236  C1342   1.406   .     S
C1238  C1413   1.352   .     S
C1238  O1486   1.395   .     S
C1239  C1244   1.441   .     S
C1239  O1269   1.298   .     A
C1239  O1271   1.296   .     A
C1240  O1270   1.299   .     A
C1240  C1243   1.452   .     S
C1240  O1272   1.301   .     A
C1241  C1251   1.414   .     A
C1241  C1243   1.413   .     A
C1241  O1273   1.382   .     S
C1242  C1252   1.415   .     A
C1242  C1244   1.412   .     A
C1242  O1275   1.385   .     S
C1243  C1245   1.392   .     A
C1244  C1246   1.385   .     A
C1245  H1257   1.086   .     S
C1245  C1247   1.391   .     A
C1246  H1258   1.084   .     S
C1246  C1248   1.384   .     A
C1247  C1249   1.410   .     A
C1247  C1253   1.399   .     A
C1248  C1250   1.405   .     A
C1248  C1254   1.390   .     A
C1249  C1251   1.425   .     A
C1249  C1338   1.407   .     S
C1250  C1252   1.423   .     A
C1250  C1337   1.407   1_455 S
C1253  H1259   1.083   .     S
C1253  C1323   1.398   .     S
C1254  H1260   1.081   .     S
C1254  C1324   1.406   1_455 S
Cu1255 O1272   1.951   .     S
Cu1255 O1268   1.968   .     S
Cu1255 O1265   1.974   .     S
Cu1255 Cu1256  2.708   .     S
Cu1255 O1269   1.963   .     S
Cu1255 N1264   2.035   .     S
Cu1256 O1271   1.951   .     S
Cu1256 O1270   1.963   .     S
Cu1256 O1267   1.968   .     S
Cu1256 O1266   1.974   .     S
Cu1256 N1263   2.035   .     S
H1261  N207    1.028   1_556 S
N1264  N207    1.298   1_556 S
N1264  H206    1.029   1_556 S
O1273  H1274   0.989   .     S
O1275  H1276   0.989   .     S
C1278  H1279   1.112   .     S
C1278  O1453   1.404   .     S
C1278  H1456   1.111   .     S
C1278  C1369   1.538   1_455 S
C1281  H1283   1.106   .     S
C1281  H1282   1.101   .     S
C1281  C1366   1.538   .     S
C1281  C1372   1.522   .     S
C1284  H1287   1.111   .     S
C1284  C1369   1.522   1_455 S
C1284  H846    1.110   1_455 S
H1285  C228    1.106   1_556 S
H1286  C316    1.110   1_556 S
O1288  C1465   1.415   .     S
C1289  C1292   1.521   .     S
C1289  H1378   1.099   .     S
H1290  C1377   1.099   1_455 S
H1291  C1553   1.095   1_455 S
C1292  C1295   1.522   .     S
C1292  H1294   1.104   .     S
C1292  H1293   1.109   .     S
C1295  H328    1.108   1_556 S
C1295  H241    1.110   1_556 S
C1295  H1386   1.111   .     S
H1296  C855    1.108   1_455 S
H1298  C1383   1.111   1_455 S
O1299  C1300   1.414   .     S
O1299  C1413   1.398   .     S
C1300  H1301   1.111   .     S
C1300  H1478   1.113   .     S
C1300  C1479   1.533   .     S
C1303  H1305   1.110   .     S
H1304  C1479   1.112   .     S
C1306  H1308   1.111   .     S
C1306  H1307   1.107   .     S
C1306  C247    1.524   1_556 S
H1309  C1482   1.109   .     S
O1310  C1311   1.411   .     S
C1311  C1314   1.529   .     S
C1311  H1312   1.114   .     S
H1313  C1487   1.109   .     S
C1314  C1317   1.525   .     S
C1314  H259    1.111   1_556 S
C1314  H260    1.107   1_556 S
C1317  H1318   1.102   .     S
C1317  H1319   1.107   .     S
C1317  H264    1.108   1_556 S
C1321  O1353   1.298   .     A
C1321  C1325   1.454   .     S
C1321  O1355   1.300   .     A
C1322  O1354   1.297   .     A
C1322  C1326   1.444   .     S
C1322  O1356   1.295   .     A
C1323  O1365   1.383   .     S
C1323  C1340   1.416   .     A
C1324  C1339   1.422   .     A
C1324  O1376   1.397   .     S
C1324  C1254   1.406   1_655 S
C1326  C1501   1.352   .     S
C1326  O1574   1.395   .     S
C1327  C1332   1.441   .     S
C1327  O1357   1.298   .     A
C1327  O1359   1.296   .     A
C1328  O1358   1.299   .     A
C1328  C1331   1.452   .     S
C1328  O1360   1.301   .     A
C1329  C1339   1.414   .     A
C1329  C1331   1.413   .     A
C1329  O1361   1.382   .     S
C1330  C1340   1.415   .     A
C1330  C1332   1.412   .     A
C1330  O1363   1.385   .     S
C1331  C1333   1.392   .     A
C1332  C1334   1.385   .     A
C1333  H1345   1.086   .     S
C1333  C1335   1.391   .     A
C1334  H1346   1.084   .     S
C1334  C1336   1.384   .     A
C1335  C1337   1.410   .     A
C1335  C1341   1.399   .     A
C1336  C1338   1.405   .     A
C1336  C1342   1.390   .     A
C1337  C1339   1.425   .     A
C1337  C1250   1.407   1_655 S
C1338  C1340   1.423   .     A
C1341  H1347   1.083   .     S
C1341  C1235   1.398   1_655 S
C1342  H1348   1.081   .     S
Cu1343 O1360   1.951   .     S
Cu1343 O1356   1.968   .     S
Cu1343 O1353   1.974   .     S
Cu1343 Cu1344  2.708   .     S
Cu1343 O1357   1.963   .     S
Cu1343 N1352   2.035   .     S
Cu1344 O1359   1.951   .     S
Cu1344 O1358   1.963   .     S
Cu1344 O1355   1.968   .     S
Cu1344 O1354   1.974   .     S
Cu1344 N1351   2.035   .     S
H1349  N295    1.028   1_556 S
N1352  N295    1.298   1_556 S
N1352  H294    1.029   1_556 S
O1361  H1362   0.989   .     S
O1363  H1364   0.989   .     S
C1366  H1367   1.112   .     S
C1366  O1541   1.404   .     S
C1366  H1544   1.111   .     S
C1369  H1371   1.106   .     S
C1369  H1370   1.101   .     S
C1369  C1278   1.538   1_655 S
C1369  C1284   1.522   1_655 S
C1372  H1375   1.111   .     S
H1373  C316    1.106   1_556 S
H1374  C228    1.110   1_656 S
O1376  C1553   1.415   .     S
C1377  C1380   1.521   .     S
C1377  H1290   1.099   1_655 S
C1377  H1115   1.095   1_655 S
H1379  C1465   1.095   .     S
C1380  C1383   1.522   .     S
C1380  H1382   1.104   .     S
C1380  H1381   1.109   .     S
C1383  H240    1.108   1_656 S
C1383  H329    1.110   1_556 S
C1383  H1298   1.111   1_655 S
O1387  C1388   1.414   .     S
O1387  C1501   1.398   .     S
C1388  H1389   1.111   .     S
C1388  H1566   1.113   .     S
C1388  C1567   1.533   .     S
C1391  H1393   1.110   .     S
H1392  C1567   1.112   .     S
C1394  H1396   1.111   .     S
C1394  H1395   1.107   .     S
C1394  C335    1.524   1_556 S
H1397  C1570   1.109   .     S
O1398  C1399   1.411   .     S
C1399  C1402   1.529   .     S
C1399  H1400   1.114   .     S
H1401  C1575   1.109   .     S
C1402  C1405   1.525   .     S
C1402  H347    1.111   1_556 S
C1402  H348    1.107   1_556 S
C1405  H1406   1.102   .     S
C1405  H1407   1.107   .     S
C1405  H352    1.108   1_556 S
C1409  O1441   1.298   .     A
C1409  C1413   1.454   .     S
C1409  O1443   1.300   .     A
C1410  O1442   1.297   .     A
C1410  C1414   1.444   .     S
C1410  O1444   1.295   .     A
C1411  O1453   1.383   .     S
C1411  C1428   1.416   .     A
C1411  C1517   1.398   1_455 S
C1412  C1427   1.422   .     A
C1412  O1464   1.397   .     S
C1412  C1518   1.406   .     S
C1414  C1061   1.352   1_565 S
C1414  O1134   1.395   1_565 S
C1415  C1420   1.441   .     S
C1415  O1445   1.298   .     A
C1415  O1447   1.296   .     A
C1416  O1446   1.299   .     A
C1416  C1419   1.452   .     S
C1416  O1448   1.301   .     A
C1417  C1427   1.414   .     A
C1417  C1419   1.413   .     A
C1417  O1449   1.382   .     S
C1418  C1428   1.415   .     A
C1418  C1420   1.412   .     A
C1418  O1451   1.385   .     S
C1419  C1421   1.392   .     A
C1420  C1422   1.385   .     A
C1421  H1433   1.086   .     S
C1421  C1423   1.391   .     A
C1422  H1434   1.084   .     S
C1422  C1424   1.384   .     A
C1423  C1425   1.410   .     A
C1423  C1429   1.399   .     A
C1424  C1426   1.405   .     A
C1424  C1430   1.390   .     A
C1425  C1427   1.425   .     A
C1425  C1514   1.407   .     S
C1426  C1428   1.423   .     A
C1426  C1513   1.407   1_455 S
C1429  H1435   1.083   .     S
C1429  C1499   1.398   .     S
C1430  H1436   1.081   .     S
C1430  C1500   1.406   1_455 S
Cu1431 O1448   1.951   .     S
Cu1431 O1444   1.968   .     S
Cu1431 O1441   1.974   .     S
Cu1431 Cu1432  2.708   .     S
Cu1431 O1445   1.963   .     S
Cu1431 N1440   2.035   .     S
Cu1432 O1447   1.951   .     S
Cu1432 O1446   1.963   .     S
Cu1432 O1443   1.968   .     S
Cu1432 O1442   1.974   .     S
Cu1432 N1439   2.035   .     S
H1437  N383    1.028   1_556 S
N1440  N383    1.298   1_556 S
N1440  H382    1.029   1_556 S
O1449  H1450   0.989   .     S
O1451  H1452   0.989   .     S
C1454  H1455   1.112   .     S
C1454  O1101   1.404   1_565 S
C1454  H1104   1.111   1_565 S
C1454  C1545   1.538   1_455 S
C1457  H1459   1.106   .     S
C1457  H1458   1.101   .     S
C1457  C1542   1.538   .     S
C1457  C1548   1.522   .     S
C1460  H1463   1.111   .     S
C1460  C1545   1.522   1_455 S
C1460  H1022   1.110   1_455 S
H1461  C404    1.106   1_556 S
H1462  C492    1.110   1_556 S
O1464  C1113   1.415   1_565 S
C1465  C1468   1.521   .     S
C1465  H1554   1.099   .     S
H1466  C1553   1.099   1_455 S
H1467  C1201   1.095   1_465 S
C1468  C1471   1.522   .     S
C1468  H1470   1.104   .     S
C1468  H1469   1.109   .     S
C1471  H504    1.108   1_556 S
C1471  H417    1.110   1_556 S
C1471  H1562   1.111   .     S
H1472  C1031   1.108   1_455 S
H1474  C1559   1.111   1_455 S
O1475  C1476   1.414   .     S
O1475  C1061   1.398   1_565 S
C1476  H1477   1.111   .     S
C1476  H1126   1.113   1_565 S
C1476  C1127   1.533   1_565 S
C1479  H1481   1.110   .     S
H1480  C1127   1.112   1_565 S
C1482  H1484   1.111   .     S
C1482  H1483   1.107   .     S
C1482  C423    1.524   1_556 S
H1485  C1130   1.109   1_565 S
O1486  C1487   1.411   .     S
C1487  C1490   1.529   .     S
C1487  H1488   1.114   .     S
H1489  C1135   1.109   1_565 S
C1490  C1493   1.525   .     S
C1490  H435    1.111   1_556 S
C1490  H436    1.107   1_556 S
C1493  H1494   1.102   .     S
C1493  H1495   1.107   .     S
C1493  H440    1.108   1_556 S
C1497  O1529   1.298   .     A
C1497  C1501   1.454   .     S
C1497  O1531   1.300   .     A
C1498  O1530   1.297   .     A
C1498  C1502   1.444   .     S
C1498  O1532   1.295   .     A
C1499  O1541   1.383   .     S
C1499  C1516   1.416   .     A
C1500  C1515   1.422   .     A
C1500  O1552   1.397   .     S
C1500  C1430   1.406   1_655 S
C1502  C1149   1.352   1_565 S
C1502  O1222   1.395   1_565 S
C1503  C1508   1.441   .     S
C1503  O1533   1.298   .     A
C1503  O1535   1.296   .     A
C1504  O1534   1.299   .     A
C1504  C1507   1.452   .     S
C1504  O1536   1.301   .     A
C1505  C1515   1.414   .     A
C1505  C1507   1.413   .     A
C1505  O1537   1.382   .     S
C1506  C1516   1.415   .     A
C1506  C1508   1.412   .     A
C1506  O1539   1.385   .     S
C1507  C1509   1.392   .     A
C1508  C1510   1.385   .     A
C1509  H1521   1.086   .     S
C1509  C1511   1.391   .     A
C1510  H1522   1.084   .     S
C1510  C1512   1.384   .     A
C1511  C1513   1.410   .     A
C1511  C1517   1.399   .     A
C1512  C1514   1.405   .     A
C1512  C1518   1.390   .     A
C1513  C1515   1.425   .     A
C1513  C1426   1.407   1_655 S
C1514  C1516   1.423   .     A
C1517  H1523   1.083   .     S
C1517  C1411   1.398   1_655 S
C1518  H1524   1.081   .     S
Cu1519 O1536   1.951   .     S
Cu1519 O1532   1.968   .     S
Cu1519 O1529   1.974   .     S
Cu1519 Cu1520  2.708   .     S
Cu1519 O1533   1.963   .     S
Cu1519 N1528   2.035   .     S
Cu1520 O1535   1.951   .     S
Cu1520 O1534   1.963   .     S
Cu1520 O1531   1.968   .     S
Cu1520 O1530   1.974   .     S
Cu1520 N1527   2.035   .     S
H1525  N471    1.028   1_556 S
N1528  N471    1.298   1_556 S
N1528  H470    1.029   1_556 S
O1537  H1538   0.989   .     S
O1539  H1540   0.989   .     S
C1542  H1543   1.112   .     S
C1542  O1189   1.404   1_565 S
C1542  H1192   1.111   1_565 S
C1545  H1547   1.106   .     S
C1545  H1546   1.101   .     S
C1545  C1454   1.538   1_655 S
C1545  C1460   1.522   1_655 S
C1548  H1551   1.111   .     S
H1549  C492    1.106   1_556 S
H1550  C404    1.110   1_656 S
O1552  C1201   1.415   1_565 S
C1553  C1556   1.521   .     S
C1553  H1466   1.099   1_655 S
C1553  H1291   1.095   1_655 S
H1555  C1113   1.095   1_565 S
C1556  C1559   1.522   .     S
C1556  H1558   1.104   .     S
C1556  H1557   1.109   .     S
C1559  H416    1.108   1_656 S
C1559  H505    1.110   1_556 S
C1559  H1474   1.111   1_655 S
O1563  C1564   1.414   .     S
O1563  C1149   1.398   1_565 S
C1564  H1565   1.111   .     S
C1564  H1214   1.113   1_565 S
C1564  C1215   1.533   1_565 S
C1567  H1569   1.110   .     S
H1568  C1215   1.112   1_565 S
C1570  H1572   1.111   .     S
C1570  H1571   1.107   .     S
C1570  C511    1.524   1_556 S
H1573  C1218   1.109   1_565 S
O1574  C1575   1.411   .     S
C1575  C1578   1.529   .     S
C1575  H1576   1.114   .     S
H1577  C1223   1.109   1_565 S
C1578  C1581   1.525   .     S
C1578  H523    1.111   1_556 S
C1578  H524    1.107   1_556 S
C1581  H1582   1.102   .     S
C1581  H1583   1.107   .     S
C1581  H528    1.108   1_556 S
