data_str_m2_o10_o17_pcu_sym.52
_audit_creation_date              2020-01-03
_audit_creation_method            'Materials Studio'
_symmetry_space_group_name_H-M    'P1'
_symmetry_Int_Tables_number       1
_symmetry_cell_setting            triclinic
loop_
_symmetry_equiv_pos_as_xyz
  x,y,z
_cell_length_a                    30.0771
_cell_length_b                    26.0494
_cell_length_c                    22.4100
_cell_angle_alpha                 103.0602
_cell_angle_beta                  94.8276
_cell_angle_gamma                 92.9116
loop_
_atom_site_label
_atom_site_type_symbol
_atom_site_fract_x
_atom_site_fract_y
_atom_site_fract_z
_atom_site_U_iso_or_equiv
_atom_site_adp_type
_atom_site_occupancy
C1     C     0.24863   0.06657   0.15104   0.00000  Uiso   1.00
C2     C     0.08858   0.14786   0.11197   0.00000  Uiso   1.00
C3     C     0.38404   0.16762   0.16586   0.00000  Uiso   1.00
C4     C     0.11596   0.16572   0.16748   0.00000  Uiso   1.00
C5     C     0.40299   0.14984   0.11053   0.00000  Uiso   1.00
C6     C     0.09701   0.18349   0.22280   0.00000  Uiso   1.00
C7     C     0.44926   0.14907   0.11050   0.00000  Uiso   1.00
C8     C     0.05074   0.18426   0.22283   0.00000  Uiso   1.00
C9     C     0.47673   0.16698   0.16646   0.00000  Uiso   1.00
C10    C     0.02327   0.16635   0.16687   0.00000  Uiso   1.00
C11    C     0.45769   0.18549   0.22203   0.00000  Uiso   1.00
C12    C     0.25137   0.26677   0.18229   0.00000  Uiso   1.00
C13    C     0.04231   0.14784   0.11130   0.00000  Uiso   1.00
C14    C     0.46850   0.13042   0.05561   0.00000  Uiso   1.00
C15    C     0.03149   0.20291   0.27773   0.00000  Uiso   1.00
C16    C     0.01482   0.12974   0.05603   0.00000  Uiso   1.00
C17    C     0.48518   0.20359   0.27731   0.00000  Uiso   1.00
C18    C     0.24799   0.01055   0.14231   0.00000  Uiso   1.00
C19    C     0.25201   0.32279   0.19102   0.00000  Uiso   1.00
C20    C     0.16437   0.16627   0.16706   0.00000  Uiso   1.00
C21    C     0.33563   0.16706   0.16628   0.00000  Uiso   1.00
C22    C     0.41142   0.18548   0.22137   0.00000  Uiso   1.00
Cu23   Cu    0.25500   0.17246   0.22813   0.00000  Uiso   1.00
Cu24   Cu    0.24499   0.16087   0.10521   0.00000  Uiso   1.00
F25    F     0.20743   0.11790   0.30813   0.00000  Uiso   1.00
F26    F     0.29257   0.21543   0.02520   0.00000  Uiso   1.00
H27    H     0.39676   0.19959   0.26413   0.00000  Uiso   1.00
H28    H     0.25580   0.01344   0.23790   0.00000  Uiso   1.00
H29    H     0.10324   0.13374   0.06920   0.00000  Uiso   1.00
H30    H     0.38176   0.13589   0.06771   0.00000  Uiso   1.00
H31    H     0.11824   0.19744   0.26563   0.00000  Uiso   1.00
H32    H     0.44776   0.11649   0.01241   0.00000  Uiso   1.00
H33    H     0.05224   0.21684   0.32093   0.00000  Uiso   1.00
H34    H     0.02915   0.11523   0.01314   0.00000  Uiso   1.00
H35    H     0.47085   0.21811   0.32019   0.00000  Uiso   1.00
H36    H     0.24420   0.31989   0.09543   0.00000  Uiso   1.00
N37    N     0.23744   0.15214   0.01284   0.00000  Uiso   1.00
N38    N     0.26255   0.18119   0.32049   0.00000  Uiso   1.00
O39    O     0.25325   0.09538   0.20659   0.00000  Uiso   1.00
O40    O     0.24674   0.23796   0.12674   0.00000  Uiso   1.00
O41    O     0.24480   0.08559   0.10279   0.00000  Uiso   1.00
O42    O     0.25520   0.24774   0.23055   0.00000  Uiso   1.00
O43    O     0.18935   0.17155   0.21857   0.00000  Uiso   1.00
O44    O     0.31064   0.16179   0.11476   0.00000  Uiso   1.00
O45    O     0.18090   0.16176   0.11477   0.00000  Uiso   1.00
O46    O     0.31910   0.17157   0.21857   0.00000  Uiso   1.00
C47    C     0.74863   0.06657   0.15104   0.00000  Uiso   1.00
C48    C     0.58858   0.14786   0.11197   0.00000  Uiso   1.00
C49    C     0.88404   0.16762   0.16586   0.00000  Uiso   1.00
C50    C     0.61596   0.16572   0.16748   0.00000  Uiso   1.00
C51    C     0.90299   0.14984   0.11053   0.00000  Uiso   1.00
C52    C     0.59701   0.18349   0.22280   0.00000  Uiso   1.00
C53    C     0.94926   0.14907   0.11050   0.00000  Uiso   1.00
C54    C     0.55074   0.18426   0.22283   0.00000  Uiso   1.00
C55    C     0.97673   0.16698   0.16646   0.00000  Uiso   1.00
C56    C     0.52327   0.16635   0.16687   0.00000  Uiso   1.00
C57    C     0.95769   0.18549   0.22203   0.00000  Uiso   1.00
C58    C     0.75137   0.26677   0.18229   0.00000  Uiso   1.00
C59    C     0.54231   0.14784   0.11130   0.00000  Uiso   1.00
C60    C     0.96850   0.13042   0.05561   0.00000  Uiso   1.00
C61    C     0.53149   0.20291   0.27773   0.00000  Uiso   1.00
C62    C     0.51482   0.12974   0.05603   0.00000  Uiso   1.00
C63    C     0.98518   0.20359   0.27731   0.00000  Uiso   1.00
C64    C     0.74799   0.01055   0.14231   0.00000  Uiso   1.00
C65    C     0.75201   0.32279   0.19102   0.00000  Uiso   1.00
C66    C     0.66437   0.16627   0.16706   0.00000  Uiso   1.00
C67    C     0.83563   0.16706   0.16628   0.00000  Uiso   1.00
C68    C     0.91142   0.18548   0.22137   0.00000  Uiso   1.00
Cu69   Cu    0.75500   0.17246   0.22813   0.00000  Uiso   1.00
Cu70   Cu    0.74499   0.16087   0.10521   0.00000  Uiso   1.00
F71    F     0.70743   0.11790   0.30813   0.00000  Uiso   1.00
F72    F     0.79257   0.21543   0.02520   0.00000  Uiso   1.00
H73    H     0.89676   0.19959   0.26413   0.00000  Uiso   1.00
H74    H     0.75580   0.01344   0.23790   0.00000  Uiso   1.00
H75    H     0.60324   0.13374   0.06920   0.00000  Uiso   1.00
H76    H     0.88176   0.13589   0.06771   0.00000  Uiso   1.00
H77    H     0.61824   0.19744   0.26563   0.00000  Uiso   1.00
H78    H     0.94776   0.11649   0.01241   0.00000  Uiso   1.00
H79    H     0.55224   0.21684   0.32093   0.00000  Uiso   1.00
H80    H     0.52915   0.11523   0.01314   0.00000  Uiso   1.00
H81    H     0.97085   0.21811   0.32019   0.00000  Uiso   1.00
H82    H     0.74420   0.31989   0.09543   0.00000  Uiso   1.00
N83    N     0.73744   0.15214   0.01284   0.00000  Uiso   1.00
N84    N     0.76255   0.18119   0.32049   0.00000  Uiso   1.00
O85    O     0.75325   0.09538   0.20659   0.00000  Uiso   1.00
O86    O     0.74674   0.23796   0.12674   0.00000  Uiso   1.00
O87    O     0.74480   0.08559   0.10279   0.00000  Uiso   1.00
O88    O     0.75520   0.24774   0.23055   0.00000  Uiso   1.00
O89    O     0.68935   0.17155   0.21857   0.00000  Uiso   1.00
O90    O     0.81064   0.16179   0.11476   0.00000  Uiso   1.00
O91    O     0.68090   0.16176   0.11477   0.00000  Uiso   1.00
O92    O     0.81910   0.17157   0.21857   0.00000  Uiso   1.00
C93    C     0.24863   0.39990   0.15104   0.00000  Uiso   1.00
C94    C     0.08858   0.48119   0.11197   0.00000  Uiso   1.00
C95    C     0.38404   0.50095   0.16586   0.00000  Uiso   1.00
C96    C     0.11596   0.49905   0.16748   0.00000  Uiso   1.00
C97    C     0.40299   0.48317   0.11053   0.00000  Uiso   1.00
C98    C     0.09701   0.51683   0.22280   0.00000  Uiso   1.00
C99    C     0.44926   0.48240   0.11050   0.00000  Uiso   1.00
C100   C     0.05074   0.51760   0.22283   0.00000  Uiso   1.00
C101   C     0.47673   0.50031   0.16646   0.00000  Uiso   1.00
C102   C     0.02327   0.49969   0.16687   0.00000  Uiso   1.00
C103   C     0.45769   0.51883   0.22203   0.00000  Uiso   1.00
C104   C     0.25137   0.60010   0.18229   0.00000  Uiso   1.00
C105   C     0.04231   0.48117   0.11130   0.00000  Uiso   1.00
C106   C     0.46850   0.46376   0.05561   0.00000  Uiso   1.00
C107   C     0.03149   0.53624   0.27773   0.00000  Uiso   1.00
C108   C     0.01482   0.46308   0.05603   0.00000  Uiso   1.00
C109   C     0.48518   0.53692   0.27731   0.00000  Uiso   1.00
C110   C     0.24799   0.34388   0.14231   0.00000  Uiso   1.00
C111   C     0.25201   0.65612   0.19102   0.00000  Uiso   1.00
C112   C     0.16437   0.49960   0.16706   0.00000  Uiso   1.00
C113   C     0.33563   0.50040   0.16628   0.00000  Uiso   1.00
C114   C     0.41142   0.51881   0.22137   0.00000  Uiso   1.00
Cu115  Cu    0.25500   0.50579   0.22813   0.00000  Uiso   1.00
Cu116  Cu    0.24499   0.49421   0.10521   0.00000  Uiso   1.00
F117   F     0.20743   0.45123   0.30813   0.00000  Uiso   1.00
F118   F     0.29257   0.54877   0.02520   0.00000  Uiso   1.00
H119   H     0.39676   0.53292   0.26413   0.00000  Uiso   1.00
H120   H     0.25580   0.34677   0.23790   0.00000  Uiso   1.00
H121   H     0.10324   0.46708   0.06920   0.00000  Uiso   1.00
H122   H     0.38176   0.46922   0.06771   0.00000  Uiso   1.00
H123   H     0.11824   0.53078   0.26563   0.00000  Uiso   1.00
H124   H     0.44776   0.44982   0.01241   0.00000  Uiso   1.00
H125   H     0.05224   0.55018   0.32093   0.00000  Uiso   1.00
H126   H     0.02915   0.44856   0.01314   0.00000  Uiso   1.00
H127   H     0.47085   0.55144   0.32019   0.00000  Uiso   1.00
H128   H     0.24420   0.65323   0.09543   0.00000  Uiso   1.00
N129   N     0.23744   0.48547   0.01284   0.00000  Uiso   1.00
N130   N     0.26255   0.51453   0.32049   0.00000  Uiso   1.00
O131   O     0.25325   0.42871   0.20659   0.00000  Uiso   1.00
O132   O     0.24674   0.57129   0.12674   0.00000  Uiso   1.00
O133   O     0.24480   0.41892   0.10279   0.00000  Uiso   1.00
O134   O     0.25520   0.58108   0.23055   0.00000  Uiso   1.00
O135   O     0.18935   0.50488   0.21857   0.00000  Uiso   1.00
O136   O     0.31064   0.49512   0.11476   0.00000  Uiso   1.00
O137   O     0.18090   0.49510   0.11477   0.00000  Uiso   1.00
O138   O     0.31910   0.50490   0.21857   0.00000  Uiso   1.00
C139   C     0.74863   0.39990   0.15104   0.00000  Uiso   1.00
C140   C     0.58858   0.48119   0.11197   0.00000  Uiso   1.00
C141   C     0.88404   0.50095   0.16586   0.00000  Uiso   1.00
C142   C     0.61596   0.49905   0.16748   0.00000  Uiso   1.00
C143   C     0.90299   0.48317   0.11053   0.00000  Uiso   1.00
C144   C     0.59701   0.51683   0.22280   0.00000  Uiso   1.00
C145   C     0.94926   0.48240   0.11050   0.00000  Uiso   1.00
C146   C     0.55074   0.51760   0.22283   0.00000  Uiso   1.00
C147   C     0.97673   0.50031   0.16646   0.00000  Uiso   1.00
C148   C     0.52327   0.49969   0.16687   0.00000  Uiso   1.00
C149   C     0.95769   0.51883   0.22203   0.00000  Uiso   1.00
C150   C     0.75137   0.60010   0.18229   0.00000  Uiso   1.00
C151   C     0.54231   0.48117   0.11130   0.00000  Uiso   1.00
C152   C     0.96850   0.46376   0.05561   0.00000  Uiso   1.00
C153   C     0.53149   0.53624   0.27773   0.00000  Uiso   1.00
C154   C     0.51482   0.46308   0.05603   0.00000  Uiso   1.00
C155   C     0.98518   0.53692   0.27731   0.00000  Uiso   1.00
C156   C     0.74799   0.34388   0.14231   0.00000  Uiso   1.00
C157   C     0.75201   0.65612   0.19102   0.00000  Uiso   1.00
C158   C     0.66437   0.49960   0.16706   0.00000  Uiso   1.00
C159   C     0.83563   0.50040   0.16628   0.00000  Uiso   1.00
C160   C     0.91142   0.51881   0.22137   0.00000  Uiso   1.00
Cu161  Cu    0.75500   0.50579   0.22813   0.00000  Uiso   1.00
Cu162  Cu    0.74499   0.49421   0.10521   0.00000  Uiso   1.00
F163   F     0.70743   0.45123   0.30813   0.00000  Uiso   1.00
F164   F     0.79257   0.54877   0.02520   0.00000  Uiso   1.00
H165   H     0.89676   0.53292   0.26413   0.00000  Uiso   1.00
H166   H     0.75580   0.34677   0.23790   0.00000  Uiso   1.00
H167   H     0.60324   0.46708   0.06920   0.00000  Uiso   1.00
H168   H     0.88176   0.46922   0.06771   0.00000  Uiso   1.00
H169   H     0.61824   0.53078   0.26563   0.00000  Uiso   1.00
H170   H     0.94776   0.44982   0.01241   0.00000  Uiso   1.00
H171   H     0.55224   0.55018   0.32093   0.00000  Uiso   1.00
H172   H     0.52915   0.44856   0.01314   0.00000  Uiso   1.00
H173   H     0.97085   0.55144   0.32019   0.00000  Uiso   1.00
H174   H     0.74420   0.65323   0.09543   0.00000  Uiso   1.00
N175   N     0.73744   0.48547   0.01284   0.00000  Uiso   1.00
N176   N     0.76255   0.51453   0.32049   0.00000  Uiso   1.00
O177   O     0.75325   0.42871   0.20659   0.00000  Uiso   1.00
O178   O     0.74674   0.57129   0.12674   0.00000  Uiso   1.00
O179   O     0.74480   0.41892   0.10279   0.00000  Uiso   1.00
O180   O     0.75520   0.58108   0.23055   0.00000  Uiso   1.00
O181   O     0.68935   0.50488   0.21857   0.00000  Uiso   1.00
O182   O     0.81064   0.49512   0.11476   0.00000  Uiso   1.00
O183   O     0.68090   0.49510   0.11477   0.00000  Uiso   1.00
O184   O     0.81910   0.50490   0.21857   0.00000  Uiso   1.00
C185   C     0.24863   0.73323   0.15104   0.00000  Uiso   1.00
C186   C     0.08858   0.81452   0.11197   0.00000  Uiso   1.00
C187   C     0.38404   0.83428   0.16586   0.00000  Uiso   1.00
C188   C     0.11596   0.83238   0.16748   0.00000  Uiso   1.00
C189   C     0.40299   0.81651   0.11053   0.00000  Uiso   1.00
C190   C     0.09701   0.85016   0.22280   0.00000  Uiso   1.00
C191   C     0.44926   0.81574   0.11050   0.00000  Uiso   1.00
C192   C     0.05074   0.85093   0.22283   0.00000  Uiso   1.00
C193   C     0.47673   0.83365   0.16646   0.00000  Uiso   1.00
C194   C     0.02327   0.83302   0.16687   0.00000  Uiso   1.00
C195   C     0.45769   0.85216   0.22203   0.00000  Uiso   1.00
C196   C     0.25137   0.93343   0.18229   0.00000  Uiso   1.00
C197   C     0.04231   0.81451   0.11130   0.00000  Uiso   1.00
C198   C     0.46850   0.79709   0.05561   0.00000  Uiso   1.00
C199   C     0.03149   0.86958   0.27773   0.00000  Uiso   1.00
C200   C     0.01482   0.79641   0.05603   0.00000  Uiso   1.00
C201   C     0.48518   0.87026   0.27731   0.00000  Uiso   1.00
C202   C     0.24799   0.67721   0.14231   0.00000  Uiso   1.00
C203   C     0.25201   0.98945   0.19102   0.00000  Uiso   1.00
C204   C     0.16437   0.83294   0.16706   0.00000  Uiso   1.00
C205   C     0.33563   0.83373   0.16628   0.00000  Uiso   1.00
C206   C     0.41142   0.85214   0.22137   0.00000  Uiso   1.00
Cu207  Cu    0.25500   0.83913   0.22813   0.00000  Uiso   1.00
Cu208  Cu    0.24499   0.82754   0.10521   0.00000  Uiso   1.00
F209   F     0.20743   0.78457   0.30813   0.00000  Uiso   1.00
F210   F     0.29257   0.88210   0.02520   0.00000  Uiso   1.00
H211   H     0.39676   0.86626   0.26413   0.00000  Uiso   1.00
H212   H     0.25580   0.68011   0.23790   0.00000  Uiso   1.00
H213   H     0.10324   0.80041   0.06920   0.00000  Uiso   1.00
H214   H     0.38176   0.80256   0.06771   0.00000  Uiso   1.00
H215   H     0.11824   0.86411   0.26563   0.00000  Uiso   1.00
H216   H     0.44776   0.78316   0.01241   0.00000  Uiso   1.00
H217   H     0.05224   0.88351   0.32093   0.00000  Uiso   1.00
H218   H     0.02915   0.78189   0.01314   0.00000  Uiso   1.00
H219   H     0.47085   0.88477   0.32019   0.00000  Uiso   1.00
H220   H     0.24420   0.98656   0.09543   0.00000  Uiso   1.00
N221   N     0.23744   0.81881   0.01284   0.00000  Uiso   1.00
N222   N     0.26255   0.84786   0.32049   0.00000  Uiso   1.00
O223   O     0.25325   0.76204   0.20659   0.00000  Uiso   1.00
O224   O     0.24674   0.90462   0.12674   0.00000  Uiso   1.00
O225   O     0.24480   0.75226   0.10279   0.00000  Uiso   1.00
O226   O     0.25520   0.91441   0.23055   0.00000  Uiso   1.00
O227   O     0.18935   0.83821   0.21857   0.00000  Uiso   1.00
O228   O     0.31064   0.82845   0.11476   0.00000  Uiso   1.00
O229   O     0.18090   0.82843   0.11477   0.00000  Uiso   1.00
O230   O     0.31910   0.83824   0.21857   0.00000  Uiso   1.00
C231   C     0.74863   0.73323   0.15104   0.00000  Uiso   1.00
C232   C     0.58858   0.81452   0.11197   0.00000  Uiso   1.00
C233   C     0.88404   0.83428   0.16586   0.00000  Uiso   1.00
C234   C     0.61596   0.83238   0.16748   0.00000  Uiso   1.00
C235   C     0.90299   0.81651   0.11053   0.00000  Uiso   1.00
C236   C     0.59701   0.85016   0.22280   0.00000  Uiso   1.00
C237   C     0.94926   0.81574   0.11050   0.00000  Uiso   1.00
C238   C     0.55074   0.85093   0.22283   0.00000  Uiso   1.00
C239   C     0.97673   0.83365   0.16646   0.00000  Uiso   1.00
C240   C     0.52327   0.83302   0.16687   0.00000  Uiso   1.00
C241   C     0.95769   0.85216   0.22203   0.00000  Uiso   1.00
C242   C     0.75137   0.93343   0.18229   0.00000  Uiso   1.00
C243   C     0.54231   0.81451   0.11130   0.00000  Uiso   1.00
C244   C     0.96850   0.79709   0.05561   0.00000  Uiso   1.00
C245   C     0.53149   0.86958   0.27773   0.00000  Uiso   1.00
C246   C     0.51482   0.79641   0.05603   0.00000  Uiso   1.00
C247   C     0.98518   0.87026   0.27731   0.00000  Uiso   1.00
C248   C     0.74799   0.67721   0.14231   0.00000  Uiso   1.00
C249   C     0.75201   0.98945   0.19102   0.00000  Uiso   1.00
C250   C     0.66437   0.83294   0.16706   0.00000  Uiso   1.00
C251   C     0.83563   0.83373   0.16628   0.00000  Uiso   1.00
C252   C     0.91142   0.85214   0.22137   0.00000  Uiso   1.00
Cu253  Cu    0.75500   0.83913   0.22813   0.00000  Uiso   1.00
Cu254  Cu    0.74499   0.82754   0.10521   0.00000  Uiso   1.00
F255   F     0.70743   0.78457   0.30813   0.00000  Uiso   1.00
F256   F     0.79257   0.88210   0.02520   0.00000  Uiso   1.00
H257   H     0.89676   0.86626   0.26413   0.00000  Uiso   1.00
H258   H     0.75580   0.68011   0.23790   0.00000  Uiso   1.00
H259   H     0.60324   0.80041   0.06920   0.00000  Uiso   1.00
H260   H     0.88176   0.80256   0.06771   0.00000  Uiso   1.00
H261   H     0.61824   0.86411   0.26563   0.00000  Uiso   1.00
H262   H     0.94776   0.78316   0.01241   0.00000  Uiso   1.00
H263   H     0.55224   0.88351   0.32093   0.00000  Uiso   1.00
H264   H     0.52915   0.78189   0.01314   0.00000  Uiso   1.00
H265   H     0.97085   0.88477   0.32019   0.00000  Uiso   1.00
H266   H     0.74420   0.98656   0.09543   0.00000  Uiso   1.00
N267   N     0.73744   0.81881   0.01284   0.00000  Uiso   1.00
N268   N     0.76255   0.84786   0.32049   0.00000  Uiso   1.00
O269   O     0.75325   0.76204   0.20659   0.00000  Uiso   1.00
O270   O     0.74674   0.90462   0.12674   0.00000  Uiso   1.00
O271   O     0.74480   0.75226   0.10279   0.00000  Uiso   1.00
O272   O     0.75520   0.91441   0.23055   0.00000  Uiso   1.00
O273   O     0.68935   0.83821   0.21857   0.00000  Uiso   1.00
O274   O     0.81064   0.82845   0.11476   0.00000  Uiso   1.00
O275   O     0.68090   0.82843   0.11477   0.00000  Uiso   1.00
O276   O     0.81910   0.83824   0.21857   0.00000  Uiso   1.00
C277   C     0.24863   0.06657   0.48438   0.00000  Uiso   1.00
C278   C     0.08858   0.14786   0.44530   0.00000  Uiso   1.00
C279   C     0.38404   0.16762   0.49919   0.00000  Uiso   1.00
C280   C     0.11596   0.16572   0.50081   0.00000  Uiso   1.00
C281   C     0.40299   0.14984   0.44386   0.00000  Uiso   1.00
C282   C     0.09701   0.18349   0.55614   0.00000  Uiso   1.00
C283   C     0.44926   0.14907   0.44383   0.00000  Uiso   1.00
C284   C     0.05074   0.18426   0.55617   0.00000  Uiso   1.00
C285   C     0.47673   0.16698   0.49980   0.00000  Uiso   1.00
C286   C     0.02327   0.16635   0.50020   0.00000  Uiso   1.00
C287   C     0.45769   0.18549   0.55536   0.00000  Uiso   1.00
C288   C     0.25137   0.26677   0.51562   0.00000  Uiso   1.00
C289   C     0.04231   0.14784   0.44464   0.00000  Uiso   1.00
C290   C     0.46850   0.13042   0.38894   0.00000  Uiso   1.00
C291   C     0.03149   0.20291   0.61106   0.00000  Uiso   1.00
C292   C     0.01482   0.12974   0.38936   0.00000  Uiso   1.00
C293   C     0.48518   0.20359   0.61064   0.00000  Uiso   1.00
C294   C     0.24799   0.01055   0.47565   0.00000  Uiso   1.00
C295   C     0.25201   0.32279   0.52435   0.00000  Uiso   1.00
C296   C     0.16437   0.16627   0.50039   0.00000  Uiso   1.00
C297   C     0.33563   0.16706   0.49961   0.00000  Uiso   1.00
C298   C     0.41142   0.18548   0.55470   0.00000  Uiso   1.00
Cu299  Cu    0.25500   0.17246   0.56146   0.00000  Uiso   1.00
Cu300  Cu    0.24499   0.16087   0.43854   0.00000  Uiso   1.00
F301   F     0.20743   0.11790   0.64146   0.00000  Uiso   1.00
F302   F     0.29257   0.21543   0.35854   0.00000  Uiso   1.00
H303   H     0.39676   0.19959   0.59746   0.00000  Uiso   1.00
H304   H     0.25580   0.01344   0.57123   0.00000  Uiso   1.00
H305   H     0.10324   0.13374   0.40254   0.00000  Uiso   1.00
H306   H     0.38176   0.13589   0.40104   0.00000  Uiso   1.00
H307   H     0.11824   0.19744   0.59896   0.00000  Uiso   1.00
H308   H     0.44776   0.11649   0.34574   0.00000  Uiso   1.00
H309   H     0.05224   0.21684   0.65426   0.00000  Uiso   1.00
H310   H     0.02915   0.11523   0.34647   0.00000  Uiso   1.00
H311   H     0.47085   0.21811   0.65353   0.00000  Uiso   1.00
H312   H     0.24420   0.31989   0.42877   0.00000  Uiso   1.00
N313   N     0.23744   0.15214   0.34617   0.00000  Uiso   1.00
N314   N     0.26255   0.18119   0.65383   0.00000  Uiso   1.00
O315   O     0.25325   0.09538   0.53992   0.00000  Uiso   1.00
O316   O     0.24674   0.23796   0.46008   0.00000  Uiso   1.00
O317   O     0.24480   0.08559   0.43612   0.00000  Uiso   1.00
O318   O     0.25520   0.24774   0.56388   0.00000  Uiso   1.00
O319   O     0.18935   0.17155   0.55191   0.00000  Uiso   1.00
O320   O     0.31064   0.16179   0.44809   0.00000  Uiso   1.00
O321   O     0.18090   0.16176   0.44810   0.00000  Uiso   1.00
O322   O     0.31910   0.17157   0.55190   0.00000  Uiso   1.00
C323   C     0.74863   0.06657   0.48438   0.00000  Uiso   1.00
C324   C     0.58858   0.14786   0.44530   0.00000  Uiso   1.00
C325   C     0.88404   0.16762   0.49919   0.00000  Uiso   1.00
C326   C     0.61596   0.16572   0.50081   0.00000  Uiso   1.00
C327   C     0.90299   0.14984   0.44386   0.00000  Uiso   1.00
C328   C     0.59701   0.18349   0.55614   0.00000  Uiso   1.00
C329   C     0.94926   0.14907   0.44383   0.00000  Uiso   1.00
C330   C     0.55074   0.18426   0.55617   0.00000  Uiso   1.00
C331   C     0.97673   0.16698   0.49980   0.00000  Uiso   1.00
C332   C     0.52327   0.16635   0.50020   0.00000  Uiso   1.00
C333   C     0.95769   0.18549   0.55536   0.00000  Uiso   1.00
C334   C     0.75137   0.26677   0.51562   0.00000  Uiso   1.00
C335   C     0.54231   0.14784   0.44464   0.00000  Uiso   1.00
C336   C     0.96850   0.13042   0.38894   0.00000  Uiso   1.00
C337   C     0.53149   0.20291   0.61106   0.00000  Uiso   1.00
C338   C     0.51482   0.12974   0.38936   0.00000  Uiso   1.00
C339   C     0.98518   0.20359   0.61064   0.00000  Uiso   1.00
C340   C     0.74799   0.01055   0.47565   0.00000  Uiso   1.00
C341   C     0.75201   0.32279   0.52435   0.00000  Uiso   1.00
C342   C     0.66437   0.16627   0.50039   0.00000  Uiso   1.00
C343   C     0.83563   0.16706   0.49961   0.00000  Uiso   1.00
C344   C     0.91142   0.18548   0.55470   0.00000  Uiso   1.00
Cu345  Cu    0.75500   0.17246   0.56146   0.00000  Uiso   1.00
Cu346  Cu    0.74499   0.16087   0.43854   0.00000  Uiso   1.00
F347   F     0.70743   0.11790   0.64146   0.00000  Uiso   1.00
F348   F     0.79257   0.21543   0.35854   0.00000  Uiso   1.00
H349   H     0.89676   0.19959   0.59746   0.00000  Uiso   1.00
H350   H     0.75580   0.01344   0.57123   0.00000  Uiso   1.00
H351   H     0.60324   0.13374   0.40254   0.00000  Uiso   1.00
H352   H     0.88176   0.13589   0.40104   0.00000  Uiso   1.00
H353   H     0.61824   0.19744   0.59896   0.00000  Uiso   1.00
H354   H     0.94776   0.11649   0.34574   0.00000  Uiso   1.00
H355   H     0.55224   0.21684   0.65426   0.00000  Uiso   1.00
H356   H     0.52915   0.11523   0.34647   0.00000  Uiso   1.00
H357   H     0.97085   0.21811   0.65353   0.00000  Uiso   1.00
H358   H     0.74420   0.31989   0.42877   0.00000  Uiso   1.00
N359   N     0.73744   0.15214   0.34617   0.00000  Uiso   1.00
N360   N     0.76255   0.18119   0.65383   0.00000  Uiso   1.00
O361   O     0.75325   0.09538   0.53992   0.00000  Uiso   1.00
O362   O     0.74674   0.23796   0.46008   0.00000  Uiso   1.00
O363   O     0.74480   0.08559   0.43612   0.00000  Uiso   1.00
O364   O     0.75520   0.24774   0.56388   0.00000  Uiso   1.00
O365   O     0.68935   0.17155   0.55191   0.00000  Uiso   1.00
O366   O     0.81064   0.16179   0.44809   0.00000  Uiso   1.00
O367   O     0.68090   0.16176   0.44810   0.00000  Uiso   1.00
O368   O     0.81910   0.17157   0.55190   0.00000  Uiso   1.00
C369   C     0.24863   0.39990   0.48438   0.00000  Uiso   1.00
C370   C     0.08858   0.48119   0.44530   0.00000  Uiso   1.00
C371   C     0.38404   0.50095   0.49919   0.00000  Uiso   1.00
C372   C     0.11596   0.49905   0.50081   0.00000  Uiso   1.00
C373   C     0.40299   0.48317   0.44386   0.00000  Uiso   1.00
C374   C     0.09701   0.51683   0.55614   0.00000  Uiso   1.00
C375   C     0.44926   0.48240   0.44383   0.00000  Uiso   1.00
C376   C     0.05074   0.51760   0.55617   0.00000  Uiso   1.00
C377   C     0.47673   0.50031   0.49980   0.00000  Uiso   1.00
C378   C     0.02327   0.49969   0.50020   0.00000  Uiso   1.00
C379   C     0.45769   0.51883   0.55536   0.00000  Uiso   1.00
C380   C     0.25137   0.60010   0.51562   0.00000  Uiso   1.00
C381   C     0.04231   0.48117   0.44464   0.00000  Uiso   1.00
C382   C     0.46850   0.46376   0.38894   0.00000  Uiso   1.00
C383   C     0.03149   0.53624   0.61106   0.00000  Uiso   1.00
C384   C     0.01482   0.46308   0.38936   0.00000  Uiso   1.00
C385   C     0.48518   0.53692   0.61064   0.00000  Uiso   1.00
C386   C     0.24799   0.34388   0.47565   0.00000  Uiso   1.00
C387   C     0.25201   0.65612   0.52435   0.00000  Uiso   1.00
C388   C     0.16437   0.49960   0.50039   0.00000  Uiso   1.00
C389   C     0.33563   0.50040   0.49961   0.00000  Uiso   1.00
C390   C     0.41142   0.51881   0.55470   0.00000  Uiso   1.00
Cu391  Cu    0.25500   0.50579   0.56146   0.00000  Uiso   1.00
Cu392  Cu    0.24499   0.49421   0.43854   0.00000  Uiso   1.00
F393   F     0.20743   0.45123   0.64146   0.00000  Uiso   1.00
F394   F     0.29257   0.54877   0.35854   0.00000  Uiso   1.00
H395   H     0.39676   0.53292   0.59746   0.00000  Uiso   1.00
H396   H     0.25580   0.34677   0.57123   0.00000  Uiso   1.00
H397   H     0.10324   0.46708   0.40254   0.00000  Uiso   1.00
H398   H     0.38176   0.46922   0.40104   0.00000  Uiso   1.00
H399   H     0.11824   0.53078   0.59896   0.00000  Uiso   1.00
H400   H     0.44776   0.44982   0.34574   0.00000  Uiso   1.00
H401   H     0.05224   0.55018   0.65426   0.00000  Uiso   1.00
H402   H     0.02915   0.44856   0.34647   0.00000  Uiso   1.00
H403   H     0.47085   0.55144   0.65353   0.00000  Uiso   1.00
H404   H     0.24420   0.65323   0.42877   0.00000  Uiso   1.00
N405   N     0.23744   0.48547   0.34617   0.00000  Uiso   1.00
N406   N     0.26255   0.51453   0.65383   0.00000  Uiso   1.00
O407   O     0.25325   0.42871   0.53992   0.00000  Uiso   1.00
O408   O     0.24674   0.57129   0.46008   0.00000  Uiso   1.00
O409   O     0.24480   0.41892   0.43612   0.00000  Uiso   1.00
O410   O     0.25520   0.58108   0.56388   0.00000  Uiso   1.00
O411   O     0.18935   0.50488   0.55191   0.00000  Uiso   1.00
O412   O     0.31064   0.49512   0.44809   0.00000  Uiso   1.00
O413   O     0.18090   0.49510   0.44810   0.00000  Uiso   1.00
O414   O     0.31910   0.50490   0.55190   0.00000  Uiso   1.00
C415   C     0.74863   0.39990   0.48438   0.00000  Uiso   1.00
C416   C     0.58858   0.48119   0.44530   0.00000  Uiso   1.00
C417   C     0.88404   0.50095   0.49919   0.00000  Uiso   1.00
C418   C     0.61596   0.49905   0.50081   0.00000  Uiso   1.00
C419   C     0.90299   0.48317   0.44386   0.00000  Uiso   1.00
C420   C     0.59701   0.51683   0.55614   0.00000  Uiso   1.00
C421   C     0.94926   0.48240   0.44383   0.00000  Uiso   1.00
C422   C     0.55074   0.51760   0.55617   0.00000  Uiso   1.00
C423   C     0.97673   0.50031   0.49980   0.00000  Uiso   1.00
C424   C     0.52327   0.49969   0.50020   0.00000  Uiso   1.00
C425   C     0.95769   0.51883   0.55536   0.00000  Uiso   1.00
C426   C     0.75137   0.60010   0.51562   0.00000  Uiso   1.00
C427   C     0.54231   0.48117   0.44464   0.00000  Uiso   1.00
C428   C     0.96850   0.46376   0.38894   0.00000  Uiso   1.00
C429   C     0.53149   0.53624   0.61106   0.00000  Uiso   1.00
C430   C     0.51482   0.46308   0.38936   0.00000  Uiso   1.00
C431   C     0.98518   0.53692   0.61064   0.00000  Uiso   1.00
C432   C     0.74799   0.34388   0.47565   0.00000  Uiso   1.00
C433   C     0.75201   0.65612   0.52435   0.00000  Uiso   1.00
C434   C     0.66437   0.49960   0.50039   0.00000  Uiso   1.00
C435   C     0.83563   0.50040   0.49961   0.00000  Uiso   1.00
C436   C     0.91142   0.51881   0.55470   0.00000  Uiso   1.00
Cu437  Cu    0.75500   0.50579   0.56146   0.00000  Uiso   1.00
Cu438  Cu    0.74499   0.49421   0.43854   0.00000  Uiso   1.00
F439   F     0.70743   0.45123   0.64146   0.00000  Uiso   1.00
F440   F     0.79257   0.54877   0.35854   0.00000  Uiso   1.00
H441   H     0.89676   0.53292   0.59746   0.00000  Uiso   1.00
H442   H     0.75580   0.34677   0.57123   0.00000  Uiso   1.00
H443   H     0.60324   0.46708   0.40254   0.00000  Uiso   1.00
H444   H     0.88176   0.46922   0.40104   0.00000  Uiso   1.00
H445   H     0.61824   0.53078   0.59896   0.00000  Uiso   1.00
H446   H     0.94776   0.44982   0.34574   0.00000  Uiso   1.00
H447   H     0.55224   0.55018   0.65426   0.00000  Uiso   1.00
H448   H     0.52915   0.44856   0.34647   0.00000  Uiso   1.00
H449   H     0.97085   0.55144   0.65353   0.00000  Uiso   1.00
H450   H     0.74420   0.65323   0.42877   0.00000  Uiso   1.00
N451   N     0.73744   0.48547   0.34617   0.00000  Uiso   1.00
N452   N     0.76255   0.51453   0.65383   0.00000  Uiso   1.00
O453   O     0.75325   0.42871   0.53992   0.00000  Uiso   1.00
O454   O     0.74674   0.57129   0.46008   0.00000  Uiso   1.00
O455   O     0.74480   0.41892   0.43612   0.00000  Uiso   1.00
O456   O     0.75520   0.58108   0.56388   0.00000  Uiso   1.00
O457   O     0.68935   0.50488   0.55191   0.00000  Uiso   1.00
O458   O     0.81064   0.49512   0.44809   0.00000  Uiso   1.00
O459   O     0.68090   0.49510   0.44810   0.00000  Uiso   1.00
O460   O     0.81910   0.50490   0.55190   0.00000  Uiso   1.00
C461   C     0.24863   0.73323   0.48438   0.00000  Uiso   1.00
C462   C     0.08858   0.81452   0.44530   0.00000  Uiso   1.00
C463   C     0.38404   0.83428   0.49919   0.00000  Uiso   1.00
C464   C     0.11596   0.83238   0.50081   0.00000  Uiso   1.00
C465   C     0.40299   0.81651   0.44386   0.00000  Uiso   1.00
C466   C     0.09701   0.85016   0.55614   0.00000  Uiso   1.00
C467   C     0.44926   0.81574   0.44383   0.00000  Uiso   1.00
C468   C     0.05074   0.85093   0.55617   0.00000  Uiso   1.00
C469   C     0.47673   0.83365   0.49980   0.00000  Uiso   1.00
C470   C     0.02327   0.83302   0.50020   0.00000  Uiso   1.00
C471   C     0.45769   0.85216   0.55536   0.00000  Uiso   1.00
C472   C     0.25137   0.93343   0.51562   0.00000  Uiso   1.00
C473   C     0.04231   0.81451   0.44464   0.00000  Uiso   1.00
C474   C     0.46850   0.79709   0.38894   0.00000  Uiso   1.00
C475   C     0.03149   0.86958   0.61106   0.00000  Uiso   1.00
C476   C     0.01482   0.79641   0.38936   0.00000  Uiso   1.00
C477   C     0.48518   0.87026   0.61064   0.00000  Uiso   1.00
C478   C     0.24799   0.67721   0.47565   0.00000  Uiso   1.00
C479   C     0.25201   0.98945   0.52435   0.00000  Uiso   1.00
C480   C     0.16437   0.83294   0.50039   0.00000  Uiso   1.00
C481   C     0.33563   0.83373   0.49961   0.00000  Uiso   1.00
C482   C     0.41142   0.85214   0.55470   0.00000  Uiso   1.00
Cu483  Cu    0.25500   0.83913   0.56146   0.00000  Uiso   1.00
Cu484  Cu    0.24499   0.82754   0.43854   0.00000  Uiso   1.00
F485   F     0.20743   0.78457   0.64146   0.00000  Uiso   1.00
F486   F     0.29257   0.88210   0.35854   0.00000  Uiso   1.00
H487   H     0.39676   0.86626   0.59746   0.00000  Uiso   1.00
H488   H     0.25580   0.68011   0.57123   0.00000  Uiso   1.00
H489   H     0.10324   0.80041   0.40254   0.00000  Uiso   1.00
H490   H     0.38176   0.80256   0.40104   0.00000  Uiso   1.00
H491   H     0.11824   0.86411   0.59896   0.00000  Uiso   1.00
H492   H     0.44776   0.78316   0.34574   0.00000  Uiso   1.00
H493   H     0.05224   0.88351   0.65426   0.00000  Uiso   1.00
H494   H     0.02915   0.78189   0.34647   0.00000  Uiso   1.00
H495   H     0.47085   0.88477   0.65353   0.00000  Uiso   1.00
H496   H     0.24420   0.98656   0.42877   0.00000  Uiso   1.00
N497   N     0.23744   0.81881   0.34617   0.00000  Uiso   1.00
N498   N     0.26255   0.84786   0.65383   0.00000  Uiso   1.00
O499   O     0.25325   0.76204   0.53992   0.00000  Uiso   1.00
O500   O     0.24674   0.90462   0.46008   0.00000  Uiso   1.00
O501   O     0.24480   0.75226   0.43612   0.00000  Uiso   1.00
O502   O     0.25520   0.91441   0.56388   0.00000  Uiso   1.00
O503   O     0.18935   0.83821   0.55191   0.00000  Uiso   1.00
O504   O     0.31064   0.82845   0.44809   0.00000  Uiso   1.00
O505   O     0.18090   0.82843   0.44810   0.00000  Uiso   1.00
O506   O     0.31910   0.83824   0.55190   0.00000  Uiso   1.00
C507   C     0.74863   0.73323   0.48438   0.00000  Uiso   1.00
C508   C     0.58858   0.81452   0.44530   0.00000  Uiso   1.00
C509   C     0.88404   0.83428   0.49919   0.00000  Uiso   1.00
C510   C     0.61596   0.83238   0.50081   0.00000  Uiso   1.00
C511   C     0.90299   0.81651   0.44386   0.00000  Uiso   1.00
C512   C     0.59701   0.85016   0.55614   0.00000  Uiso   1.00
C513   C     0.94926   0.81574   0.44383   0.00000  Uiso   1.00
C514   C     0.55074   0.85093   0.55617   0.00000  Uiso   1.00
C515   C     0.97673   0.83365   0.49980   0.00000  Uiso   1.00
C516   C     0.52327   0.83302   0.50020   0.00000  Uiso   1.00
C517   C     0.95769   0.85216   0.55536   0.00000  Uiso   1.00
C518   C     0.75137   0.93343   0.51562   0.00000  Uiso   1.00
C519   C     0.54231   0.81451   0.44464   0.00000  Uiso   1.00
C520   C     0.96850   0.79709   0.38894   0.00000  Uiso   1.00
C521   C     0.53149   0.86958   0.61106   0.00000  Uiso   1.00
C522   C     0.51482   0.79641   0.38936   0.00000  Uiso   1.00
C523   C     0.98518   0.87026   0.61064   0.00000  Uiso   1.00
C524   C     0.74799   0.67721   0.47565   0.00000  Uiso   1.00
C525   C     0.75201   0.98945   0.52435   0.00000  Uiso   1.00
C526   C     0.66437   0.83294   0.50039   0.00000  Uiso   1.00
C527   C     0.83563   0.83373   0.49961   0.00000  Uiso   1.00
C528   C     0.91142   0.85214   0.55470   0.00000  Uiso   1.00
Cu529  Cu    0.75500   0.83913   0.56146   0.00000  Uiso   1.00
Cu530  Cu    0.74499   0.82754   0.43854   0.00000  Uiso   1.00
F531   F     0.70743   0.78457   0.64146   0.00000  Uiso   1.00
F532   F     0.79257   0.88210   0.35854   0.00000  Uiso   1.00
H533   H     0.89676   0.86626   0.59746   0.00000  Uiso   1.00
H534   H     0.75580   0.68011   0.57123   0.00000  Uiso   1.00
H535   H     0.60324   0.80041   0.40254   0.00000  Uiso   1.00
H536   H     0.88176   0.80256   0.40104   0.00000  Uiso   1.00
H537   H     0.61824   0.86411   0.59896   0.00000  Uiso   1.00
H538   H     0.94776   0.78316   0.34574   0.00000  Uiso   1.00
H539   H     0.55224   0.88351   0.65426   0.00000  Uiso   1.00
H540   H     0.52915   0.78189   0.34647   0.00000  Uiso   1.00
H541   H     0.97085   0.88477   0.65353   0.00000  Uiso   1.00
H542   H     0.74420   0.98656   0.42877   0.00000  Uiso   1.00
N543   N     0.73744   0.81881   0.34617   0.00000  Uiso   1.00
N544   N     0.76255   0.84786   0.65383   0.00000  Uiso   1.00
O545   O     0.75325   0.76204   0.53992   0.00000  Uiso   1.00
O546   O     0.74674   0.90462   0.46008   0.00000  Uiso   1.00
O547   O     0.74480   0.75226   0.43612   0.00000  Uiso   1.00
O548   O     0.75520   0.91441   0.56388   0.00000  Uiso   1.00
O549   O     0.68935   0.83821   0.55191   0.00000  Uiso   1.00
O550   O     0.81064   0.82845   0.44809   0.00000  Uiso   1.00
O551   O     0.68090   0.82843   0.44810   0.00000  Uiso   1.00
O552   O     0.81910   0.83824   0.55190   0.00000  Uiso   1.00
C553   C     0.24863   0.06657   0.81771   0.00000  Uiso   1.00
C554   C     0.08858   0.14786   0.77863   0.00000  Uiso   1.00
C555   C     0.38404   0.16762   0.83252   0.00000  Uiso   1.00
C556   C     0.11596   0.16572   0.83414   0.00000  Uiso   1.00
C557   C     0.40299   0.14984   0.77720   0.00000  Uiso   1.00
C558   C     0.09701   0.18349   0.88947   0.00000  Uiso   1.00
C559   C     0.44926   0.14907   0.77717   0.00000  Uiso   1.00
C560   C     0.05074   0.18426   0.88950   0.00000  Uiso   1.00
C561   C     0.47673   0.16698   0.83313   0.00000  Uiso   1.00
C562   C     0.02327   0.16635   0.83354   0.00000  Uiso   1.00
C563   C     0.45769   0.18549   0.88870   0.00000  Uiso   1.00
C564   C     0.25137   0.26677   0.84896   0.00000  Uiso   1.00
C565   C     0.04231   0.14784   0.77797   0.00000  Uiso   1.00
C566   C     0.46850   0.13042   0.72227   0.00000  Uiso   1.00
C567   C     0.03149   0.20291   0.94439   0.00000  Uiso   1.00
C568   C     0.01482   0.12974   0.72269   0.00000  Uiso   1.00
C569   C     0.48518   0.20359   0.94397   0.00000  Uiso   1.00
C570   C     0.24799   0.01055   0.80898   0.00000  Uiso   1.00
C571   C     0.25201   0.32279   0.85769   0.00000  Uiso   1.00
C572   C     0.16437   0.16627   0.83372   0.00000  Uiso   1.00
C573   C     0.33563   0.16706   0.83294   0.00000  Uiso   1.00
C574   C     0.41142   0.18548   0.88803   0.00000  Uiso   1.00
Cu575  Cu    0.25500   0.17246   0.89479   0.00000  Uiso   1.00
Cu576  Cu    0.24499   0.16087   0.77187   0.00000  Uiso   1.00
F577   F     0.20743   0.11790   0.97480   0.00000  Uiso   1.00
F578   F     0.29257   0.21543   0.69187   0.00000  Uiso   1.00
H579   H     0.39676   0.19959   0.93080   0.00000  Uiso   1.00
H580   H     0.25580   0.01344   0.90457   0.00000  Uiso   1.00
H581   H     0.10324   0.13374   0.73587   0.00000  Uiso   1.00
H582   H     0.38176   0.13589   0.73437   0.00000  Uiso   1.00
H583   H     0.11824   0.19744   0.93229   0.00000  Uiso   1.00
H584   H     0.44776   0.11649   0.67907   0.00000  Uiso   1.00
H585   H     0.05224   0.21684   0.98759   0.00000  Uiso   1.00
H586   H     0.02915   0.11523   0.67981   0.00000  Uiso   1.00
H587   H     0.47085   0.21811   0.98686   0.00000  Uiso   1.00
H588   H     0.24420   0.31989   0.76210   0.00000  Uiso   1.00
N589   N     0.23744   0.15214   0.67951   0.00000  Uiso   1.00
N590   N     0.26255   0.18119   0.98716   0.00000  Uiso   1.00
O591   O     0.25325   0.09538   0.87326   0.00000  Uiso   1.00
O592   O     0.24674   0.23796   0.79341   0.00000  Uiso   1.00
O593   O     0.24480   0.08559   0.76945   0.00000  Uiso   1.00
O594   O     0.25520   0.24774   0.89721   0.00000  Uiso   1.00
O595   O     0.18935   0.17155   0.88524   0.00000  Uiso   1.00
O596   O     0.31064   0.16179   0.78143   0.00000  Uiso   1.00
O597   O     0.18090   0.16176   0.78143   0.00000  Uiso   1.00
O598   O     0.31910   0.17157   0.88523   0.00000  Uiso   1.00
C599   C     0.74863   0.06657   0.81771   0.00000  Uiso   1.00
C600   C     0.58858   0.14786   0.77863   0.00000  Uiso   1.00
C601   C     0.88404   0.16762   0.83252   0.00000  Uiso   1.00
C602   C     0.61596   0.16572   0.83414   0.00000  Uiso   1.00
C603   C     0.90299   0.14984   0.77720   0.00000  Uiso   1.00
C604   C     0.59701   0.18349   0.88947   0.00000  Uiso   1.00
C605   C     0.94926   0.14907   0.77717   0.00000  Uiso   1.00
C606   C     0.55074   0.18426   0.88950   0.00000  Uiso   1.00
C607   C     0.97673   0.16698   0.83313   0.00000  Uiso   1.00
C608   C     0.52327   0.16635   0.83354   0.00000  Uiso   1.00
C609   C     0.95769   0.18549   0.88870   0.00000  Uiso   1.00
C610   C     0.75137   0.26677   0.84896   0.00000  Uiso   1.00
C611   C     0.54231   0.14784   0.77797   0.00000  Uiso   1.00
C612   C     0.96850   0.13042   0.72227   0.00000  Uiso   1.00
C613   C     0.53149   0.20291   0.94439   0.00000  Uiso   1.00
C614   C     0.51482   0.12974   0.72269   0.00000  Uiso   1.00
C615   C     0.98518   0.20359   0.94397   0.00000  Uiso   1.00
C616   C     0.74799   0.01055   0.80898   0.00000  Uiso   1.00
C617   C     0.75201   0.32279   0.85769   0.00000  Uiso   1.00
C618   C     0.66437   0.16627   0.83372   0.00000  Uiso   1.00
C619   C     0.83563   0.16706   0.83294   0.00000  Uiso   1.00
C620   C     0.91142   0.18548   0.88803   0.00000  Uiso   1.00
Cu621  Cu    0.75500   0.17246   0.89479   0.00000  Uiso   1.00
Cu622  Cu    0.74499   0.16087   0.77187   0.00000  Uiso   1.00
F623   F     0.70743   0.11790   0.97480   0.00000  Uiso   1.00
F624   F     0.79257   0.21543   0.69187   0.00000  Uiso   1.00
H625   H     0.89676   0.19959   0.93080   0.00000  Uiso   1.00
H626   H     0.75580   0.01344   0.90457   0.00000  Uiso   1.00
H627   H     0.60324   0.13374   0.73587   0.00000  Uiso   1.00
H628   H     0.88176   0.13589   0.73437   0.00000  Uiso   1.00
H629   H     0.61824   0.19744   0.93229   0.00000  Uiso   1.00
H630   H     0.94776   0.11649   0.67907   0.00000  Uiso   1.00
H631   H     0.55224   0.21684   0.98759   0.00000  Uiso   1.00
H632   H     0.52915   0.11523   0.67981   0.00000  Uiso   1.00
H633   H     0.97085   0.21811   0.98686   0.00000  Uiso   1.00
H634   H     0.74420   0.31989   0.76210   0.00000  Uiso   1.00
N635   N     0.73744   0.15214   0.67951   0.00000  Uiso   1.00
N636   N     0.76255   0.18119   0.98716   0.00000  Uiso   1.00
O637   O     0.75325   0.09538   0.87326   0.00000  Uiso   1.00
O638   O     0.74674   0.23796   0.79341   0.00000  Uiso   1.00
O639   O     0.74480   0.08559   0.76945   0.00000  Uiso   1.00
O640   O     0.75520   0.24774   0.89721   0.00000  Uiso   1.00
O641   O     0.68935   0.17155   0.88524   0.00000  Uiso   1.00
O642   O     0.81064   0.16179   0.78143   0.00000  Uiso   1.00
O643   O     0.68090   0.16176   0.78143   0.00000  Uiso   1.00
O644   O     0.81910   0.17157   0.88523   0.00000  Uiso   1.00
C645   C     0.24863   0.39990   0.81771   0.00000  Uiso   1.00
C646   C     0.08858   0.48119   0.77863   0.00000  Uiso   1.00
C647   C     0.38404   0.50095   0.83252   0.00000  Uiso   1.00
C648   C     0.11596   0.49905   0.83414   0.00000  Uiso   1.00
C649   C     0.40299   0.48317   0.77720   0.00000  Uiso   1.00
C650   C     0.09701   0.51683   0.88947   0.00000  Uiso   1.00
C651   C     0.44926   0.48240   0.77717   0.00000  Uiso   1.00
C652   C     0.05074   0.51760   0.88950   0.00000  Uiso   1.00
C653   C     0.47673   0.50031   0.83313   0.00000  Uiso   1.00
C654   C     0.02327   0.49969   0.83354   0.00000  Uiso   1.00
C655   C     0.45769   0.51883   0.88870   0.00000  Uiso   1.00
C656   C     0.25137   0.60010   0.84896   0.00000  Uiso   1.00
C657   C     0.04231   0.48117   0.77797   0.00000  Uiso   1.00
C658   C     0.46850   0.46376   0.72227   0.00000  Uiso   1.00
C659   C     0.03149   0.53624   0.94439   0.00000  Uiso   1.00
C660   C     0.01482   0.46308   0.72269   0.00000  Uiso   1.00
C661   C     0.48518   0.53692   0.94397   0.00000  Uiso   1.00
C662   C     0.24799   0.34388   0.80898   0.00000  Uiso   1.00
C663   C     0.25201   0.65612   0.85769   0.00000  Uiso   1.00
C664   C     0.16437   0.49960   0.83372   0.00000  Uiso   1.00
C665   C     0.33563   0.50040   0.83294   0.00000  Uiso   1.00
C666   C     0.41142   0.51881   0.88803   0.00000  Uiso   1.00
Cu667  Cu    0.25500   0.50579   0.89479   0.00000  Uiso   1.00
Cu668  Cu    0.24499   0.49421   0.77187   0.00000  Uiso   1.00
F669   F     0.20743   0.45123   0.97480   0.00000  Uiso   1.00
F670   F     0.29257   0.54877   0.69187   0.00000  Uiso   1.00
H671   H     0.39676   0.53292   0.93080   0.00000  Uiso   1.00
H672   H     0.25580   0.34677   0.90457   0.00000  Uiso   1.00
H673   H     0.10324   0.46708   0.73587   0.00000  Uiso   1.00
H674   H     0.38176   0.46922   0.73437   0.00000  Uiso   1.00
H675   H     0.11824   0.53078   0.93229   0.00000  Uiso   1.00
H676   H     0.44776   0.44982   0.67907   0.00000  Uiso   1.00
H677   H     0.05224   0.55018   0.98759   0.00000  Uiso   1.00
H678   H     0.02915   0.44856   0.67981   0.00000  Uiso   1.00
H679   H     0.47085   0.55144   0.98686   0.00000  Uiso   1.00
H680   H     0.24420   0.65323   0.76210   0.00000  Uiso   1.00
N681   N     0.23744   0.48547   0.67951   0.00000  Uiso   1.00
N682   N     0.26255   0.51453   0.98716   0.00000  Uiso   1.00
O683   O     0.25325   0.42871   0.87326   0.00000  Uiso   1.00
O684   O     0.24674   0.57129   0.79341   0.00000  Uiso   1.00
O685   O     0.24480   0.41892   0.76945   0.00000  Uiso   1.00
O686   O     0.25520   0.58108   0.89721   0.00000  Uiso   1.00
O687   O     0.18935   0.50488   0.88524   0.00000  Uiso   1.00
O688   O     0.31064   0.49512   0.78143   0.00000  Uiso   1.00
O689   O     0.18090   0.49510   0.78143   0.00000  Uiso   1.00
O690   O     0.31910   0.50490   0.88523   0.00000  Uiso   1.00
C691   C     0.74863   0.39990   0.81771   0.00000  Uiso   1.00
C692   C     0.58858   0.48119   0.77863   0.00000  Uiso   1.00
C693   C     0.88404   0.50095   0.83252   0.00000  Uiso   1.00
C694   C     0.61596   0.49905   0.83414   0.00000  Uiso   1.00
C695   C     0.90299   0.48317   0.77720   0.00000  Uiso   1.00
C696   C     0.59701   0.51683   0.88947   0.00000  Uiso   1.00
C697   C     0.94926   0.48240   0.77717   0.00000  Uiso   1.00
C698   C     0.55074   0.51760   0.88950   0.00000  Uiso   1.00
C699   C     0.97673   0.50031   0.83313   0.00000  Uiso   1.00
C700   C     0.52327   0.49969   0.83354   0.00000  Uiso   1.00
C701   C     0.95769   0.51883   0.88870   0.00000  Uiso   1.00
C702   C     0.75137   0.60010   0.84896   0.00000  Uiso   1.00
C703   C     0.54231   0.48117   0.77797   0.00000  Uiso   1.00
C704   C     0.96850   0.46376   0.72227   0.00000  Uiso   1.00
C705   C     0.53149   0.53624   0.94439   0.00000  Uiso   1.00
C706   C     0.51482   0.46308   0.72269   0.00000  Uiso   1.00
C707   C     0.98518   0.53692   0.94397   0.00000  Uiso   1.00
C708   C     0.74799   0.34388   0.80898   0.00000  Uiso   1.00
C709   C     0.75201   0.65612   0.85769   0.00000  Uiso   1.00
C710   C     0.66437   0.49960   0.83372   0.00000  Uiso   1.00
C711   C     0.83563   0.50040   0.83294   0.00000  Uiso   1.00
C712   C     0.91142   0.51881   0.88803   0.00000  Uiso   1.00
Cu713  Cu    0.75500   0.50579   0.89479   0.00000  Uiso   1.00
Cu714  Cu    0.74499   0.49421   0.77187   0.00000  Uiso   1.00
F715   F     0.70743   0.45123   0.97480   0.00000  Uiso   1.00
F716   F     0.79257   0.54877   0.69187   0.00000  Uiso   1.00
H717   H     0.89676   0.53292   0.93080   0.00000  Uiso   1.00
H718   H     0.75580   0.34677   0.90457   0.00000  Uiso   1.00
H719   H     0.60324   0.46708   0.73587   0.00000  Uiso   1.00
H720   H     0.88176   0.46922   0.73437   0.00000  Uiso   1.00
H721   H     0.61824   0.53078   0.93229   0.00000  Uiso   1.00
H722   H     0.94776   0.44982   0.67907   0.00000  Uiso   1.00
H723   H     0.55224   0.55018   0.98759   0.00000  Uiso   1.00
H724   H     0.52915   0.44856   0.67981   0.00000  Uiso   1.00
H725   H     0.97085   0.55144   0.98686   0.00000  Uiso   1.00
H726   H     0.74420   0.65323   0.76210   0.00000  Uiso   1.00
N727   N     0.73744   0.48547   0.67951   0.00000  Uiso   1.00
N728   N     0.76255   0.51453   0.98716   0.00000  Uiso   1.00
O729   O     0.75325   0.42871   0.87326   0.00000  Uiso   1.00
O730   O     0.74674   0.57129   0.79341   0.00000  Uiso   1.00
O731   O     0.74480   0.41892   0.76945   0.00000  Uiso   1.00
O732   O     0.75520   0.58108   0.89721   0.00000  Uiso   1.00
O733   O     0.68935   0.50488   0.88524   0.00000  Uiso   1.00
O734   O     0.81064   0.49512   0.78143   0.00000  Uiso   1.00
O735   O     0.68090   0.49510   0.78143   0.00000  Uiso   1.00
O736   O     0.81910   0.50490   0.88523   0.00000  Uiso   1.00
C737   C     0.24863   0.73323   0.81771   0.00000  Uiso   1.00
C738   C     0.08858   0.81452   0.77863   0.00000  Uiso   1.00
C739   C     0.38404   0.83428   0.83252   0.00000  Uiso   1.00
C740   C     0.11596   0.83238   0.83414   0.00000  Uiso   1.00
C741   C     0.40299   0.81651   0.77720   0.00000  Uiso   1.00
C742   C     0.09701   0.85016   0.88947   0.00000  Uiso   1.00
C743   C     0.44926   0.81574   0.77717   0.00000  Uiso   1.00
C744   C     0.05074   0.85093   0.88950   0.00000  Uiso   1.00
C745   C     0.47673   0.83365   0.83313   0.00000  Uiso   1.00
C746   C     0.02327   0.83302   0.83354   0.00000  Uiso   1.00
C747   C     0.45769   0.85216   0.88870   0.00000  Uiso   1.00
C748   C     0.25137   0.93343   0.84896   0.00000  Uiso   1.00
C749   C     0.04231   0.81451   0.77797   0.00000  Uiso   1.00
C750   C     0.46850   0.79709   0.72227   0.00000  Uiso   1.00
C751   C     0.03149   0.86958   0.94439   0.00000  Uiso   1.00
C752   C     0.01482   0.79641   0.72269   0.00000  Uiso   1.00
C753   C     0.48518   0.87026   0.94397   0.00000  Uiso   1.00
C754   C     0.24799   0.67721   0.80898   0.00000  Uiso   1.00
C755   C     0.25201   0.98945   0.85769   0.00000  Uiso   1.00
C756   C     0.16437   0.83294   0.83372   0.00000  Uiso   1.00
C757   C     0.33563   0.83373   0.83294   0.00000  Uiso   1.00
C758   C     0.41142   0.85214   0.88803   0.00000  Uiso   1.00
Cu759  Cu    0.25500   0.83913   0.89479   0.00000  Uiso   1.00
Cu760  Cu    0.24499   0.82754   0.77187   0.00000  Uiso   1.00
F761   F     0.20743   0.78457   0.97480   0.00000  Uiso   1.00
F762   F     0.29257   0.88210   0.69187   0.00000  Uiso   1.00
H763   H     0.39676   0.86626   0.93080   0.00000  Uiso   1.00
H764   H     0.25580   0.68011   0.90457   0.00000  Uiso   1.00
H765   H     0.10324   0.80041   0.73587   0.00000  Uiso   1.00
H766   H     0.38176   0.80256   0.73437   0.00000  Uiso   1.00
H767   H     0.11824   0.86411   0.93229   0.00000  Uiso   1.00
H768   H     0.44776   0.78316   0.67907   0.00000  Uiso   1.00
H769   H     0.05224   0.88351   0.98759   0.00000  Uiso   1.00
H770   H     0.02915   0.78189   0.67981   0.00000  Uiso   1.00
H771   H     0.47085   0.88477   0.98686   0.00000  Uiso   1.00
H772   H     0.24420   0.98656   0.76210   0.00000  Uiso   1.00
N773   N     0.23744   0.81881   0.67951   0.00000  Uiso   1.00
N774   N     0.26255   0.84786   0.98716   0.00000  Uiso   1.00
O775   O     0.25325   0.76204   0.87326   0.00000  Uiso   1.00
O776   O     0.24674   0.90462   0.79341   0.00000  Uiso   1.00
O777   O     0.24480   0.75226   0.76945   0.00000  Uiso   1.00
O778   O     0.25520   0.91441   0.89721   0.00000  Uiso   1.00
O779   O     0.18935   0.83821   0.88524   0.00000  Uiso   1.00
O780   O     0.31064   0.82845   0.78143   0.00000  Uiso   1.00
O781   O     0.18090   0.82843   0.78143   0.00000  Uiso   1.00
O782   O     0.31910   0.83824   0.88523   0.00000  Uiso   1.00
C783   C     0.74863   0.73323   0.81771   0.00000  Uiso   1.00
C784   C     0.58858   0.81452   0.77863   0.00000  Uiso   1.00
C785   C     0.88404   0.83428   0.83252   0.00000  Uiso   1.00
C786   C     0.61596   0.83238   0.83414   0.00000  Uiso   1.00
C787   C     0.90299   0.81651   0.77720   0.00000  Uiso   1.00
C788   C     0.59701   0.85016   0.88947   0.00000  Uiso   1.00
C789   C     0.94926   0.81574   0.77717   0.00000  Uiso   1.00
C790   C     0.55074   0.85093   0.88950   0.00000  Uiso   1.00
C791   C     0.97673   0.83365   0.83313   0.00000  Uiso   1.00
C792   C     0.52327   0.83302   0.83354   0.00000  Uiso   1.00
C793   C     0.95769   0.85216   0.88870   0.00000  Uiso   1.00
C794   C     0.75137   0.93343   0.84896   0.00000  Uiso   1.00
C795   C     0.54231   0.81451   0.77797   0.00000  Uiso   1.00
C796   C     0.96850   0.79709   0.72227   0.00000  Uiso   1.00
C797   C     0.53149   0.86958   0.94439   0.00000  Uiso   1.00
C798   C     0.51482   0.79641   0.72269   0.00000  Uiso   1.00
C799   C     0.98518   0.87026   0.94397   0.00000  Uiso   1.00
C800   C     0.74799   0.67721   0.80898   0.00000  Uiso   1.00
C801   C     0.75201   0.98945   0.85769   0.00000  Uiso   1.00
C802   C     0.66437   0.83294   0.83372   0.00000  Uiso   1.00
C803   C     0.83563   0.83373   0.83294   0.00000  Uiso   1.00
C804   C     0.91142   0.85214   0.88803   0.00000  Uiso   1.00
Cu805  Cu    0.75500   0.83913   0.89479   0.00000  Uiso   1.00
Cu806  Cu    0.74499   0.82754   0.77187   0.00000  Uiso   1.00
F807   F     0.70743   0.78457   0.97480   0.00000  Uiso   1.00
F808   F     0.79257   0.88210   0.69187   0.00000  Uiso   1.00
H809   H     0.89676   0.86626   0.93080   0.00000  Uiso   1.00
H810   H     0.75580   0.68011   0.90457   0.00000  Uiso   1.00
H811   H     0.60324   0.80041   0.73587   0.00000  Uiso   1.00
H812   H     0.88176   0.80256   0.73437   0.00000  Uiso   1.00
H813   H     0.61824   0.86411   0.93229   0.00000  Uiso   1.00
H814   H     0.94776   0.78316   0.67907   0.00000  Uiso   1.00
H815   H     0.55224   0.88351   0.98759   0.00000  Uiso   1.00
H816   H     0.52915   0.78189   0.67981   0.00000  Uiso   1.00
H817   H     0.97085   0.88477   0.98686   0.00000  Uiso   1.00
H818   H     0.74420   0.98656   0.76210   0.00000  Uiso   1.00
N819   N     0.73744   0.81881   0.67951   0.00000  Uiso   1.00
N820   N     0.76255   0.84786   0.98716   0.00000  Uiso   1.00
O821   O     0.75325   0.76204   0.87326   0.00000  Uiso   1.00
O822   O     0.74674   0.90462   0.79341   0.00000  Uiso   1.00
O823   O     0.74480   0.75226   0.76945   0.00000  Uiso   1.00
O824   O     0.75520   0.91441   0.89721   0.00000  Uiso   1.00
O825   O     0.68935   0.83821   0.88524   0.00000  Uiso   1.00
O826   O     0.81064   0.82845   0.78143   0.00000  Uiso   1.00
O827   O     0.68090   0.82843   0.78143   0.00000  Uiso   1.00
O828   O     0.81910   0.83824   0.88523   0.00000  Uiso   1.00
loop_
_geom_bond_atom_site_label_1
_geom_bond_atom_site_label_2
_geom_bond_distance
_geom_bond_site_symmetry_2
_ccdc_geom_bond_type
C1     C18     1.427   .     S
C1     O41     1.287   .     A
C1     O39     1.292   .     A
C2     C4      1.403   .     A
C2     H29     1.085   .     S
C2     C13     1.391   .     A
C3     C21     1.456   .     S
C3     C22     1.403   .     A
C3     C5      1.401   .     A
C4     C6      1.401   .     A
C4     C20     1.456   .     S
C5     H30     1.085   .     S
C5     C7      1.393   .     A
C6     H31     1.085   .     S
C6     C8      1.393   .     A
C7     C9      1.412   .     A
C7     C14     1.401   .     A
C8     C10     1.412   .     A
C8     C15     1.401   .     A
C9     C11     1.410   .     A
C9     C56     1.400   .     S
C10    C13     1.410   .     A
C10    C55     1.400   1_455 S
C11    C22     1.390   .     A
C11    C17     1.402   .     A
C12    O40     1.292   .     A
C12    C19     1.427   .     S
C12    O42     1.287   .     A
C13    C16     1.402   .     A
C14    H32     1.084   .     S
C14    C62     1.393   .     S
C15    H33     1.084   .     S
C15    C63     1.393   1_455 S
C16    H34     1.084   .     S
C16    C60     1.393   1_455 S
C17    H35     1.084   .     S
C17    C61     1.393   .     S
C18    C203    1.328   1_545 S
C18    H220    1.088   1_545 S
C19    C110    1.328   .     S
C19    H120    1.088   .     S
C20    O45     1.295   .     A
C20    O43     1.299   .     A
C21    O44     1.299   .     A
C21    O46     1.295   .     A
C22    H27     1.085   .     S
Cu23   Cu24    2.692   .     S
Cu23   O46     1.958   .     S
Cu23   O42     1.949   .     S
Cu23   O39     1.953   .     S
Cu23   N38     2.023   .     S
Cu23   O43     1.966   .     S
Cu24   O41     1.949   .     S
Cu24   O45     1.958   .     S
Cu24   O40     1.953   .     S
Cu24   N37     2.023   .     S
Cu24   O44     1.966   .     S
F25    N313    1.335   .     S
F26    N590    1.335   1_554 S
H28    C203    1.088   1_545 S
H36    C110    1.088   .     S
N37    F577    1.335   1_554 S
N37    N590    1.299   1_554 S
N38    N313    1.299   .     S
N38    F302    1.335   .     S
C47    C64     1.427   .     S
C47    O87     1.287   .     A
C47    O85     1.292   .     A
C48    C50     1.403   .     A
C48    H75     1.085   .     S
C48    C59     1.391   .     A
C49    C67     1.456   .     S
C49    C68     1.403   .     A
C49    C51     1.401   .     A
C50    C52     1.401   .     A
C50    C66     1.456   .     S
C51    H76     1.085   .     S
C51    C53     1.393   .     A
C52    H77     1.085   .     S
C52    C54     1.393   .     A
C53    C55     1.412   .     A
C53    C60     1.401   .     A
C54    C56     1.412   .     A
C54    C61     1.401   .     A
C55    C57     1.410   .     A
C55    C10     1.400   1_655 S
C56    C59     1.410   .     A
C57    C68     1.390   .     A
C57    C63     1.402   .     A
C58    O86     1.292   .     A
C58    C65     1.427   .     S
C58    O88     1.287   .     A
C59    C62     1.402   .     A
C60    H78     1.084   .     S
C60    C16     1.393   1_655 S
C61    H79     1.084   .     S
C62    H80     1.084   .     S
C63    H81     1.084   .     S
C63    C15     1.393   1_655 S
C64    C249    1.328   1_545 S
C64    H266    1.088   1_545 S
C65    C156    1.328   .     S
C65    H166    1.088   .     S
C66    O91     1.295   .     A
C66    O89     1.299   .     A
C67    O90     1.299   .     A
C67    O92     1.295   .     A
C68    H73     1.085   .     S
Cu69   Cu70    2.692   .     S
Cu69   O92     1.958   .     S
Cu69   O88     1.949   .     S
Cu69   O85     1.953   .     S
Cu69   N84     2.023   .     S
Cu69   O89     1.966   .     S
Cu70   O87     1.949   .     S
Cu70   O91     1.958   .     S
Cu70   O86     1.953   .     S
Cu70   N83     2.023   .     S
Cu70   O90     1.966   .     S
F71    N359    1.335   .     S
F72    N636    1.335   1_554 S
H74    C249    1.088   1_545 S
H82    C156    1.088   .     S
N83    F623    1.335   1_554 S
N83    N636    1.299   1_554 S
N84    N359    1.299   .     S
N84    F348    1.335   .     S
C93    C110    1.427   .     S
C93    O133    1.287   .     A
C93    O131    1.292   .     A
C94    C96     1.403   .     A
C94    H121    1.085   .     S
C94    C105    1.391   .     A
C95    C113    1.456   .     S
C95    C114    1.403   .     A
C95    C97     1.401   .     A
C96    C98     1.401   .     A
C96    C112    1.456   .     S
C97    H122    1.085   .     S
C97    C99     1.393   .     A
C98    H123    1.085   .     S
C98    C100    1.393   .     A
C99    C101    1.412   .     A
C99    C106    1.401   .     A
C100   C102    1.412   .     A
C100   C107    1.401   .     A
C101   C103    1.410   .     A
C101   C148    1.400   .     S
C102   C105    1.410   .     A
C102   C147    1.400   1_455 S
C103   C114    1.390   .     A
C103   C109    1.402   .     A
C104   O132    1.292   .     A
C104   C111    1.427   .     S
C104   O134    1.287   .     A
C105   C108    1.402   .     A
C106   H124    1.084   .     S
C106   C154    1.393   .     S
C107   H125    1.084   .     S
C107   C155    1.393   1_455 S
C108   H126    1.084   .     S
C108   C152    1.393   1_455 S
C109   H127    1.084   .     S
C109   C153    1.393   .     S
C111   C202    1.328   .     S
C111   H212    1.088   .     S
C112   O137    1.295   .     A
C112   O135    1.299   .     A
C113   O136    1.299   .     A
C113   O138    1.295   .     A
C114   H119    1.085   .     S
Cu115  Cu116   2.692   .     S
Cu115  O138    1.958   .     S
Cu115  O134    1.949   .     S
Cu115  O131    1.953   .     S
Cu115  N130    2.023   .     S
Cu115  O135    1.966   .     S
Cu116  O133    1.949   .     S
Cu116  O137    1.958   .     S
Cu116  O132    1.953   .     S
Cu116  N129    2.023   .     S
Cu116  O136    1.966   .     S
F117   N405    1.335   .     S
F118   N682    1.335   1_554 S
H128   C202    1.088   .     S
N129   F669    1.335   1_554 S
N129   N682    1.299   1_554 S
N130   N405    1.299   .     S
N130   F394    1.335   .     S
C139   C156    1.427   .     S
C139   O179    1.287   .     A
C139   O177    1.292   .     A
C140   C142    1.403   .     A
C140   H167    1.085   .     S
C140   C151    1.391   .     A
C141   C159    1.456   .     S
C141   C160    1.403   .     A
C141   C143    1.401   .     A
C142   C144    1.401   .     A
C142   C158    1.456   .     S
C143   H168    1.085   .     S
C143   C145    1.393   .     A
C144   H169    1.085   .     S
C144   C146    1.393   .     A
C145   C147    1.412   .     A
C145   C152    1.401   .     A
C146   C148    1.412   .     A
C146   C153    1.401   .     A
C147   C149    1.410   .     A
C147   C102    1.400   1_655 S
C148   C151    1.410   .     A
C149   C160    1.390   .     A
C149   C155    1.402   .     A
C150   O178    1.292   .     A
C150   C157    1.427   .     S
C150   O180    1.287   .     A
C151   C154    1.402   .     A
C152   H170    1.084   .     S
C152   C108    1.393   1_655 S
C153   H171    1.084   .     S
C154   H172    1.084   .     S
C155   H173    1.084   .     S
C155   C107    1.393   1_655 S
C157   C248    1.328   .     S
C157   H258    1.088   .     S
C158   O183    1.295   .     A
C158   O181    1.299   .     A
C159   O182    1.299   .     A
C159   O184    1.295   .     A
C160   H165    1.085   .     S
Cu161  Cu162   2.692   .     S
Cu161  O184    1.958   .     S
Cu161  O180    1.949   .     S
Cu161  O177    1.953   .     S
Cu161  N176    2.023   .     S
Cu161  O181    1.966   .     S
Cu162  O179    1.949   .     S
Cu162  O183    1.958   .     S
Cu162  O178    1.953   .     S
Cu162  N175    2.023   .     S
Cu162  O182    1.966   .     S
F163   N451    1.335   .     S
F164   N728    1.335   1_554 S
H174   C248    1.088   .     S
N175   F715    1.335   1_554 S
N175   N728    1.299   1_554 S
N176   N451    1.299   .     S
N176   F440    1.335   .     S
C185   C202    1.427   .     S
C185   O225    1.287   .     A
C185   O223    1.292   .     A
C186   C188    1.403   .     A
C186   H213    1.085   .     S
C186   C197    1.391   .     A
C187   C205    1.456   .     S
C187   C206    1.403   .     A
C187   C189    1.401   .     A
C188   C190    1.401   .     A
C188   C204    1.456   .     S
C189   H214    1.085   .     S
C189   C191    1.393   .     A
C190   H215    1.085   .     S
C190   C192    1.393   .     A
C191   C193    1.412   .     A
C191   C198    1.401   .     A
C192   C194    1.412   .     A
C192   C199    1.401   .     A
C193   C195    1.410   .     A
C193   C240    1.400   .     S
C194   C197    1.410   .     A
C194   C239    1.400   1_455 S
C195   C206    1.390   .     A
C195   C201    1.402   .     A
C196   O224    1.292   .     A
C196   C203    1.427   .     S
C196   O226    1.287   .     A
C197   C200    1.402   .     A
C198   H216    1.084   .     S
C198   C246    1.393   .     S
C199   H217    1.084   .     S
C199   C247    1.393   1_455 S
C200   H218    1.084   .     S
C200   C244    1.393   1_455 S
C201   H219    1.084   .     S
C201   C245    1.393   .     S
C203   C18     1.328   1_565 S
C203   H28     1.088   1_565 S
C204   O229    1.295   .     A
C204   O227    1.299   .     A
C205   O228    1.299   .     A
C205   O230    1.295   .     A
C206   H211    1.085   .     S
Cu207  Cu208   2.692   .     S
Cu207  O230    1.958   .     S
Cu207  O226    1.949   .     S
Cu207  O223    1.953   .     S
Cu207  N222    2.023   .     S
Cu207  O227    1.966   .     S
Cu208  O225    1.949   .     S
Cu208  O229    1.958   .     S
Cu208  O224    1.953   .     S
Cu208  N221    2.023   .     S
Cu208  O228    1.966   .     S
F209   N497    1.335   .     S
F210   N774    1.335   1_554 S
H220   C18     1.088   1_565 S
N221   F761    1.335   1_554 S
N221   N774    1.299   1_554 S
N222   N497    1.299   .     S
N222   F486    1.335   .     S
C231   C248    1.427   .     S
C231   O271    1.287   .     A
C231   O269    1.292   .     A
C232   C234    1.403   .     A
C232   H259    1.085   .     S
C232   C243    1.391   .     A
C233   C251    1.456   .     S
C233   C252    1.403   .     A
C233   C235    1.401   .     A
C234   C236    1.401   .     A
C234   C250    1.456   .     S
C235   H260    1.085   .     S
C235   C237    1.393   .     A
C236   H261    1.085   .     S
C236   C238    1.393   .     A
C237   C239    1.412   .     A
C237   C244    1.401   .     A
C238   C240    1.412   .     A
C238   C245    1.401   .     A
C239   C241    1.410   .     A
C239   C194    1.400   1_655 S
C240   C243    1.410   .     A
C241   C252    1.390   .     A
C241   C247    1.402   .     A
C242   O270    1.292   .     A
C242   C249    1.427   .     S
C242   O272    1.287   .     A
C243   C246    1.402   .     A
C244   H262    1.084   .     S
C244   C200    1.393   1_655 S
C245   H263    1.084   .     S
C246   H264    1.084   .     S
C247   H265    1.084   .     S
C247   C199    1.393   1_655 S
C249   C64     1.328   1_565 S
C249   H74     1.088   1_565 S
C250   O275    1.295   .     A
C250   O273    1.299   .     A
C251   O274    1.299   .     A
C251   O276    1.295   .     A
C252   H257    1.085   .     S
Cu253  Cu254   2.692   .     S
Cu253  O276    1.958   .     S
Cu253  O272    1.949   .     S
Cu253  O269    1.953   .     S
Cu253  N268    2.023   .     S
Cu253  O273    1.966   .     S
Cu254  O271    1.949   .     S
Cu254  O275    1.958   .     S
Cu254  O270    1.953   .     S
Cu254  N267    2.023   .     S
Cu254  O274    1.966   .     S
F255   N543    1.335   .     S
F256   N820    1.335   1_554 S
H266   C64     1.088   1_565 S
N267   F807    1.335   1_554 S
N267   N820    1.299   1_554 S
N268   N543    1.299   .     S
N268   F532    1.335   .     S
C277   C294    1.427   .     S
C277   O317    1.287   .     A
C277   O315    1.292   .     A
C278   C280    1.403   .     A
C278   H305    1.085   .     S
C278   C289    1.391   .     A
C279   C297    1.456   .     S
C279   C298    1.403   .     A
C279   C281    1.401   .     A
C280   C282    1.401   .     A
C280   C296    1.456   .     S
C281   H306    1.085   .     S
C281   C283    1.393   .     A
C282   H307    1.085   .     S
C282   C284    1.393   .     A
C283   C285    1.412   .     A
C283   C290    1.401   .     A
C284   C286    1.412   .     A
C284   C291    1.401   .     A
C285   C287    1.410   .     A
C285   C332    1.400   .     S
C286   C289    1.410   .     A
C286   C331    1.400   1_455 S
C287   C298    1.390   .     A
C287   C293    1.402   .     A
C288   O316    1.292   .     A
C288   C295    1.427   .     S
C288   O318    1.287   .     A
C289   C292    1.402   .     A
C290   H308    1.084   .     S
C290   C338    1.393   .     S
C291   H309    1.084   .     S
C291   C339    1.393   1_455 S
C292   H310    1.084   .     S
C292   C336    1.393   1_455 S
C293   H311    1.084   .     S
C293   C337    1.393   .     S
C294   C479    1.328   1_545 S
C294   H496    1.088   1_545 S
C295   C386    1.328   .     S
C295   H396    1.088   .     S
C296   O321    1.295   .     A
C296   O319    1.299   .     A
C297   O320    1.299   .     A
C297   O322    1.295   .     A
C298   H303    1.085   .     S
Cu299  Cu300   2.692   .     S
Cu299  O322    1.958   .     S
Cu299  O318    1.949   .     S
Cu299  O315    1.953   .     S
Cu299  N314    2.023   .     S
Cu299  O319    1.966   .     S
Cu300  O317    1.949   .     S
Cu300  O321    1.958   .     S
Cu300  O316    1.953   .     S
Cu300  N313    2.023   .     S
Cu300  O320    1.966   .     S
F301   N589    1.335   .     S
H304   C479    1.088   1_545 S
H312   C386    1.088   .     S
N314   N589    1.299   .     S
N314   F578    1.335   .     S
C323   C340    1.427   .     S
C323   O363    1.287   .     A
C323   O361    1.292   .     A
C324   C326    1.403   .     A
C324   H351    1.085   .     S
C324   C335    1.391   .     A
C325   C343    1.456   .     S
C325   C344    1.403   .     A
C325   C327    1.401   .     A
C326   C328    1.401   .     A
C326   C342    1.456   .     S
C327   H352    1.085   .     S
C327   C329    1.393   .     A
C328   H353    1.085   .     S
C328   C330    1.393   .     A
C329   C331    1.412   .     A
C329   C336    1.401   .     A
C330   C332    1.412   .     A
C330   C337    1.401   .     A
C331   C333    1.410   .     A
C331   C286    1.400   1_655 S
C332   C335    1.410   .     A
C333   C344    1.390   .     A
C333   C339    1.402   .     A
C334   O362    1.292   .     A
C334   C341    1.427   .     S
C334   O364    1.287   .     A
C335   C338    1.402   .     A
C336   H354    1.084   .     S
C336   C292    1.393   1_655 S
C337   H355    1.084   .     S
C338   H356    1.084   .     S
C339   H357    1.084   .     S
C339   C291    1.393   1_655 S
C340   C525    1.328   1_545 S
C340   H542    1.088   1_545 S
C341   C432    1.328   .     S
C341   H442    1.088   .     S
C342   O367    1.295   .     A
C342   O365    1.299   .     A
C343   O366    1.299   .     A
C343   O368    1.295   .     A
C344   H349    1.085   .     S
Cu345  Cu346   2.692   .     S
Cu345  O368    1.958   .     S
Cu345  O364    1.949   .     S
Cu345  O361    1.953   .     S
Cu345  N360    2.023   .     S
Cu345  O365    1.966   .     S
Cu346  O363    1.949   .     S
Cu346  O367    1.958   .     S
Cu346  O362    1.953   .     S
Cu346  N359    2.023   .     S
Cu346  O366    1.966   .     S
F347   N635    1.335   .     S
H350   C525    1.088   1_545 S
H358   C432    1.088   .     S
N360   N635    1.299   .     S
N360   F624    1.335   .     S
C369   C386    1.427   .     S
C369   O409    1.287   .     A
C369   O407    1.292   .     A
C370   C372    1.403   .     A
C370   H397    1.085   .     S
C370   C381    1.391   .     A
C371   C389    1.456   .     S
C371   C390    1.403   .     A
C371   C373    1.401   .     A
C372   C374    1.401   .     A
C372   C388    1.456   .     S
C373   H398    1.085   .     S
C373   C375    1.393   .     A
C374   H399    1.085   .     S
C374   C376    1.393   .     A
C375   C377    1.412   .     A
C375   C382    1.401   .     A
C376   C378    1.412   .     A
C376   C383    1.401   .     A
C377   C379    1.410   .     A
C377   C424    1.400   .     S
C378   C381    1.410   .     A
C378   C423    1.400   1_455 S
C379   C390    1.390   .     A
C379   C385    1.402   .     A
C380   O408    1.292   .     A
C380   C387    1.427   .     S
C380   O410    1.287   .     A
C381   C384    1.402   .     A
C382   H400    1.084   .     S
C382   C430    1.393   .     S
C383   H401    1.084   .     S
C383   C431    1.393   1_455 S
C384   H402    1.084   .     S
C384   C428    1.393   1_455 S
C385   H403    1.084   .     S
C385   C429    1.393   .     S
C387   C478    1.328   .     S
C387   H488    1.088   .     S
C388   O413    1.295   .     A
C388   O411    1.299   .     A
C389   O412    1.299   .     A
C389   O414    1.295   .     A
C390   H395    1.085   .     S
Cu391  Cu392   2.692   .     S
Cu391  O414    1.958   .     S
Cu391  O410    1.949   .     S
Cu391  O407    1.953   .     S
Cu391  N406    2.023   .     S
Cu391  O411    1.966   .     S
Cu392  O409    1.949   .     S
Cu392  O413    1.958   .     S
Cu392  O408    1.953   .     S
Cu392  N405    2.023   .     S
Cu392  O412    1.966   .     S
F393   N681    1.335   .     S
H404   C478    1.088   .     S
N406   N681    1.299   .     S
N406   F670    1.335   .     S
C415   C432    1.427   .     S
C415   O455    1.287   .     A
C415   O453    1.292   .     A
C416   C418    1.403   .     A
C416   H443    1.085   .     S
C416   C427    1.391   .     A
C417   C435    1.456   .     S
C417   C436    1.403   .     A
C417   C419    1.401   .     A
C418   C420    1.401   .     A
C418   C434    1.456   .     S
C419   H444    1.085   .     S
C419   C421    1.393   .     A
C420   H445    1.085   .     S
C420   C422    1.393   .     A
C421   C423    1.412   .     A
C421   C428    1.401   .     A
C422   C424    1.412   .     A
C422   C429    1.401   .     A
C423   C425    1.410   .     A
C423   C378    1.400   1_655 S
C424   C427    1.410   .     A
C425   C436    1.390   .     A
C425   C431    1.402   .     A
C426   O454    1.292   .     A
C426   C433    1.427   .     S
C426   O456    1.287   .     A
C427   C430    1.402   .     A
C428   H446    1.084   .     S
C428   C384    1.393   1_655 S
C429   H447    1.084   .     S
C430   H448    1.084   .     S
C431   H449    1.084   .     S
C431   C383    1.393   1_655 S
C433   C524    1.328   .     S
C433   H534    1.088   .     S
C434   O459    1.295   .     A
C434   O457    1.299   .     A
C435   O458    1.299   .     A
C435   O460    1.295   .     A
C436   H441    1.085   .     S
Cu437  Cu438   2.692   .     S
Cu437  O460    1.958   .     S
Cu437  O456    1.949   .     S
Cu437  O453    1.953   .     S
Cu437  N452    2.023   .     S
Cu437  O457    1.966   .     S
Cu438  O455    1.949   .     S
Cu438  O459    1.958   .     S
Cu438  O454    1.953   .     S
Cu438  N451    2.023   .     S
Cu438  O458    1.966   .     S
F439   N727    1.335   .     S
H450   C524    1.088   .     S
N452   N727    1.299   .     S
N452   F716    1.335   .     S
C461   C478    1.427   .     S
C461   O501    1.287   .     A
C461   O499    1.292   .     A
C462   C464    1.403   .     A
C462   H489    1.085   .     S
C462   C473    1.391   .     A
C463   C481    1.456   .     S
C463   C482    1.403   .     A
C463   C465    1.401   .     A
C464   C466    1.401   .     A
C464   C480    1.456   .     S
C465   H490    1.085   .     S
C465   C467    1.393   .     A
C466   H491    1.085   .     S
C466   C468    1.393   .     A
C467   C469    1.412   .     A
C467   C474    1.401   .     A
C468   C470    1.412   .     A
C468   C475    1.401   .     A
C469   C471    1.410   .     A
C469   C516    1.400   .     S
C470   C473    1.410   .     A
C470   C515    1.400   1_455 S
C471   C482    1.390   .     A
C471   C477    1.402   .     A
C472   O500    1.292   .     A
C472   C479    1.427   .     S
C472   O502    1.287   .     A
C473   C476    1.402   .     A
C474   H492    1.084   .     S
C474   C522    1.393   .     S
C475   H493    1.084   .     S
C475   C523    1.393   1_455 S
C476   H494    1.084   .     S
C476   C520    1.393   1_455 S
C477   H495    1.084   .     S
C477   C521    1.393   .     S
C479   C294    1.328   1_565 S
C479   H304    1.088   1_565 S
C480   O505    1.295   .     A
C480   O503    1.299   .     A
C481   O504    1.299   .     A
C481   O506    1.295   .     A
C482   H487    1.085   .     S
Cu483  Cu484   2.692   .     S
Cu483  O506    1.958   .     S
Cu483  O502    1.949   .     S
Cu483  O499    1.953   .     S
Cu483  N498    2.023   .     S
Cu483  O503    1.966   .     S
Cu484  O501    1.949   .     S
Cu484  O505    1.958   .     S
Cu484  O500    1.953   .     S
Cu484  N497    2.023   .     S
Cu484  O504    1.966   .     S
F485   N773    1.335   .     S
H496   C294    1.088   1_565 S
N498   N773    1.299   .     S
N498   F762    1.335   .     S
C507   C524    1.427   .     S
C507   O547    1.287   .     A
C507   O545    1.292   .     A
C508   C510    1.403   .     A
C508   H535    1.085   .     S
C508   C519    1.391   .     A
C509   C527    1.456   .     S
C509   C528    1.403   .     A
C509   C511    1.401   .     A
C510   C512    1.401   .     A
C510   C526    1.456   .     S
C511   H536    1.085   .     S
C511   C513    1.393   .     A
C512   H537    1.085   .     S
C512   C514    1.393   .     A
C513   C515    1.412   .     A
C513   C520    1.401   .     A
C514   C516    1.412   .     A
C514   C521    1.401   .     A
C515   C517    1.410   .     A
C515   C470    1.400   1_655 S
C516   C519    1.410   .     A
C517   C528    1.390   .     A
C517   C523    1.402   .     A
C518   O546    1.292   .     A
C518   C525    1.427   .     S
C518   O548    1.287   .     A
C519   C522    1.402   .     A
C520   H538    1.084   .     S
C520   C476    1.393   1_655 S
C521   H539    1.084   .     S
C522   H540    1.084   .     S
C523   H541    1.084   .     S
C523   C475    1.393   1_655 S
C525   C340    1.328   1_565 S
C525   H350    1.088   1_565 S
C526   O551    1.295   .     A
C526   O549    1.299   .     A
C527   O550    1.299   .     A
C527   O552    1.295   .     A
C528   H533    1.085   .     S
Cu529  Cu530   2.692   .     S
Cu529  O552    1.958   .     S
Cu529  O548    1.949   .     S
Cu529  O545    1.953   .     S
Cu529  N544    2.023   .     S
Cu529  O549    1.966   .     S
Cu530  O547    1.949   .     S
Cu530  O551    1.958   .     S
Cu530  O546    1.953   .     S
Cu530  N543    2.023   .     S
Cu530  O550    1.966   .     S
F531   N819    1.335   .     S
H542   C340    1.088   1_565 S
N544   N819    1.299   .     S
N544   F808    1.335   .     S
C553   C570    1.427   .     S
C553   O593    1.287   .     A
C553   O591    1.292   .     A
C554   C556    1.403   .     A
C554   H581    1.085   .     S
C554   C565    1.391   .     A
C555   C573    1.456   .     S
C555   C574    1.403   .     A
C555   C557    1.401   .     A
C556   C558    1.401   .     A
C556   C572    1.456   .     S
C557   H582    1.085   .     S
C557   C559    1.393   .     A
C558   H583    1.085   .     S
C558   C560    1.393   .     A
C559   C561    1.412   .     A
C559   C566    1.401   .     A
C560   C562    1.412   .     A
C560   C567    1.401   .     A
C561   C563    1.410   .     A
C561   C608    1.400   .     S
C562   C565    1.410   .     A
C562   C607    1.400   1_455 S
C563   C574    1.390   .     A
C563   C569    1.402   .     A
C564   O592    1.292   .     A
C564   C571    1.427   .     S
C564   O594    1.287   .     A
C565   C568    1.402   .     A
C566   H584    1.084   .     S
C566   C614    1.393   .     S
C567   H585    1.084   .     S
C567   C615    1.393   1_455 S
C568   H586    1.084   .     S
C568   C612    1.393   1_455 S
C569   H587    1.084   .     S
C569   C613    1.393   .     S
C570   C755    1.328   1_545 S
C570   H772    1.088   1_545 S
C571   C662    1.328   .     S
C571   H672    1.088   .     S
C572   O597    1.295   .     A
C572   O595    1.299   .     A
C573   O596    1.299   .     A
C573   O598    1.295   .     A
C574   H579    1.085   .     S
Cu575  Cu576   2.692   .     S
Cu575  O598    1.958   .     S
Cu575  O594    1.949   .     S
Cu575  O591    1.953   .     S
Cu575  N590    2.023   .     S
Cu575  O595    1.966   .     S
Cu576  O593    1.949   .     S
Cu576  O597    1.958   .     S
Cu576  O592    1.953   .     S
Cu576  N589    2.023   .     S
Cu576  O596    1.966   .     S
F577   N37     1.335   1_556 S
H580   C755    1.088   1_545 S
H588   C662    1.088   .     S
N590   N37     1.299   1_556 S
N590   F26     1.335   1_556 S
C599   C616    1.427   .     S
C599   O639    1.287   .     A
C599   O637    1.292   .     A
C600   C602    1.403   .     A
C600   H627    1.085   .     S
C600   C611    1.391   .     A
C601   C619    1.456   .     S
C601   C620    1.403   .     A
C601   C603    1.401   .     A
C602   C604    1.401   .     A
C602   C618    1.456   .     S
C603   H628    1.085   .     S
C603   C605    1.393   .     A
C604   H629    1.085   .     S
C604   C606    1.393   .     A
C605   C607    1.412   .     A
C605   C612    1.401   .     A
C606   C608    1.412   .     A
C606   C613    1.401   .     A
C607   C609    1.410   .     A
C607   C562    1.400   1_655 S
C608   C611    1.410   .     A
C609   C620    1.390   .     A
C609   C615    1.402   .     A
C610   O638    1.292   .     A
C610   C617    1.427   .     S
C610   O640    1.287   .     A
C611   C614    1.402   .     A
C612   H630    1.084   .     S
C612   C568    1.393   1_655 S
C613   H631    1.084   .     S
C614   H632    1.084   .     S
C615   H633    1.084   .     S
C615   C567    1.393   1_655 S
C616   C801    1.328   1_545 S
C616   H818    1.088   1_545 S
C617   C708    1.328   .     S
C617   H718    1.088   .     S
C618   O643    1.295   .     A
C618   O641    1.299   .     A
C619   O642    1.299   .     A
C619   O644    1.295   .     A
C620   H625    1.085   .     S
Cu621  Cu622   2.692   .     S
Cu621  O644    1.958   .     S
Cu621  O640    1.949   .     S
Cu621  O637    1.953   .     S
Cu621  N636    2.023   .     S
Cu621  O641    1.966   .     S
Cu622  O639    1.949   .     S
Cu622  O643    1.958   .     S
Cu622  O638    1.953   .     S
Cu622  N635    2.023   .     S
Cu622  O642    1.966   .     S
F623   N83     1.335   1_556 S
H626   C801    1.088   1_545 S
H634   C708    1.088   .     S
N636   N83     1.299   1_556 S
N636   F72     1.335   1_556 S
C645   C662    1.427   .     S
C645   O685    1.287   .     A
C645   O683    1.292   .     A
C646   C648    1.403   .     A
C646   H673    1.085   .     S
C646   C657    1.391   .     A
C647   C665    1.456   .     S
C647   C666    1.403   .     A
C647   C649    1.401   .     A
C648   C650    1.401   .     A
C648   C664    1.456   .     S
C649   H674    1.085   .     S
C649   C651    1.393   .     A
C650   H675    1.085   .     S
C650   C652    1.393   .     A
C651   C653    1.412   .     A
C651   C658    1.401   .     A
C652   C654    1.412   .     A
C652   C659    1.401   .     A
C653   C655    1.410   .     A
C653   C700    1.400   .     S
C654   C657    1.410   .     A
C654   C699    1.400   1_455 S
C655   C666    1.390   .     A
C655   C661    1.402   .     A
C656   O684    1.292   .     A
C656   C663    1.427   .     S
C656   O686    1.287   .     A
C657   C660    1.402   .     A
C658   H676    1.084   .     S
C658   C706    1.393   .     S
C659   H677    1.084   .     S
C659   C707    1.393   1_455 S
C660   H678    1.084   .     S
C660   C704    1.393   1_455 S
C661   H679    1.084   .     S
C661   C705    1.393   .     S
C663   C754    1.328   .     S
C663   H764    1.088   .     S
C664   O689    1.295   .     A
C664   O687    1.299   .     A
C665   O688    1.299   .     A
C665   O690    1.295   .     A
C666   H671    1.085   .     S
Cu667  Cu668   2.692   .     S
Cu667  O690    1.958   .     S
Cu667  O686    1.949   .     S
Cu667  O683    1.953   .     S
Cu667  N682    2.023   .     S
Cu667  O687    1.966   .     S
Cu668  O685    1.949   .     S
Cu668  O689    1.958   .     S
Cu668  O684    1.953   .     S
Cu668  N681    2.023   .     S
Cu668  O688    1.966   .     S
F669   N129    1.335   1_556 S
H680   C754    1.088   .     S
N682   N129    1.299   1_556 S
N682   F118    1.335   1_556 S
C691   C708    1.427   .     S
C691   O731    1.287   .     A
C691   O729    1.292   .     A
C692   C694    1.403   .     A
C692   H719    1.085   .     S
C692   C703    1.391   .     A
C693   C711    1.456   .     S
C693   C712    1.403   .     A
C693   C695    1.401   .     A
C694   C696    1.401   .     A
C694   C710    1.456   .     S
C695   H720    1.085   .     S
C695   C697    1.393   .     A
C696   H721    1.085   .     S
C696   C698    1.393   .     A
C697   C699    1.412   .     A
C697   C704    1.401   .     A
C698   C700    1.412   .     A
C698   C705    1.401   .     A
C699   C701    1.410   .     A
C699   C654    1.400   1_655 S
C700   C703    1.410   .     A
C701   C712    1.390   .     A
C701   C707    1.402   .     A
C702   O730    1.292   .     A
C702   C709    1.427   .     S
C702   O732    1.287   .     A
C703   C706    1.402   .     A
C704   H722    1.084   .     S
C704   C660    1.393   1_655 S
C705   H723    1.084   .     S
C706   H724    1.084   .     S
C707   H725    1.084   .     S
C707   C659    1.393   1_655 S
C709   C800    1.328   .     S
C709   H810    1.088   .     S
C710   O735    1.295   .     A
C710   O733    1.299   .     A
C711   O734    1.299   .     A
C711   O736    1.295   .     A
C712   H717    1.085   .     S
Cu713  Cu714   2.692   .     S
Cu713  O736    1.958   .     S
Cu713  O732    1.949   .     S
Cu713  O729    1.953   .     S
Cu713  N728    2.023   .     S
Cu713  O733    1.966   .     S
Cu714  O731    1.949   .     S
Cu714  O735    1.958   .     S
Cu714  O730    1.953   .     S
Cu714  N727    2.023   .     S
Cu714  O734    1.966   .     S
F715   N175    1.335   1_556 S
H726   C800    1.088   .     S
N728   N175    1.299   1_556 S
N728   F164    1.335   1_556 S
C737   C754    1.427   .     S
C737   O777    1.287   .     A
C737   O775    1.292   .     A
C738   C740    1.403   .     A
C738   H765    1.085   .     S
C738   C749    1.391   .     A
C739   C757    1.456   .     S
C739   C758    1.403   .     A
C739   C741    1.401   .     A
C740   C742    1.401   .     A
C740   C756    1.456   .     S
C741   H766    1.085   .     S
C741   C743    1.393   .     A
C742   H767    1.085   .     S
C742   C744    1.393   .     A
C743   C745    1.412   .     A
C743   C750    1.401   .     A
C744   C746    1.412   .     A
C744   C751    1.401   .     A
C745   C747    1.410   .     A
C745   C792    1.400   .     S
C746   C749    1.410   .     A
C746   C791    1.400   1_455 S
C747   C758    1.390   .     A
C747   C753    1.402   .     A
C748   O776    1.292   .     A
C748   C755    1.427   .     S
C748   O778    1.287   .     A
C749   C752    1.402   .     A
C750   H768    1.084   .     S
C750   C798    1.393   .     S
C751   H769    1.084   .     S
C751   C799    1.393   1_455 S
C752   H770    1.084   .     S
C752   C796    1.393   1_455 S
C753   H771    1.084   .     S
C753   C797    1.393   .     S
C755   C570    1.328   1_565 S
C755   H580    1.088   1_565 S
C756   O781    1.295   .     A
C756   O779    1.299   .     A
C757   O780    1.299   .     A
C757   O782    1.295   .     A
C758   H763    1.085   .     S
Cu759  Cu760   2.692   .     S
Cu759  O782    1.958   .     S
Cu759  O778    1.949   .     S
Cu759  O775    1.953   .     S
Cu759  N774    2.023   .     S
Cu759  O779    1.966   .     S
Cu760  O777    1.949   .     S
Cu760  O781    1.958   .     S
Cu760  O776    1.953   .     S
Cu760  N773    2.023   .     S
Cu760  O780    1.966   .     S
F761   N221    1.335   1_556 S
H772   C570    1.088   1_565 S
N774   N221    1.299   1_556 S
N774   F210    1.335   1_556 S
C783   C800    1.427   .     S
C783   O823    1.287   .     A
C783   O821    1.292   .     A
C784   C786    1.403   .     A
C784   H811    1.085   .     S
C784   C795    1.391   .     A
C785   C803    1.456   .     S
C785   C804    1.403   .     A
C785   C787    1.401   .     A
C786   C788    1.401   .     A
C786   C802    1.456   .     S
C787   H812    1.085   .     S
C787   C789    1.393   .     A
C788   H813    1.085   .     S
C788   C790    1.393   .     A
C789   C791    1.412   .     A
C789   C796    1.401   .     A
C790   C792    1.412   .     A
C790   C797    1.401   .     A
C791   C793    1.410   .     A
C791   C746    1.400   1_655 S
C792   C795    1.410   .     A
C793   C804    1.390   .     A
C793   C799    1.402   .     A
C794   O822    1.292   .     A
C794   C801    1.427   .     S
C794   O824    1.287   .     A
C795   C798    1.402   .     A
C796   H814    1.084   .     S
C796   C752    1.393   1_655 S
C797   H815    1.084   .     S
C798   H816    1.084   .     S
C799   H817    1.084   .     S
C799   C751    1.393   1_655 S
C801   C616    1.328   1_565 S
C801   H626    1.088   1_565 S
C802   O827    1.295   .     A
C802   O825    1.299   .     A
C803   O826    1.299   .     A
C803   O828    1.295   .     A
C804   H809    1.085   .     S
Cu805  Cu806   2.692   .     S
Cu805  O828    1.958   .     S
Cu805  O824    1.949   .     S
Cu805  O821    1.953   .     S
Cu805  N820    2.023   .     S
Cu805  O825    1.966   .     S
Cu806  O823    1.949   .     S
Cu806  O827    1.958   .     S
Cu806  O822    1.953   .     S
Cu806  N819    2.023   .     S
Cu806  O826    1.966   .     S
F807   N267    1.335   1_556 S
H818   C616    1.088   1_565 S
N820   N267    1.299   1_556 S
N820   F256    1.335   1_556 S
