data_str_m2_o1_o18_pcu_sym.27
_audit_creation_date              2020-01-03
_audit_creation_method            'Materials Studio'
_symmetry_space_group_name_H-M    'P1'
_symmetry_Int_Tables_number       1
_symmetry_cell_setting            triclinic
loop_
_symmetry_equiv_pos_as_xyz
  x,y,z
_cell_length_a                    28.5549
_cell_length_b                    32.4108
_cell_length_c                    30.9879
_cell_angle_alpha                 89.8602
_cell_angle_beta                  74.4979
_cell_angle_gamma                 90.2505
loop_
_atom_site_label
_atom_site_type_symbol
_atom_site_fract_x
_atom_site_fract_y
_atom_site_fract_z
_atom_site_U_iso_or_equiv
_atom_site_adp_type
_atom_site_occupancy
C1     C     0.00026   0.08745   0.24857   0.00000  Uiso   1.00
C2     C     0.02513   0.02263   0.27494   0.00000  Uiso   1.00
C3     C     0.33308   0.29050   0.25213   0.00000  Uiso   1.00
C4     C     0.00025   0.04283   0.24788   0.00000  Uiso   1.00
C5     C     0.18266   0.14295   0.27984   0.00000  Uiso   1.00
C6     C     0.15068   0.19038   0.22015   0.00000  Uiso   1.00
C7     C     0.13305   0.14297   0.27984   0.00000  Uiso   1.00
C8     C     0.20028   0.19036   0.22015   0.00000  Uiso   1.00
C9     C     0.30610   0.16658   0.33608   0.00000  Uiso   1.00
C10    C     0.02724   0.16723   0.16395   0.00000  Uiso   1.00
C11    C     0.29116   0.16593   0.38520   0.00000  Uiso   1.00
C12    C     0.33308   0.24588   0.25144   0.00000  Uiso   1.00
C13    C     0.04241   0.17153   0.11509   0.00000  Uiso   1.00
C14    C     0.30837   0.15384   0.45636   0.00000  Uiso   1.00
C15    C     0.02750   0.19449   0.04577   0.00000  Uiso   1.00
C16    C     0.32434   0.15710   0.40994   0.00000  Uiso   1.00
C17    C     0.01043   0.18607   0.09138   0.00000  Uiso   1.00
C18    C     0.24233   0.17282   0.40735   0.00000  Uiso   1.00
C19    C     0.09109   0.16457   0.09269   0.00000  Uiso   1.00
C20    C     0.22545   0.17083   0.45428   0.00000  Uiso   1.00
C21    C     0.10974   0.17442   0.04711   0.00000  Uiso   1.00
C22    C     0.25928   0.16021   0.47862   0.00000  Uiso   1.00
C23    C     0.19524   0.16046   0.04746   0.00000  Uiso   1.00
C24    C     0.07673   0.18880   0.02351   0.00000  Uiso   1.00
C25    C     0.17579   0.17774   0.47745   0.00000  Uiso   1.00
C26    C     0.16003   0.17047   0.02448   0.00000  Uiso   1.00
C27    C     0.28356   0.03987   0.18979   0.00000  Uiso   1.00
C28    C     0.22862   0.04176   0.20995   0.00000  Uiso   1.00
C29    C     0.04969   0.29344   0.31028   0.00000  Uiso   1.00
C30    C     0.10464   0.29152   0.29018   0.00000  Uiso   1.00
C31    C     0.14157   0.19227   0.45532   0.00000  Uiso   1.00
C32    C     0.24381   0.15565   0.02488   0.00000  Uiso   1.00
C33    C     0.09315   0.19784   0.47807   0.00000  Uiso   1.00
C34    C     0.30838   0.02017   0.22218   0.00000  Uiso   1.00
C35    C     0.02494   0.31315   0.27784   0.00000  Uiso   1.00
C36    C     0.30820   0.31069   0.22507   0.00000  Uiso   1.00
Cu37   Cu    0.04689   0.16667   0.25000   0.00000  Uiso   1.00
Cu38   Cu    0.28645   0.16666   0.25000   0.00000  Uiso   1.00
H39    H     0.26939   0.14775   0.04385   0.00000  Uiso   1.00
H40    H     0.15110   0.20091   0.42049   0.00000  Uiso   1.00
H41    H     0.28958   0.29289   0.20502   0.00000  Uiso   1.00
H42    H     0.04376   0.04044   0.29499   0.00000  Uiso   1.00
H43    H     0.19429   0.12385   0.30367   0.00000  Uiso   1.00
H44    H     0.13904   0.20947   0.19631   0.00000  Uiso   1.00
H45    H     0.10732   0.12394   0.30369   0.00000  Uiso   1.00
H46    H     0.22602   0.20939   0.19630   0.00000  Uiso   1.00
H47    H     0.21315   0.01013   0.21651   0.00000  Uiso   1.00
H48    H     0.21978   0.05922   0.24185   0.00000  Uiso   1.00
H49    H     0.21150   0.05746   0.18619   0.00000  Uiso   1.00
H50    H     0.06832   0.20930   0.45982   0.00000  Uiso   1.00
H51    H     0.29800   0.07123   0.17938   0.00000  Uiso   1.00
H52    H     0.29127   0.02154   0.15841   0.00000  Uiso   1.00
H53    H     0.12012   0.32313   0.28355   0.00000  Uiso   1.00
H54    H     0.11351   0.27397   0.25833   0.00000  Uiso   1.00
H55    H     0.12172   0.27587   0.31402   0.00000  Uiso   1.00
H56    H     0.04195   0.31178   0.34166   0.00000  Uiso   1.00
H57    H     0.03521   0.26210   0.32069   0.00000  Uiso   1.00
H58    H     0.11362   0.15131   0.11186   0.00000  Uiso   1.00
H59    H     0.21790   0.17844   0.38697   0.00000  Uiso   1.00
H60    H     0.30599   0.19192   0.10824   0.00000  Uiso   1.00
H61    H     0.02893   0.15156   0.39340   0.00000  Uiso   1.00
H62    H     0.00098   0.14567   0.47482   0.00000  Uiso   1.00
H63    H     0.00238   0.20627   0.02805   0.00000  Uiso   1.00
H64    H     0.18688   0.15703   0.08327   0.00000  Uiso   1.00
N65    N     0.11736   0.16668   0.24999   0.00000  Uiso   1.00
N66    N     0.21597   0.16666   0.25001   0.00000  Uiso   1.00
O67    O     0.03958   0.10655   0.25000   0.00000  Uiso   1.00
O68    O     0.29375   0.22678   0.25000   0.00000  Uiso   1.00
O69    O     0.29372   0.10654   0.25000   0.00000  Uiso   1.00
O70    O     0.03961   0.22679   0.24999   0.00000  Uiso   1.00
O71    O     0.01852   0.16668   0.31491   0.00000  Uiso   1.00
O72    O     0.31481   0.16666   0.18508   0.00000  Uiso   1.00
O73    O     0.27267   0.16667   0.31492   0.00000  Uiso   1.00
O74    O     0.06067   0.16667   0.18508   0.00000  Uiso   1.00
C75    C     0.33359   0.08745   0.24857   0.00000  Uiso   1.00
C76    C     0.35846   0.02263   0.27494   0.00000  Uiso   1.00
C77    C     0.66641   0.29050   0.25213   0.00000  Uiso   1.00
C78    C     0.33358   0.04283   0.24788   0.00000  Uiso   1.00
C79    C     0.51599   0.14295   0.27984   0.00000  Uiso   1.00
C80    C     0.48401   0.19038   0.22015   0.00000  Uiso   1.00
C81    C     0.46639   0.14297   0.27984   0.00000  Uiso   1.00
C82    C     0.53362   0.19036   0.22015   0.00000  Uiso   1.00
C83    C     0.63943   0.16658   0.33608   0.00000  Uiso   1.00
C84    C     0.36057   0.16723   0.16395   0.00000  Uiso   1.00
C85    C     0.62449   0.16593   0.38520   0.00000  Uiso   1.00
C86    C     0.66641   0.24588   0.25144   0.00000  Uiso   1.00
C87    C     0.37574   0.17153   0.11509   0.00000  Uiso   1.00
C88    C     0.64170   0.15384   0.45636   0.00000  Uiso   1.00
C89    C     0.36083   0.19449   0.04577   0.00000  Uiso   1.00
C90    C     0.65768   0.15710   0.40994   0.00000  Uiso   1.00
C91    C     0.34377   0.18607   0.09138   0.00000  Uiso   1.00
C92    C     0.57566   0.17282   0.40735   0.00000  Uiso   1.00
C93    C     0.42443   0.16457   0.09269   0.00000  Uiso   1.00
C94    C     0.55878   0.17083   0.45428   0.00000  Uiso   1.00
C95    C     0.44307   0.17442   0.04711   0.00000  Uiso   1.00
C96    C     0.59261   0.16021   0.47862   0.00000  Uiso   1.00
C97    C     0.52857   0.16046   0.04746   0.00000  Uiso   1.00
C98    C     0.41006   0.18880   0.02351   0.00000  Uiso   1.00
C99    C     0.50913   0.17774   0.47745   0.00000  Uiso   1.00
C100   C     0.49337   0.17047   0.02448   0.00000  Uiso   1.00
C101   C     0.61689   0.03987   0.18979   0.00000  Uiso   1.00
C102   C     0.56195   0.04176   0.20995   0.00000  Uiso   1.00
C103   C     0.38303   0.29344   0.31028   0.00000  Uiso   1.00
C104   C     0.43797   0.29152   0.29018   0.00000  Uiso   1.00
C105   C     0.47490   0.19227   0.45532   0.00000  Uiso   1.00
C106   C     0.57714   0.15565   0.02488   0.00000  Uiso   1.00
C107   C     0.42649   0.19784   0.47807   0.00000  Uiso   1.00
C108   C     0.64171   0.02017   0.22218   0.00000  Uiso   1.00
C109   C     0.35827   0.31315   0.27784   0.00000  Uiso   1.00
C110   C     0.64154   0.31069   0.22507   0.00000  Uiso   1.00
Cu111  Cu    0.38022   0.16667   0.25000   0.00000  Uiso   1.00
Cu112  Cu    0.61978   0.16666   0.25000   0.00000  Uiso   1.00
H113   H     0.60272   0.14775   0.04385   0.00000  Uiso   1.00
H114   H     0.48444   0.20091   0.42049   0.00000  Uiso   1.00
H115   H     0.62291   0.29289   0.20502   0.00000  Uiso   1.00
H116   H     0.37709   0.04044   0.29499   0.00000  Uiso   1.00
H117   H     0.52763   0.12385   0.30367   0.00000  Uiso   1.00
H118   H     0.47238   0.20947   0.19631   0.00000  Uiso   1.00
H119   H     0.44065   0.12394   0.30369   0.00000  Uiso   1.00
H120   H     0.55936   0.20939   0.19630   0.00000  Uiso   1.00
H121   H     0.54648   0.01013   0.21651   0.00000  Uiso   1.00
H122   H     0.55312   0.05922   0.24185   0.00000  Uiso   1.00
H123   H     0.54483   0.05746   0.18619   0.00000  Uiso   1.00
H124   H     0.40165   0.20930   0.45982   0.00000  Uiso   1.00
H125   H     0.63133   0.07123   0.17938   0.00000  Uiso   1.00
H126   H     0.62460   0.02154   0.15841   0.00000  Uiso   1.00
H127   H     0.45346   0.32313   0.28355   0.00000  Uiso   1.00
H128   H     0.44684   0.27397   0.25833   0.00000  Uiso   1.00
H129   H     0.45505   0.27587   0.31402   0.00000  Uiso   1.00
H130   H     0.37529   0.31178   0.34166   0.00000  Uiso   1.00
H131   H     0.36855   0.26210   0.32069   0.00000  Uiso   1.00
H132   H     0.44696   0.15131   0.11186   0.00000  Uiso   1.00
H133   H     0.55123   0.17844   0.38697   0.00000  Uiso   1.00
H134   H     0.63933   0.19192   0.10824   0.00000  Uiso   1.00
H135   H     0.36227   0.15156   0.39340   0.00000  Uiso   1.00
H136   H     0.33431   0.14567   0.47482   0.00000  Uiso   1.00
H137   H     0.33571   0.20627   0.02805   0.00000  Uiso   1.00
H138   H     0.52022   0.15703   0.08327   0.00000  Uiso   1.00
N139   N     0.45069   0.16668   0.24999   0.00000  Uiso   1.00
N140   N     0.54931   0.16666   0.25001   0.00000  Uiso   1.00
O141   O     0.37291   0.10655   0.25000   0.00000  Uiso   1.00
O142   O     0.62709   0.22678   0.25000   0.00000  Uiso   1.00
O143   O     0.62706   0.10654   0.25000   0.00000  Uiso   1.00
O144   O     0.37294   0.22679   0.24999   0.00000  Uiso   1.00
O145   O     0.35186   0.16668   0.31491   0.00000  Uiso   1.00
O146   O     0.64814   0.16666   0.18508   0.00000  Uiso   1.00
O147   O     0.60600   0.16667   0.31492   0.00000  Uiso   1.00
O148   O     0.39400   0.16667   0.18508   0.00000  Uiso   1.00
C149   C     0.66692   0.08745   0.24857   0.00000  Uiso   1.00
C150   C     0.69180   0.02263   0.27494   0.00000  Uiso   1.00
C151   C     0.99975   0.29050   0.25213   0.00000  Uiso   1.00
C152   C     0.66692   0.04283   0.24788   0.00000  Uiso   1.00
C153   C     0.84932   0.14295   0.27984   0.00000  Uiso   1.00
C154   C     0.81735   0.19038   0.22015   0.00000  Uiso   1.00
C155   C     0.79972   0.14297   0.27984   0.00000  Uiso   1.00
C156   C     0.86695   0.19036   0.22015   0.00000  Uiso   1.00
C157   C     0.97276   0.16658   0.33608   0.00000  Uiso   1.00
C158   C     0.69391   0.16723   0.16395   0.00000  Uiso   1.00
C159   C     0.95783   0.16593   0.38520   0.00000  Uiso   1.00
C160   C     0.99974   0.24588   0.25144   0.00000  Uiso   1.00
C161   C     0.70907   0.17153   0.11509   0.00000  Uiso   1.00
C162   C     0.97504   0.15384   0.45636   0.00000  Uiso   1.00
C163   C     0.69417   0.19449   0.04577   0.00000  Uiso   1.00
C164   C     0.99101   0.15710   0.40994   0.00000  Uiso   1.00
C165   C     0.67710   0.18607   0.09138   0.00000  Uiso   1.00
C166   C     0.90900   0.17282   0.40735   0.00000  Uiso   1.00
C167   C     0.75776   0.16457   0.09269   0.00000  Uiso   1.00
C168   C     0.89212   0.17083   0.45428   0.00000  Uiso   1.00
C169   C     0.77641   0.17442   0.04711   0.00000  Uiso   1.00
C170   C     0.92594   0.16021   0.47862   0.00000  Uiso   1.00
C171   C     0.86191   0.16046   0.04746   0.00000  Uiso   1.00
C172   C     0.74340   0.18880   0.02351   0.00000  Uiso   1.00
C173   C     0.84246   0.17774   0.47745   0.00000  Uiso   1.00
C174   C     0.82670   0.17047   0.02448   0.00000  Uiso   1.00
C175   C     0.95022   0.03987   0.18979   0.00000  Uiso   1.00
C176   C     0.89528   0.04176   0.20995   0.00000  Uiso   1.00
C177   C     0.71636   0.29344   0.31028   0.00000  Uiso   1.00
C178   C     0.77131   0.29152   0.29018   0.00000  Uiso   1.00
C179   C     0.80824   0.19227   0.45532   0.00000  Uiso   1.00
C180   C     0.91048   0.15565   0.02488   0.00000  Uiso   1.00
C181   C     0.75982   0.19784   0.47807   0.00000  Uiso   1.00
C182   C     0.97504   0.02017   0.22218   0.00000  Uiso   1.00
C183   C     0.69161   0.31315   0.27784   0.00000  Uiso   1.00
C184   C     0.97487   0.31069   0.22507   0.00000  Uiso   1.00
Cu185  Cu    0.71355   0.16667   0.25000   0.00000  Uiso   1.00
Cu186  Cu    0.95311   0.16666   0.25000   0.00000  Uiso   1.00
H187   H     0.93606   0.14775   0.04385   0.00000  Uiso   1.00
H188   H     0.81777   0.20091   0.42049   0.00000  Uiso   1.00
H189   H     0.95624   0.29289   0.20502   0.00000  Uiso   1.00
H190   H     0.71043   0.04044   0.29499   0.00000  Uiso   1.00
H191   H     0.86096   0.12385   0.30367   0.00000  Uiso   1.00
H192   H     0.80571   0.20947   0.19631   0.00000  Uiso   1.00
H193   H     0.77398   0.12394   0.30369   0.00000  Uiso   1.00
H194   H     0.89269   0.20939   0.19630   0.00000  Uiso   1.00
H195   H     0.87981   0.01013   0.21651   0.00000  Uiso   1.00
H196   H     0.88645   0.05922   0.24185   0.00000  Uiso   1.00
H197   H     0.87817   0.05746   0.18619   0.00000  Uiso   1.00
H198   H     0.73498   0.20930   0.45982   0.00000  Uiso   1.00
H199   H     0.96467   0.07123   0.17938   0.00000  Uiso   1.00
H200   H     0.95794   0.02154   0.15841   0.00000  Uiso   1.00
H201   H     0.78679   0.32313   0.28355   0.00000  Uiso   1.00
H202   H     0.78018   0.27397   0.25833   0.00000  Uiso   1.00
H203   H     0.78838   0.27587   0.31402   0.00000  Uiso   1.00
H204   H     0.70862   0.31178   0.34166   0.00000  Uiso   1.00
H205   H     0.70188   0.26210   0.32069   0.00000  Uiso   1.00
H206   H     0.78029   0.15131   0.11186   0.00000  Uiso   1.00
H207   H     0.88456   0.17844   0.38697   0.00000  Uiso   1.00
H208   H     0.97266   0.19192   0.10824   0.00000  Uiso   1.00
H209   H     0.69560   0.15156   0.39340   0.00000  Uiso   1.00
H210   H     0.66764   0.14567   0.47482   0.00000  Uiso   1.00
H211   H     0.66905   0.20627   0.02805   0.00000  Uiso   1.00
H212   H     0.85355   0.15703   0.08327   0.00000  Uiso   1.00
N213   N     0.78403   0.16668   0.24999   0.00000  Uiso   1.00
N214   N     0.88264   0.16666   0.25001   0.00000  Uiso   1.00
O215   O     0.70625   0.10655   0.25000   0.00000  Uiso   1.00
O216   O     0.96042   0.22678   0.25000   0.00000  Uiso   1.00
O217   O     0.96039   0.10654   0.25000   0.00000  Uiso   1.00
O218   O     0.70628   0.22679   0.24999   0.00000  Uiso   1.00
O219   O     0.68519   0.16668   0.31491   0.00000  Uiso   1.00
O220   O     0.98148   0.16666   0.18508   0.00000  Uiso   1.00
O221   O     0.93933   0.16667   0.31492   0.00000  Uiso   1.00
O222   O     0.72733   0.16667   0.18508   0.00000  Uiso   1.00
C223   C     0.00026   0.42079   0.24857   0.00000  Uiso   1.00
C224   C     0.02513   0.35597   0.27494   0.00000  Uiso   1.00
C225   C     0.33308   0.62383   0.25213   0.00000  Uiso   1.00
C226   C     0.00025   0.37616   0.24788   0.00000  Uiso   1.00
C227   C     0.18266   0.47628   0.27984   0.00000  Uiso   1.00
C228   C     0.15068   0.52371   0.22015   0.00000  Uiso   1.00
C229   C     0.13305   0.47630   0.27984   0.00000  Uiso   1.00
C230   C     0.20028   0.52369   0.22015   0.00000  Uiso   1.00
C231   C     0.30610   0.49991   0.33608   0.00000  Uiso   1.00
C232   C     0.02724   0.50056   0.16395   0.00000  Uiso   1.00
C233   C     0.29116   0.49926   0.38520   0.00000  Uiso   1.00
C234   C     0.33308   0.57921   0.25144   0.00000  Uiso   1.00
C235   C     0.04241   0.50486   0.11509   0.00000  Uiso   1.00
C236   C     0.30837   0.48718   0.45636   0.00000  Uiso   1.00
C237   C     0.02750   0.52782   0.04577   0.00000  Uiso   1.00
C238   C     0.32434   0.49043   0.40994   0.00000  Uiso   1.00
C239   C     0.01043   0.51940   0.09138   0.00000  Uiso   1.00
C240   C     0.24233   0.50615   0.40735   0.00000  Uiso   1.00
C241   C     0.09109   0.49790   0.09269   0.00000  Uiso   1.00
C242   C     0.22545   0.50416   0.45428   0.00000  Uiso   1.00
C243   C     0.10974   0.50776   0.04711   0.00000  Uiso   1.00
C244   C     0.25928   0.49354   0.47862   0.00000  Uiso   1.00
C245   C     0.19524   0.49379   0.04746   0.00000  Uiso   1.00
C246   C     0.07673   0.52214   0.02351   0.00000  Uiso   1.00
C247   C     0.17579   0.51107   0.47745   0.00000  Uiso   1.00
C248   C     0.16003   0.50381   0.02448   0.00000  Uiso   1.00
C249   C     0.28356   0.37321   0.18979   0.00000  Uiso   1.00
C250   C     0.22862   0.37509   0.20995   0.00000  Uiso   1.00
C251   C     0.04969   0.62677   0.31028   0.00000  Uiso   1.00
C252   C     0.10464   0.62485   0.29018   0.00000  Uiso   1.00
C253   C     0.14157   0.52560   0.45532   0.00000  Uiso   1.00
C254   C     0.24381   0.48898   0.02488   0.00000  Uiso   1.00
C255   C     0.09315   0.53117   0.47807   0.00000  Uiso   1.00
C256   C     0.30838   0.35351   0.22218   0.00000  Uiso   1.00
C257   C     0.02494   0.64648   0.27784   0.00000  Uiso   1.00
C258   C     0.30820   0.64403   0.22507   0.00000  Uiso   1.00
Cu259  Cu    0.04689   0.50001   0.25000   0.00000  Uiso   1.00
Cu260  Cu    0.28645   0.49999   0.25000   0.00000  Uiso   1.00
H261   H     0.26939   0.48109   0.04385   0.00000  Uiso   1.00
H262   H     0.15110   0.53425   0.42049   0.00000  Uiso   1.00
H263   H     0.28958   0.62622   0.20502   0.00000  Uiso   1.00
H264   H     0.04376   0.37377   0.29499   0.00000  Uiso   1.00
H265   H     0.19429   0.45718   0.30367   0.00000  Uiso   1.00
H266   H     0.13904   0.54281   0.19631   0.00000  Uiso   1.00
H267   H     0.10732   0.45727   0.30369   0.00000  Uiso   1.00
H268   H     0.22602   0.54272   0.19630   0.00000  Uiso   1.00
H269   H     0.21315   0.34346   0.21651   0.00000  Uiso   1.00
H270   H     0.21978   0.39256   0.24185   0.00000  Uiso   1.00
H271   H     0.21150   0.39080   0.18619   0.00000  Uiso   1.00
H272   H     0.06832   0.54263   0.45982   0.00000  Uiso   1.00
H273   H     0.29800   0.40456   0.17938   0.00000  Uiso   1.00
H274   H     0.29127   0.35487   0.15841   0.00000  Uiso   1.00
H275   H     0.12012   0.65647   0.28355   0.00000  Uiso   1.00
H276   H     0.11351   0.60730   0.25833   0.00000  Uiso   1.00
H277   H     0.12172   0.60920   0.31402   0.00000  Uiso   1.00
H278   H     0.04195   0.64512   0.34166   0.00000  Uiso   1.00
H279   H     0.03521   0.59543   0.32069   0.00000  Uiso   1.00
H280   H     0.11362   0.48465   0.11186   0.00000  Uiso   1.00
H281   H     0.21790   0.51177   0.38697   0.00000  Uiso   1.00
H282   H     0.30599   0.52525   0.10824   0.00000  Uiso   1.00
H283   H     0.02893   0.48489   0.39340   0.00000  Uiso   1.00
H284   H     0.00098   0.47900   0.47482   0.00000  Uiso   1.00
H285   H     0.00238   0.53960   0.02805   0.00000  Uiso   1.00
H286   H     0.18688   0.49036   0.08327   0.00000  Uiso   1.00
N287   N     0.11736   0.50001   0.24999   0.00000  Uiso   1.00
N288   N     0.21597   0.49999   0.25001   0.00000  Uiso   1.00
O289   O     0.03958   0.43989   0.25000   0.00000  Uiso   1.00
O290   O     0.29375   0.56011   0.25000   0.00000  Uiso   1.00
O291   O     0.29372   0.43988   0.25000   0.00000  Uiso   1.00
O292   O     0.03961   0.56012   0.24999   0.00000  Uiso   1.00
O293   O     0.01852   0.50001   0.31491   0.00000  Uiso   1.00
O294   O     0.31481   0.49999   0.18508   0.00000  Uiso   1.00
O295   O     0.27267   0.50000   0.31492   0.00000  Uiso   1.00
O296   O     0.06067   0.50000   0.18508   0.00000  Uiso   1.00
C297   C     0.33359   0.42079   0.24857   0.00000  Uiso   1.00
C298   C     0.35846   0.35597   0.27494   0.00000  Uiso   1.00
C299   C     0.66641   0.62383   0.25213   0.00000  Uiso   1.00
C300   C     0.33358   0.37616   0.24788   0.00000  Uiso   1.00
C301   C     0.51599   0.47628   0.27984   0.00000  Uiso   1.00
C302   C     0.48401   0.52371   0.22015   0.00000  Uiso   1.00
C303   C     0.46639   0.47630   0.27984   0.00000  Uiso   1.00
C304   C     0.53362   0.52369   0.22015   0.00000  Uiso   1.00
C305   C     0.63943   0.49991   0.33608   0.00000  Uiso   1.00
C306   C     0.36057   0.50056   0.16395   0.00000  Uiso   1.00
C307   C     0.62449   0.49926   0.38520   0.00000  Uiso   1.00
C308   C     0.66641   0.57921   0.25144   0.00000  Uiso   1.00
C309   C     0.37574   0.50486   0.11509   0.00000  Uiso   1.00
C310   C     0.64170   0.48718   0.45636   0.00000  Uiso   1.00
C311   C     0.36083   0.52782   0.04577   0.00000  Uiso   1.00
C312   C     0.65768   0.49043   0.40994   0.00000  Uiso   1.00
C313   C     0.34377   0.51940   0.09138   0.00000  Uiso   1.00
C314   C     0.57566   0.50615   0.40735   0.00000  Uiso   1.00
C315   C     0.42443   0.49790   0.09269   0.00000  Uiso   1.00
C316   C     0.55878   0.50416   0.45428   0.00000  Uiso   1.00
C317   C     0.44307   0.50776   0.04711   0.00000  Uiso   1.00
C318   C     0.59261   0.49354   0.47862   0.00000  Uiso   1.00
C319   C     0.52857   0.49379   0.04746   0.00000  Uiso   1.00
C320   C     0.41006   0.52214   0.02351   0.00000  Uiso   1.00
C321   C     0.50913   0.51107   0.47745   0.00000  Uiso   1.00
C322   C     0.49337   0.50381   0.02448   0.00000  Uiso   1.00
C323   C     0.61689   0.37321   0.18979   0.00000  Uiso   1.00
C324   C     0.56195   0.37509   0.20995   0.00000  Uiso   1.00
C325   C     0.38303   0.62677   0.31028   0.00000  Uiso   1.00
C326   C     0.43797   0.62485   0.29018   0.00000  Uiso   1.00
C327   C     0.47490   0.52560   0.45532   0.00000  Uiso   1.00
C328   C     0.57714   0.48898   0.02488   0.00000  Uiso   1.00
C329   C     0.42649   0.53117   0.47807   0.00000  Uiso   1.00
C330   C     0.64171   0.35351   0.22218   0.00000  Uiso   1.00
C331   C     0.35827   0.64648   0.27784   0.00000  Uiso   1.00
C332   C     0.64154   0.64403   0.22507   0.00000  Uiso   1.00
Cu333  Cu    0.38022   0.50001   0.25000   0.00000  Uiso   1.00
Cu334  Cu    0.61978   0.49999   0.25000   0.00000  Uiso   1.00
H335   H     0.60272   0.48109   0.04385   0.00000  Uiso   1.00
H336   H     0.48444   0.53425   0.42049   0.00000  Uiso   1.00
H337   H     0.62291   0.62622   0.20502   0.00000  Uiso   1.00
H338   H     0.37709   0.37377   0.29499   0.00000  Uiso   1.00
H339   H     0.52763   0.45718   0.30367   0.00000  Uiso   1.00
H340   H     0.47238   0.54281   0.19631   0.00000  Uiso   1.00
H341   H     0.44065   0.45727   0.30369   0.00000  Uiso   1.00
H342   H     0.55936   0.54272   0.19630   0.00000  Uiso   1.00
H343   H     0.54648   0.34346   0.21651   0.00000  Uiso   1.00
H344   H     0.55312   0.39256   0.24185   0.00000  Uiso   1.00
H345   H     0.54483   0.39080   0.18619   0.00000  Uiso   1.00
H346   H     0.40165   0.54263   0.45982   0.00000  Uiso   1.00
H347   H     0.63133   0.40456   0.17938   0.00000  Uiso   1.00
H348   H     0.62460   0.35487   0.15841   0.00000  Uiso   1.00
H349   H     0.45346   0.65647   0.28355   0.00000  Uiso   1.00
H350   H     0.44684   0.60730   0.25833   0.00000  Uiso   1.00
H351   H     0.45505   0.60920   0.31402   0.00000  Uiso   1.00
H352   H     0.37529   0.64512   0.34166   0.00000  Uiso   1.00
H353   H     0.36855   0.59543   0.32069   0.00000  Uiso   1.00
H354   H     0.44696   0.48465   0.11186   0.00000  Uiso   1.00
H355   H     0.55123   0.51177   0.38697   0.00000  Uiso   1.00
H356   H     0.63933   0.52525   0.10824   0.00000  Uiso   1.00
H357   H     0.36227   0.48489   0.39340   0.00000  Uiso   1.00
H358   H     0.33431   0.47900   0.47482   0.00000  Uiso   1.00
H359   H     0.33571   0.53960   0.02805   0.00000  Uiso   1.00
H360   H     0.52022   0.49036   0.08327   0.00000  Uiso   1.00
N361   N     0.45069   0.50001   0.24999   0.00000  Uiso   1.00
N362   N     0.54931   0.49999   0.25001   0.00000  Uiso   1.00
O363   O     0.37291   0.43989   0.25000   0.00000  Uiso   1.00
O364   O     0.62709   0.56011   0.25000   0.00000  Uiso   1.00
O365   O     0.62706   0.43988   0.25000   0.00000  Uiso   1.00
O366   O     0.37294   0.56012   0.24999   0.00000  Uiso   1.00
O367   O     0.35186   0.50001   0.31491   0.00000  Uiso   1.00
O368   O     0.64814   0.49999   0.18508   0.00000  Uiso   1.00
O369   O     0.60600   0.50000   0.31492   0.00000  Uiso   1.00
O370   O     0.39400   0.50000   0.18508   0.00000  Uiso   1.00
C371   C     0.66692   0.42079   0.24857   0.00000  Uiso   1.00
C372   C     0.69180   0.35597   0.27494   0.00000  Uiso   1.00
C373   C     0.99975   0.62383   0.25213   0.00000  Uiso   1.00
C374   C     0.66692   0.37616   0.24788   0.00000  Uiso   1.00
C375   C     0.84932   0.47628   0.27984   0.00000  Uiso   1.00
C376   C     0.81735   0.52371   0.22015   0.00000  Uiso   1.00
C377   C     0.79972   0.47630   0.27984   0.00000  Uiso   1.00
C378   C     0.86695   0.52369   0.22015   0.00000  Uiso   1.00
C379   C     0.97276   0.49991   0.33608   0.00000  Uiso   1.00
C380   C     0.69391   0.50056   0.16395   0.00000  Uiso   1.00
C381   C     0.95783   0.49926   0.38520   0.00000  Uiso   1.00
C382   C     0.99974   0.57921   0.25144   0.00000  Uiso   1.00
C383   C     0.70907   0.50486   0.11509   0.00000  Uiso   1.00
C384   C     0.97504   0.48718   0.45636   0.00000  Uiso   1.00
C385   C     0.69417   0.52782   0.04577   0.00000  Uiso   1.00
C386   C     0.99101   0.49043   0.40994   0.00000  Uiso   1.00
C387   C     0.67710   0.51940   0.09138   0.00000  Uiso   1.00
C388   C     0.90900   0.50615   0.40735   0.00000  Uiso   1.00
C389   C     0.75776   0.49790   0.09269   0.00000  Uiso   1.00
C390   C     0.89212   0.50416   0.45428   0.00000  Uiso   1.00
C391   C     0.77641   0.50776   0.04711   0.00000  Uiso   1.00
C392   C     0.92594   0.49354   0.47862   0.00000  Uiso   1.00
C393   C     0.86191   0.49379   0.04746   0.00000  Uiso   1.00
C394   C     0.74340   0.52214   0.02351   0.00000  Uiso   1.00
C395   C     0.84246   0.51107   0.47745   0.00000  Uiso   1.00
C396   C     0.82670   0.50381   0.02448   0.00000  Uiso   1.00
C397   C     0.95022   0.37321   0.18979   0.00000  Uiso   1.00
C398   C     0.89528   0.37509   0.20995   0.00000  Uiso   1.00
C399   C     0.71636   0.62677   0.31028   0.00000  Uiso   1.00
C400   C     0.77131   0.62485   0.29018   0.00000  Uiso   1.00
C401   C     0.80824   0.52560   0.45532   0.00000  Uiso   1.00
C402   C     0.91048   0.48898   0.02488   0.00000  Uiso   1.00
C403   C     0.75982   0.53117   0.47807   0.00000  Uiso   1.00
C404   C     0.97504   0.35351   0.22218   0.00000  Uiso   1.00
C405   C     0.69161   0.64648   0.27784   0.00000  Uiso   1.00
C406   C     0.97487   0.64403   0.22507   0.00000  Uiso   1.00
Cu407  Cu    0.71355   0.50001   0.25000   0.00000  Uiso   1.00
Cu408  Cu    0.95311   0.49999   0.25000   0.00000  Uiso   1.00
H409   H     0.93606   0.48109   0.04385   0.00000  Uiso   1.00
H410   H     0.81777   0.53425   0.42049   0.00000  Uiso   1.00
H411   H     0.95624   0.62622   0.20502   0.00000  Uiso   1.00
H412   H     0.71043   0.37377   0.29499   0.00000  Uiso   1.00
H413   H     0.86096   0.45718   0.30367   0.00000  Uiso   1.00
H414   H     0.80571   0.54281   0.19631   0.00000  Uiso   1.00
H415   H     0.77398   0.45727   0.30369   0.00000  Uiso   1.00
H416   H     0.89269   0.54272   0.19630   0.00000  Uiso   1.00
H417   H     0.87981   0.34346   0.21651   0.00000  Uiso   1.00
H418   H     0.88645   0.39256   0.24185   0.00000  Uiso   1.00
H419   H     0.87817   0.39080   0.18619   0.00000  Uiso   1.00
H420   H     0.73498   0.54263   0.45982   0.00000  Uiso   1.00
H421   H     0.96467   0.40456   0.17938   0.00000  Uiso   1.00
H422   H     0.95794   0.35487   0.15841   0.00000  Uiso   1.00
H423   H     0.78679   0.65647   0.28355   0.00000  Uiso   1.00
H424   H     0.78018   0.60730   0.25833   0.00000  Uiso   1.00
H425   H     0.78838   0.60920   0.31402   0.00000  Uiso   1.00
H426   H     0.70862   0.64512   0.34166   0.00000  Uiso   1.00
H427   H     0.70188   0.59543   0.32069   0.00000  Uiso   1.00
H428   H     0.78029   0.48465   0.11186   0.00000  Uiso   1.00
H429   H     0.88456   0.51177   0.38697   0.00000  Uiso   1.00
H430   H     0.97266   0.52525   0.10824   0.00000  Uiso   1.00
H431   H     0.69560   0.48489   0.39340   0.00000  Uiso   1.00
H432   H     0.66764   0.47900   0.47482   0.00000  Uiso   1.00
H433   H     0.66905   0.53960   0.02805   0.00000  Uiso   1.00
H434   H     0.85355   0.49036   0.08327   0.00000  Uiso   1.00
N435   N     0.78403   0.50001   0.24999   0.00000  Uiso   1.00
N436   N     0.88264   0.49999   0.25001   0.00000  Uiso   1.00
O437   O     0.70625   0.43989   0.25000   0.00000  Uiso   1.00
O438   O     0.96042   0.56011   0.25000   0.00000  Uiso   1.00
O439   O     0.96039   0.43988   0.25000   0.00000  Uiso   1.00
O440   O     0.70628   0.56012   0.24999   0.00000  Uiso   1.00
O441   O     0.68519   0.50001   0.31491   0.00000  Uiso   1.00
O442   O     0.98148   0.49999   0.18508   0.00000  Uiso   1.00
O443   O     0.93933   0.50000   0.31492   0.00000  Uiso   1.00
O444   O     0.72733   0.50000   0.18508   0.00000  Uiso   1.00
C445   C     0.00026   0.75412   0.24857   0.00000  Uiso   1.00
C446   C     0.02513   0.68930   0.27494   0.00000  Uiso   1.00
C447   C     0.33308   0.95717   0.25213   0.00000  Uiso   1.00
C448   C     0.00025   0.70950   0.24788   0.00000  Uiso   1.00
C449   C     0.18266   0.80962   0.27984   0.00000  Uiso   1.00
C450   C     0.15068   0.85704   0.22015   0.00000  Uiso   1.00
C451   C     0.13305   0.80964   0.27984   0.00000  Uiso   1.00
C452   C     0.20028   0.85702   0.22015   0.00000  Uiso   1.00
C453   C     0.30610   0.83324   0.33608   0.00000  Uiso   1.00
C454   C     0.02724   0.83390   0.16395   0.00000  Uiso   1.00
C455   C     0.29116   0.83259   0.38520   0.00000  Uiso   1.00
C456   C     0.33308   0.91255   0.25144   0.00000  Uiso   1.00
C457   C     0.04241   0.83820   0.11509   0.00000  Uiso   1.00
C458   C     0.30837   0.82051   0.45636   0.00000  Uiso   1.00
C459   C     0.02750   0.86116   0.04577   0.00000  Uiso   1.00
C460   C     0.32434   0.82377   0.40994   0.00000  Uiso   1.00
C461   C     0.01043   0.85273   0.09138   0.00000  Uiso   1.00
C462   C     0.24233   0.83948   0.40735   0.00000  Uiso   1.00
C463   C     0.09109   0.83123   0.09269   0.00000  Uiso   1.00
C464   C     0.22545   0.83749   0.45428   0.00000  Uiso   1.00
C465   C     0.10974   0.84109   0.04711   0.00000  Uiso   1.00
C466   C     0.25928   0.82688   0.47862   0.00000  Uiso   1.00
C467   C     0.19524   0.82713   0.04746   0.00000  Uiso   1.00
C468   C     0.07673   0.85547   0.02351   0.00000  Uiso   1.00
C469   C     0.17579   0.84440   0.47745   0.00000  Uiso   1.00
C470   C     0.16003   0.83714   0.02448   0.00000  Uiso   1.00
C471   C     0.28356   0.70654   0.18979   0.00000  Uiso   1.00
C472   C     0.22862   0.70842   0.20995   0.00000  Uiso   1.00
C473   C     0.04969   0.96011   0.31028   0.00000  Uiso   1.00
C474   C     0.10464   0.95818   0.29018   0.00000  Uiso   1.00
C475   C     0.14157   0.85893   0.45532   0.00000  Uiso   1.00
C476   C     0.24381   0.82232   0.02488   0.00000  Uiso   1.00
C477   C     0.09315   0.86451   0.47807   0.00000  Uiso   1.00
C478   C     0.30838   0.68684   0.22218   0.00000  Uiso   1.00
C479   C     0.02494   0.97982   0.27784   0.00000  Uiso   1.00
C480   C     0.30820   0.97736   0.22507   0.00000  Uiso   1.00
Cu481  Cu    0.04689   0.83334   0.25000   0.00000  Uiso   1.00
Cu482  Cu    0.28645   0.83333   0.25000   0.00000  Uiso   1.00
H483   H     0.26939   0.81442   0.04385   0.00000  Uiso   1.00
H484   H     0.15110   0.86758   0.42049   0.00000  Uiso   1.00
H485   H     0.28958   0.95955   0.20502   0.00000  Uiso   1.00
H486   H     0.04376   0.70710   0.29499   0.00000  Uiso   1.00
H487   H     0.19429   0.79051   0.30367   0.00000  Uiso   1.00
H488   H     0.13904   0.87614   0.19631   0.00000  Uiso   1.00
H489   H     0.10732   0.79061   0.30369   0.00000  Uiso   1.00
H490   H     0.22602   0.87605   0.19630   0.00000  Uiso   1.00
H491   H     0.21315   0.67680   0.21651   0.00000  Uiso   1.00
H492   H     0.21978   0.72589   0.24185   0.00000  Uiso   1.00
H493   H     0.21150   0.72413   0.18619   0.00000  Uiso   1.00
H494   H     0.06832   0.87596   0.45982   0.00000  Uiso   1.00
H495   H     0.29800   0.73789   0.17938   0.00000  Uiso   1.00
H496   H     0.29127   0.68820   0.15841   0.00000  Uiso   1.00
H497   H     0.12012   0.98980   0.28355   0.00000  Uiso   1.00
H498   H     0.11351   0.94063   0.25833   0.00000  Uiso   1.00
H499   H     0.12172   0.94254   0.31402   0.00000  Uiso   1.00
H500   H     0.04195   0.97845   0.34166   0.00000  Uiso   1.00
H501   H     0.03521   0.92877   0.32069   0.00000  Uiso   1.00
H502   H     0.11362   0.81798   0.11186   0.00000  Uiso   1.00
H503   H     0.21790   0.84511   0.38697   0.00000  Uiso   1.00
H504   H     0.30599   0.85859   0.10824   0.00000  Uiso   1.00
H505   H     0.02893   0.81823   0.39340   0.00000  Uiso   1.00
H506   H     0.00098   0.81234   0.47482   0.00000  Uiso   1.00
H507   H     0.00238   0.87293   0.02805   0.00000  Uiso   1.00
H508   H     0.18688   0.82369   0.08327   0.00000  Uiso   1.00
N509   N     0.11736   0.83334   0.24999   0.00000  Uiso   1.00
N510   N     0.21597   0.83332   0.25001   0.00000  Uiso   1.00
O511   O     0.03958   0.77322   0.25000   0.00000  Uiso   1.00
O512   O     0.29375   0.89345   0.25000   0.00000  Uiso   1.00
O513   O     0.29372   0.77321   0.25000   0.00000  Uiso   1.00
O514   O     0.03961   0.89346   0.24999   0.00000  Uiso   1.00
O515   O     0.01852   0.83334   0.31491   0.00000  Uiso   1.00
O516   O     0.31481   0.83332   0.18508   0.00000  Uiso   1.00
O517   O     0.27267   0.83333   0.31492   0.00000  Uiso   1.00
O518   O     0.06067   0.83333   0.18508   0.00000  Uiso   1.00
C519   C     0.33359   0.75412   0.24857   0.00000  Uiso   1.00
C520   C     0.35846   0.68930   0.27494   0.00000  Uiso   1.00
C521   C     0.66641   0.95717   0.25213   0.00000  Uiso   1.00
C522   C     0.33358   0.70950   0.24788   0.00000  Uiso   1.00
C523   C     0.51599   0.80962   0.27984   0.00000  Uiso   1.00
C524   C     0.48401   0.85704   0.22015   0.00000  Uiso   1.00
C525   C     0.46639   0.80964   0.27984   0.00000  Uiso   1.00
C526   C     0.53362   0.85702   0.22015   0.00000  Uiso   1.00
C527   C     0.63943   0.83324   0.33608   0.00000  Uiso   1.00
C528   C     0.36057   0.83390   0.16395   0.00000  Uiso   1.00
C529   C     0.62449   0.83259   0.38520   0.00000  Uiso   1.00
C530   C     0.66641   0.91255   0.25144   0.00000  Uiso   1.00
C531   C     0.37574   0.83820   0.11509   0.00000  Uiso   1.00
C532   C     0.64170   0.82051   0.45636   0.00000  Uiso   1.00
C533   C     0.36083   0.86116   0.04577   0.00000  Uiso   1.00
C534   C     0.65768   0.82377   0.40994   0.00000  Uiso   1.00
C535   C     0.34377   0.85273   0.09138   0.00000  Uiso   1.00
C536   C     0.57566   0.83948   0.40735   0.00000  Uiso   1.00
C537   C     0.42443   0.83123   0.09269   0.00000  Uiso   1.00
C538   C     0.55878   0.83749   0.45428   0.00000  Uiso   1.00
C539   C     0.44307   0.84109   0.04711   0.00000  Uiso   1.00
C540   C     0.59261   0.82688   0.47862   0.00000  Uiso   1.00
C541   C     0.52857   0.82713   0.04746   0.00000  Uiso   1.00
C542   C     0.41006   0.85547   0.02351   0.00000  Uiso   1.00
C543   C     0.50913   0.84440   0.47745   0.00000  Uiso   1.00
C544   C     0.49337   0.83714   0.02448   0.00000  Uiso   1.00
C545   C     0.61689   0.70654   0.18979   0.00000  Uiso   1.00
C546   C     0.56195   0.70842   0.20995   0.00000  Uiso   1.00
C547   C     0.38303   0.96011   0.31028   0.00000  Uiso   1.00
C548   C     0.43797   0.95818   0.29018   0.00000  Uiso   1.00
C549   C     0.47490   0.85893   0.45532   0.00000  Uiso   1.00
C550   C     0.57714   0.82232   0.02488   0.00000  Uiso   1.00
C551   C     0.42649   0.86451   0.47807   0.00000  Uiso   1.00
C552   C     0.64171   0.68684   0.22218   0.00000  Uiso   1.00
C553   C     0.35827   0.97982   0.27784   0.00000  Uiso   1.00
C554   C     0.64154   0.97736   0.22507   0.00000  Uiso   1.00
Cu555  Cu    0.38022   0.83334   0.25000   0.00000  Uiso   1.00
Cu556  Cu    0.61978   0.83333   0.25000   0.00000  Uiso   1.00
H557   H     0.60272   0.81442   0.04385   0.00000  Uiso   1.00
H558   H     0.48444   0.86758   0.42049   0.00000  Uiso   1.00
H559   H     0.62291   0.95955   0.20502   0.00000  Uiso   1.00
H560   H     0.37709   0.70710   0.29499   0.00000  Uiso   1.00
H561   H     0.52763   0.79051   0.30367   0.00000  Uiso   1.00
H562   H     0.47238   0.87614   0.19631   0.00000  Uiso   1.00
H563   H     0.44065   0.79061   0.30369   0.00000  Uiso   1.00
H564   H     0.55936   0.87605   0.19630   0.00000  Uiso   1.00
H565   H     0.54648   0.67680   0.21651   0.00000  Uiso   1.00
H566   H     0.55312   0.72589   0.24185   0.00000  Uiso   1.00
H567   H     0.54483   0.72413   0.18619   0.00000  Uiso   1.00
H568   H     0.40165   0.87596   0.45982   0.00000  Uiso   1.00
H569   H     0.63133   0.73789   0.17938   0.00000  Uiso   1.00
H570   H     0.62460   0.68820   0.15841   0.00000  Uiso   1.00
H571   H     0.45346   0.98980   0.28355   0.00000  Uiso   1.00
H572   H     0.44684   0.94063   0.25833   0.00000  Uiso   1.00
H573   H     0.45505   0.94254   0.31402   0.00000  Uiso   1.00
H574   H     0.37529   0.97845   0.34166   0.00000  Uiso   1.00
H575   H     0.36855   0.92877   0.32069   0.00000  Uiso   1.00
H576   H     0.44696   0.81798   0.11186   0.00000  Uiso   1.00
H577   H     0.55123   0.84511   0.38697   0.00000  Uiso   1.00
H578   H     0.63933   0.85859   0.10824   0.00000  Uiso   1.00
H579   H     0.36227   0.81823   0.39340   0.00000  Uiso   1.00
H580   H     0.33431   0.81234   0.47482   0.00000  Uiso   1.00
H581   H     0.33571   0.87293   0.02805   0.00000  Uiso   1.00
H582   H     0.52022   0.82369   0.08327   0.00000  Uiso   1.00
N583   N     0.45069   0.83334   0.24999   0.00000  Uiso   1.00
N584   N     0.54931   0.83332   0.25001   0.00000  Uiso   1.00
O585   O     0.37291   0.77322   0.25000   0.00000  Uiso   1.00
O586   O     0.62709   0.89345   0.25000   0.00000  Uiso   1.00
O587   O     0.62706   0.77321   0.25000   0.00000  Uiso   1.00
O588   O     0.37294   0.89346   0.24999   0.00000  Uiso   1.00
O589   O     0.35186   0.83334   0.31491   0.00000  Uiso   1.00
O590   O     0.64814   0.83332   0.18508   0.00000  Uiso   1.00
O591   O     0.60600   0.83333   0.31492   0.00000  Uiso   1.00
O592   O     0.39400   0.83333   0.18508   0.00000  Uiso   1.00
C593   C     0.66692   0.75412   0.24857   0.00000  Uiso   1.00
C594   C     0.69180   0.68930   0.27494   0.00000  Uiso   1.00
C595   C     0.99975   0.95717   0.25213   0.00000  Uiso   1.00
C596   C     0.66692   0.70950   0.24788   0.00000  Uiso   1.00
C597   C     0.84932   0.80962   0.27984   0.00000  Uiso   1.00
C598   C     0.81735   0.85704   0.22015   0.00000  Uiso   1.00
C599   C     0.79972   0.80964   0.27984   0.00000  Uiso   1.00
C600   C     0.86695   0.85702   0.22015   0.00000  Uiso   1.00
C601   C     0.97276   0.83324   0.33608   0.00000  Uiso   1.00
C602   C     0.69391   0.83390   0.16395   0.00000  Uiso   1.00
C603   C     0.95783   0.83259   0.38520   0.00000  Uiso   1.00
C604   C     0.99974   0.91255   0.25144   0.00000  Uiso   1.00
C605   C     0.70907   0.83820   0.11509   0.00000  Uiso   1.00
C606   C     0.97504   0.82051   0.45636   0.00000  Uiso   1.00
C607   C     0.69417   0.86116   0.04577   0.00000  Uiso   1.00
C608   C     0.99101   0.82377   0.40994   0.00000  Uiso   1.00
C609   C     0.67710   0.85273   0.09138   0.00000  Uiso   1.00
C610   C     0.90900   0.83948   0.40735   0.00000  Uiso   1.00
C611   C     0.75776   0.83123   0.09269   0.00000  Uiso   1.00
C612   C     0.89212   0.83749   0.45428   0.00000  Uiso   1.00
C613   C     0.77641   0.84109   0.04711   0.00000  Uiso   1.00
C614   C     0.92594   0.82688   0.47862   0.00000  Uiso   1.00
C615   C     0.86191   0.82713   0.04746   0.00000  Uiso   1.00
C616   C     0.74340   0.85547   0.02351   0.00000  Uiso   1.00
C617   C     0.84246   0.84440   0.47745   0.00000  Uiso   1.00
C618   C     0.82670   0.83714   0.02448   0.00000  Uiso   1.00
C619   C     0.95022   0.70654   0.18979   0.00000  Uiso   1.00
C620   C     0.89528   0.70842   0.20995   0.00000  Uiso   1.00
C621   C     0.71636   0.96011   0.31028   0.00000  Uiso   1.00
C622   C     0.77131   0.95818   0.29018   0.00000  Uiso   1.00
C623   C     0.80824   0.85893   0.45532   0.00000  Uiso   1.00
C624   C     0.91048   0.82232   0.02488   0.00000  Uiso   1.00
C625   C     0.75982   0.86451   0.47807   0.00000  Uiso   1.00
C626   C     0.97504   0.68684   0.22218   0.00000  Uiso   1.00
C627   C     0.69161   0.97982   0.27784   0.00000  Uiso   1.00
C628   C     0.97487   0.97736   0.22507   0.00000  Uiso   1.00
Cu629  Cu    0.71355   0.83334   0.25000   0.00000  Uiso   1.00
Cu630  Cu    0.95311   0.83333   0.25000   0.00000  Uiso   1.00
H631   H     0.93606   0.81442   0.04385   0.00000  Uiso   1.00
H632   H     0.81777   0.86758   0.42049   0.00000  Uiso   1.00
H633   H     0.95624   0.95955   0.20502   0.00000  Uiso   1.00
H634   H     0.71043   0.70710   0.29499   0.00000  Uiso   1.00
H635   H     0.86096   0.79051   0.30367   0.00000  Uiso   1.00
H636   H     0.80571   0.87614   0.19631   0.00000  Uiso   1.00
H637   H     0.77398   0.79061   0.30369   0.00000  Uiso   1.00
H638   H     0.89269   0.87605   0.19630   0.00000  Uiso   1.00
H639   H     0.87981   0.67680   0.21651   0.00000  Uiso   1.00
H640   H     0.88645   0.72589   0.24185   0.00000  Uiso   1.00
H641   H     0.87817   0.72413   0.18619   0.00000  Uiso   1.00
H642   H     0.73498   0.87596   0.45982   0.00000  Uiso   1.00
H643   H     0.96467   0.73789   0.17938   0.00000  Uiso   1.00
H644   H     0.95794   0.68820   0.15841   0.00000  Uiso   1.00
H645   H     0.78679   0.98980   0.28355   0.00000  Uiso   1.00
H646   H     0.78018   0.94063   0.25833   0.00000  Uiso   1.00
H647   H     0.78838   0.94254   0.31402   0.00000  Uiso   1.00
H648   H     0.70862   0.97845   0.34166   0.00000  Uiso   1.00
H649   H     0.70188   0.92877   0.32069   0.00000  Uiso   1.00
H650   H     0.78029   0.81798   0.11186   0.00000  Uiso   1.00
H651   H     0.88456   0.84511   0.38697   0.00000  Uiso   1.00
H652   H     0.97266   0.85859   0.10824   0.00000  Uiso   1.00
H653   H     0.69560   0.81823   0.39340   0.00000  Uiso   1.00
H654   H     0.66764   0.81234   0.47482   0.00000  Uiso   1.00
H655   H     0.66905   0.87293   0.02805   0.00000  Uiso   1.00
H656   H     0.85355   0.82369   0.08327   0.00000  Uiso   1.00
N657   N     0.78403   0.83334   0.24999   0.00000  Uiso   1.00
N658   N     0.88264   0.83332   0.25001   0.00000  Uiso   1.00
O659   O     0.70625   0.77322   0.25000   0.00000  Uiso   1.00
O660   O     0.96042   0.89345   0.25000   0.00000  Uiso   1.00
O661   O     0.96039   0.77321   0.25000   0.00000  Uiso   1.00
O662   O     0.70628   0.89346   0.24999   0.00000  Uiso   1.00
O663   O     0.68519   0.83334   0.31491   0.00000  Uiso   1.00
O664   O     0.98148   0.83332   0.18508   0.00000  Uiso   1.00
O665   O     0.93933   0.83333   0.31492   0.00000  Uiso   1.00
O666   O     0.72733   0.83333   0.18508   0.00000  Uiso   1.00
C667   C     0.00026   0.08745   0.74857   0.00000  Uiso   1.00
C668   C     0.02513   0.02263   0.77494   0.00000  Uiso   1.00
C669   C     0.33308   0.29050   0.75213   0.00000  Uiso   1.00
C670   C     0.00025   0.04283   0.74788   0.00000  Uiso   1.00
C671   C     0.18266   0.14295   0.77984   0.00000  Uiso   1.00
C672   C     0.15068   0.19038   0.72015   0.00000  Uiso   1.00
C673   C     0.13305   0.14297   0.77984   0.00000  Uiso   1.00
C674   C     0.20028   0.19036   0.72015   0.00000  Uiso   1.00
C675   C     0.30610   0.16658   0.83608   0.00000  Uiso   1.00
C676   C     0.02724   0.16723   0.66395   0.00000  Uiso   1.00
C677   C     0.29116   0.16593   0.88520   0.00000  Uiso   1.00
C678   C     0.33308   0.24588   0.75144   0.00000  Uiso   1.00
C679   C     0.04241   0.17153   0.61509   0.00000  Uiso   1.00
C680   C     0.30837   0.15384   0.95636   0.00000  Uiso   1.00
C681   C     0.02750   0.19449   0.54577   0.00000  Uiso   1.00
C682   C     0.32434   0.15710   0.90994   0.00000  Uiso   1.00
C683   C     0.01043   0.18607   0.59138   0.00000  Uiso   1.00
C684   C     0.24233   0.17282   0.90735   0.00000  Uiso   1.00
C685   C     0.09109   0.16457   0.59269   0.00000  Uiso   1.00
C686   C     0.22545   0.17083   0.95428   0.00000  Uiso   1.00
C687   C     0.10974   0.17442   0.54711   0.00000  Uiso   1.00
C688   C     0.25928   0.16021   0.97862   0.00000  Uiso   1.00
C689   C     0.19524   0.16046   0.54746   0.00000  Uiso   1.00
C690   C     0.07673   0.18880   0.52351   0.00000  Uiso   1.00
C691   C     0.17579   0.17774   0.97745   0.00000  Uiso   1.00
C692   C     0.16003   0.17047   0.52448   0.00000  Uiso   1.00
C693   C     0.28356   0.03987   0.68979   0.00000  Uiso   1.00
C694   C     0.22862   0.04176   0.70995   0.00000  Uiso   1.00
C695   C     0.04969   0.29344   0.81028   0.00000  Uiso   1.00
C696   C     0.10464   0.29152   0.79018   0.00000  Uiso   1.00
C697   C     0.14157   0.19227   0.95532   0.00000  Uiso   1.00
C698   C     0.24381   0.15565   0.52488   0.00000  Uiso   1.00
C699   C     0.09315   0.19784   0.97807   0.00000  Uiso   1.00
C700   C     0.30838   0.02017   0.72218   0.00000  Uiso   1.00
C701   C     0.02494   0.31315   0.77784   0.00000  Uiso   1.00
C702   C     0.30820   0.31069   0.72507   0.00000  Uiso   1.00
Cu703  Cu    0.04689   0.16667   0.75000   0.00000  Uiso   1.00
Cu704  Cu    0.28645   0.16666   0.75000   0.00000  Uiso   1.00
H705   H     0.26939   0.14775   0.54385   0.00000  Uiso   1.00
H706   H     0.15110   0.20091   0.92049   0.00000  Uiso   1.00
H707   H     0.28958   0.29289   0.70502   0.00000  Uiso   1.00
H708   H     0.04376   0.04044   0.79499   0.00000  Uiso   1.00
H709   H     0.19429   0.12385   0.80367   0.00000  Uiso   1.00
H710   H     0.13904   0.20947   0.69631   0.00000  Uiso   1.00
H711   H     0.10732   0.12394   0.80369   0.00000  Uiso   1.00
H712   H     0.22602   0.20939   0.69630   0.00000  Uiso   1.00
H713   H     0.21315   0.01013   0.71651   0.00000  Uiso   1.00
H714   H     0.21978   0.05922   0.74185   0.00000  Uiso   1.00
H715   H     0.21150   0.05746   0.68619   0.00000  Uiso   1.00
H716   H     0.06832   0.20930   0.95982   0.00000  Uiso   1.00
H717   H     0.29800   0.07123   0.67938   0.00000  Uiso   1.00
H718   H     0.29127   0.02154   0.65841   0.00000  Uiso   1.00
H719   H     0.12012   0.32313   0.78355   0.00000  Uiso   1.00
H720   H     0.11351   0.27397   0.75833   0.00000  Uiso   1.00
H721   H     0.12172   0.27587   0.81402   0.00000  Uiso   1.00
H722   H     0.04195   0.31178   0.84166   0.00000  Uiso   1.00
H723   H     0.03521   0.26210   0.82069   0.00000  Uiso   1.00
H724   H     0.11362   0.15131   0.61186   0.00000  Uiso   1.00
H725   H     0.21790   0.17844   0.88697   0.00000  Uiso   1.00
H726   H     0.30599   0.19192   0.60824   0.00000  Uiso   1.00
H727   H     0.02893   0.15156   0.89340   0.00000  Uiso   1.00
H728   H     0.00098   0.14567   0.97482   0.00000  Uiso   1.00
H729   H     0.00238   0.20627   0.52805   0.00000  Uiso   1.00
H730   H     0.18688   0.15703   0.58327   0.00000  Uiso   1.00
N731   N     0.11736   0.16668   0.74999   0.00000  Uiso   1.00
N732   N     0.21597   0.16666   0.75001   0.00000  Uiso   1.00
O733   O     0.03958   0.10655   0.75000   0.00000  Uiso   1.00
O734   O     0.29375   0.22678   0.75000   0.00000  Uiso   1.00
O735   O     0.29372   0.10654   0.75000   0.00000  Uiso   1.00
O736   O     0.03961   0.22679   0.74999   0.00000  Uiso   1.00
O737   O     0.01852   0.16668   0.81491   0.00000  Uiso   1.00
O738   O     0.31481   0.16666   0.68508   0.00000  Uiso   1.00
O739   O     0.27267   0.16667   0.81492   0.00000  Uiso   1.00
O740   O     0.06067   0.16667   0.68508   0.00000  Uiso   1.00
C741   C     0.33359   0.08745   0.74857   0.00000  Uiso   1.00
C742   C     0.35846   0.02263   0.77494   0.00000  Uiso   1.00
C743   C     0.66641   0.29050   0.75213   0.00000  Uiso   1.00
C744   C     0.33358   0.04283   0.74788   0.00000  Uiso   1.00
C745   C     0.51599   0.14295   0.77984   0.00000  Uiso   1.00
C746   C     0.48401   0.19038   0.72015   0.00000  Uiso   1.00
C747   C     0.46639   0.14297   0.77984   0.00000  Uiso   1.00
C748   C     0.53362   0.19036   0.72015   0.00000  Uiso   1.00
C749   C     0.63943   0.16658   0.83608   0.00000  Uiso   1.00
C750   C     0.36057   0.16723   0.66395   0.00000  Uiso   1.00
C751   C     0.62449   0.16593   0.88520   0.00000  Uiso   1.00
C752   C     0.66641   0.24588   0.75144   0.00000  Uiso   1.00
C753   C     0.37574   0.17153   0.61509   0.00000  Uiso   1.00
C754   C     0.64170   0.15384   0.95636   0.00000  Uiso   1.00
C755   C     0.36083   0.19449   0.54577   0.00000  Uiso   1.00
C756   C     0.65768   0.15710   0.90994   0.00000  Uiso   1.00
C757   C     0.34377   0.18607   0.59138   0.00000  Uiso   1.00
C758   C     0.57566   0.17282   0.90735   0.00000  Uiso   1.00
C759   C     0.42443   0.16457   0.59269   0.00000  Uiso   1.00
C760   C     0.55878   0.17083   0.95428   0.00000  Uiso   1.00
C761   C     0.44307   0.17442   0.54711   0.00000  Uiso   1.00
C762   C     0.59261   0.16021   0.97862   0.00000  Uiso   1.00
C763   C     0.52857   0.16046   0.54746   0.00000  Uiso   1.00
C764   C     0.41006   0.18880   0.52351   0.00000  Uiso   1.00
C765   C     0.50913   0.17774   0.97745   0.00000  Uiso   1.00
C766   C     0.49337   0.17047   0.52448   0.00000  Uiso   1.00
C767   C     0.61689   0.03987   0.68979   0.00000  Uiso   1.00
C768   C     0.56195   0.04176   0.70995   0.00000  Uiso   1.00
C769   C     0.38303   0.29344   0.81028   0.00000  Uiso   1.00
C770   C     0.43797   0.29152   0.79018   0.00000  Uiso   1.00
C771   C     0.47490   0.19227   0.95532   0.00000  Uiso   1.00
C772   C     0.57714   0.15565   0.52488   0.00000  Uiso   1.00
C773   C     0.42649   0.19784   0.97807   0.00000  Uiso   1.00
C774   C     0.64171   0.02017   0.72218   0.00000  Uiso   1.00
C775   C     0.35827   0.31315   0.77784   0.00000  Uiso   1.00
C776   C     0.64154   0.31069   0.72507   0.00000  Uiso   1.00
Cu777  Cu    0.38022   0.16667   0.75000   0.00000  Uiso   1.00
Cu778  Cu    0.61978   0.16666   0.75000   0.00000  Uiso   1.00
H779   H     0.60272   0.14775   0.54385   0.00000  Uiso   1.00
H780   H     0.48444   0.20091   0.92049   0.00000  Uiso   1.00
H781   H     0.62291   0.29289   0.70502   0.00000  Uiso   1.00
H782   H     0.37709   0.04044   0.79499   0.00000  Uiso   1.00
H783   H     0.52763   0.12385   0.80367   0.00000  Uiso   1.00
H784   H     0.47238   0.20947   0.69631   0.00000  Uiso   1.00
H785   H     0.44065   0.12394   0.80369   0.00000  Uiso   1.00
H786   H     0.55936   0.20939   0.69630   0.00000  Uiso   1.00
H787   H     0.54648   0.01013   0.71651   0.00000  Uiso   1.00
H788   H     0.55312   0.05922   0.74185   0.00000  Uiso   1.00
H789   H     0.54483   0.05746   0.68619   0.00000  Uiso   1.00
H790   H     0.40165   0.20930   0.95982   0.00000  Uiso   1.00
H791   H     0.63133   0.07123   0.67938   0.00000  Uiso   1.00
H792   H     0.62460   0.02154   0.65841   0.00000  Uiso   1.00
H793   H     0.45346   0.32313   0.78355   0.00000  Uiso   1.00
H794   H     0.44684   0.27397   0.75833   0.00000  Uiso   1.00
H795   H     0.45505   0.27587   0.81402   0.00000  Uiso   1.00
H796   H     0.37529   0.31178   0.84166   0.00000  Uiso   1.00
H797   H     0.36855   0.26210   0.82069   0.00000  Uiso   1.00
H798   H     0.44696   0.15131   0.61186   0.00000  Uiso   1.00
H799   H     0.55123   0.17844   0.88697   0.00000  Uiso   1.00
H800   H     0.63933   0.19192   0.60824   0.00000  Uiso   1.00
H801   H     0.36227   0.15156   0.89340   0.00000  Uiso   1.00
H802   H     0.33431   0.14567   0.97482   0.00000  Uiso   1.00
H803   H     0.33571   0.20627   0.52805   0.00000  Uiso   1.00
H804   H     0.52022   0.15703   0.58327   0.00000  Uiso   1.00
N805   N     0.45069   0.16668   0.74999   0.00000  Uiso   1.00
N806   N     0.54931   0.16666   0.75001   0.00000  Uiso   1.00
O807   O     0.37291   0.10655   0.75000   0.00000  Uiso   1.00
O808   O     0.62709   0.22678   0.75000   0.00000  Uiso   1.00
O809   O     0.62706   0.10654   0.75000   0.00000  Uiso   1.00
O810   O     0.37294   0.22679   0.74999   0.00000  Uiso   1.00
O811   O     0.35186   0.16668   0.81491   0.00000  Uiso   1.00
O812   O     0.64814   0.16666   0.68508   0.00000  Uiso   1.00
O813   O     0.60600   0.16667   0.81492   0.00000  Uiso   1.00
O814   O     0.39400   0.16667   0.68508   0.00000  Uiso   1.00
C815   C     0.66692   0.08745   0.74857   0.00000  Uiso   1.00
C816   C     0.69180   0.02263   0.77494   0.00000  Uiso   1.00
C817   C     0.99975   0.29050   0.75213   0.00000  Uiso   1.00
C818   C     0.66692   0.04283   0.74788   0.00000  Uiso   1.00
C819   C     0.84932   0.14295   0.77984   0.00000  Uiso   1.00
C820   C     0.81735   0.19038   0.72015   0.00000  Uiso   1.00
C821   C     0.79972   0.14297   0.77984   0.00000  Uiso   1.00
C822   C     0.86695   0.19036   0.72015   0.00000  Uiso   1.00
C823   C     0.97276   0.16658   0.83608   0.00000  Uiso   1.00
C824   C     0.69391   0.16723   0.66395   0.00000  Uiso   1.00
C825   C     0.95783   0.16593   0.88520   0.00000  Uiso   1.00
C826   C     0.99974   0.24588   0.75144   0.00000  Uiso   1.00
C827   C     0.70907   0.17153   0.61509   0.00000  Uiso   1.00
C828   C     0.97504   0.15384   0.95636   0.00000  Uiso   1.00
C829   C     0.69417   0.19449   0.54577   0.00000  Uiso   1.00
C830   C     0.99101   0.15710   0.90994   0.00000  Uiso   1.00
C831   C     0.67710   0.18607   0.59138   0.00000  Uiso   1.00
C832   C     0.90900   0.17282   0.90735   0.00000  Uiso   1.00
C833   C     0.75776   0.16457   0.59269   0.00000  Uiso   1.00
C834   C     0.89212   0.17083   0.95428   0.00000  Uiso   1.00
C835   C     0.77641   0.17442   0.54711   0.00000  Uiso   1.00
C836   C     0.92594   0.16021   0.97862   0.00000  Uiso   1.00
C837   C     0.86191   0.16046   0.54746   0.00000  Uiso   1.00
C838   C     0.74340   0.18880   0.52351   0.00000  Uiso   1.00
C839   C     0.84246   0.17774   0.97745   0.00000  Uiso   1.00
C840   C     0.82670   0.17047   0.52448   0.00000  Uiso   1.00
C841   C     0.95022   0.03987   0.68979   0.00000  Uiso   1.00
C842   C     0.89528   0.04176   0.70995   0.00000  Uiso   1.00
C843   C     0.71636   0.29344   0.81028   0.00000  Uiso   1.00
C844   C     0.77131   0.29152   0.79018   0.00000  Uiso   1.00
C845   C     0.80824   0.19227   0.95532   0.00000  Uiso   1.00
C846   C     0.91048   0.15565   0.52488   0.00000  Uiso   1.00
C847   C     0.75982   0.19784   0.97807   0.00000  Uiso   1.00
C848   C     0.97504   0.02017   0.72218   0.00000  Uiso   1.00
C849   C     0.69161   0.31315   0.77784   0.00000  Uiso   1.00
C850   C     0.97487   0.31069   0.72507   0.00000  Uiso   1.00
Cu851  Cu    0.71355   0.16667   0.75000   0.00000  Uiso   1.00
Cu852  Cu    0.95311   0.16666   0.75000   0.00000  Uiso   1.00
H853   H     0.93606   0.14775   0.54385   0.00000  Uiso   1.00
H854   H     0.81777   0.20091   0.92049   0.00000  Uiso   1.00
H855   H     0.95624   0.29289   0.70502   0.00000  Uiso   1.00
H856   H     0.71043   0.04044   0.79499   0.00000  Uiso   1.00
H857   H     0.86096   0.12385   0.80367   0.00000  Uiso   1.00
H858   H     0.80571   0.20947   0.69631   0.00000  Uiso   1.00
H859   H     0.77398   0.12394   0.80369   0.00000  Uiso   1.00
H860   H     0.89269   0.20939   0.69630   0.00000  Uiso   1.00
H861   H     0.87981   0.01013   0.71651   0.00000  Uiso   1.00
H862   H     0.88645   0.05922   0.74185   0.00000  Uiso   1.00
H863   H     0.87817   0.05746   0.68619   0.00000  Uiso   1.00
H864   H     0.73498   0.20930   0.95982   0.00000  Uiso   1.00
H865   H     0.96467   0.07123   0.67938   0.00000  Uiso   1.00
H866   H     0.95794   0.02154   0.65841   0.00000  Uiso   1.00
H867   H     0.78679   0.32313   0.78355   0.00000  Uiso   1.00
H868   H     0.78018   0.27397   0.75833   0.00000  Uiso   1.00
H869   H     0.78838   0.27587   0.81402   0.00000  Uiso   1.00
H870   H     0.70862   0.31178   0.84166   0.00000  Uiso   1.00
H871   H     0.70188   0.26210   0.82069   0.00000  Uiso   1.00
H872   H     0.78029   0.15131   0.61186   0.00000  Uiso   1.00
H873   H     0.88456   0.17844   0.88697   0.00000  Uiso   1.00
H874   H     0.97266   0.19192   0.60824   0.00000  Uiso   1.00
H875   H     0.69560   0.15156   0.89340   0.00000  Uiso   1.00
H876   H     0.66764   0.14567   0.97482   0.00000  Uiso   1.00
H877   H     0.66905   0.20627   0.52805   0.00000  Uiso   1.00
H878   H     0.85355   0.15703   0.58327   0.00000  Uiso   1.00
N879   N     0.78403   0.16668   0.74999   0.00000  Uiso   1.00
N880   N     0.88264   0.16666   0.75001   0.00000  Uiso   1.00
O881   O     0.70625   0.10655   0.75000   0.00000  Uiso   1.00
O882   O     0.96042   0.22678   0.75000   0.00000  Uiso   1.00
O883   O     0.96039   0.10654   0.75000   0.00000  Uiso   1.00
O884   O     0.70628   0.22679   0.74999   0.00000  Uiso   1.00
O885   O     0.68519   0.16668   0.81491   0.00000  Uiso   1.00
O886   O     0.98148   0.16666   0.68508   0.00000  Uiso   1.00
O887   O     0.93933   0.16667   0.81492   0.00000  Uiso   1.00
O888   O     0.72733   0.16667   0.68508   0.00000  Uiso   1.00
C889   C     0.00026   0.42079   0.74857   0.00000  Uiso   1.00
C890   C     0.02513   0.35597   0.77494   0.00000  Uiso   1.00
C891   C     0.33308   0.62383   0.75213   0.00000  Uiso   1.00
C892   C     0.00025   0.37616   0.74788   0.00000  Uiso   1.00
C893   C     0.18266   0.47628   0.77984   0.00000  Uiso   1.00
C894   C     0.15068   0.52371   0.72015   0.00000  Uiso   1.00
C895   C     0.13305   0.47630   0.77984   0.00000  Uiso   1.00
C896   C     0.20028   0.52369   0.72015   0.00000  Uiso   1.00
C897   C     0.30610   0.49991   0.83608   0.00000  Uiso   1.00
C898   C     0.02724   0.50056   0.66395   0.00000  Uiso   1.00
C899   C     0.29116   0.49926   0.88520   0.00000  Uiso   1.00
C900   C     0.33308   0.57921   0.75144   0.00000  Uiso   1.00
C901   C     0.04241   0.50486   0.61509   0.00000  Uiso   1.00
C902   C     0.30837   0.48718   0.95636   0.00000  Uiso   1.00
C903   C     0.02750   0.52782   0.54577   0.00000  Uiso   1.00
C904   C     0.32434   0.49043   0.90994   0.00000  Uiso   1.00
C905   C     0.01043   0.51940   0.59138   0.00000  Uiso   1.00
C906   C     0.24233   0.50615   0.90735   0.00000  Uiso   1.00
C907   C     0.09109   0.49790   0.59269   0.00000  Uiso   1.00
C908   C     0.22545   0.50416   0.95428   0.00000  Uiso   1.00
C909   C     0.10974   0.50776   0.54711   0.00000  Uiso   1.00
C910   C     0.25928   0.49354   0.97862   0.00000  Uiso   1.00
C911   C     0.19524   0.49379   0.54746   0.00000  Uiso   1.00
C912   C     0.07673   0.52214   0.52351   0.00000  Uiso   1.00
C913   C     0.17579   0.51107   0.97745   0.00000  Uiso   1.00
C914   C     0.16003   0.50381   0.52448   0.00000  Uiso   1.00
C915   C     0.28356   0.37321   0.68979   0.00000  Uiso   1.00
C916   C     0.22862   0.37509   0.70995   0.00000  Uiso   1.00
C917   C     0.04969   0.62677   0.81028   0.00000  Uiso   1.00
C918   C     0.10464   0.62485   0.79018   0.00000  Uiso   1.00
C919   C     0.14157   0.52560   0.95532   0.00000  Uiso   1.00
C920   C     0.24381   0.48898   0.52488   0.00000  Uiso   1.00
C921   C     0.09315   0.53117   0.97807   0.00000  Uiso   1.00
C922   C     0.30838   0.35351   0.72218   0.00000  Uiso   1.00
C923   C     0.02494   0.64648   0.77784   0.00000  Uiso   1.00
C924   C     0.30820   0.64403   0.72507   0.00000  Uiso   1.00
Cu925  Cu    0.04689   0.50001   0.75000   0.00000  Uiso   1.00
Cu926  Cu    0.28645   0.49999   0.75000   0.00000  Uiso   1.00
H927   H     0.26939   0.48109   0.54385   0.00000  Uiso   1.00
H928   H     0.15110   0.53425   0.92049   0.00000  Uiso   1.00
H929   H     0.28958   0.62622   0.70502   0.00000  Uiso   1.00
H930   H     0.04376   0.37377   0.79499   0.00000  Uiso   1.00
H931   H     0.19429   0.45718   0.80367   0.00000  Uiso   1.00
H932   H     0.13904   0.54281   0.69631   0.00000  Uiso   1.00
H933   H     0.10732   0.45727   0.80369   0.00000  Uiso   1.00
H934   H     0.22602   0.54272   0.69630   0.00000  Uiso   1.00
H935   H     0.21315   0.34346   0.71651   0.00000  Uiso   1.00
H936   H     0.21978   0.39256   0.74185   0.00000  Uiso   1.00
H937   H     0.21150   0.39080   0.68619   0.00000  Uiso   1.00
H938   H     0.06832   0.54263   0.95982   0.00000  Uiso   1.00
H939   H     0.29800   0.40456   0.67938   0.00000  Uiso   1.00
H940   H     0.29127   0.35487   0.65841   0.00000  Uiso   1.00
H941   H     0.12012   0.65647   0.78355   0.00000  Uiso   1.00
H942   H     0.11351   0.60730   0.75833   0.00000  Uiso   1.00
H943   H     0.12172   0.60920   0.81402   0.00000  Uiso   1.00
H944   H     0.04195   0.64512   0.84166   0.00000  Uiso   1.00
H945   H     0.03521   0.59543   0.82069   0.00000  Uiso   1.00
H946   H     0.11362   0.48465   0.61186   0.00000  Uiso   1.00
H947   H     0.21790   0.51177   0.88697   0.00000  Uiso   1.00
H948   H     0.30599   0.52525   0.60824   0.00000  Uiso   1.00
H949   H     0.02893   0.48489   0.89340   0.00000  Uiso   1.00
H950   H     0.00098   0.47900   0.97482   0.00000  Uiso   1.00
H951   H     0.00238   0.53960   0.52805   0.00000  Uiso   1.00
H952   H     0.18688   0.49036   0.58327   0.00000  Uiso   1.00
N953   N     0.11736   0.50001   0.74999   0.00000  Uiso   1.00
N954   N     0.21597   0.49999   0.75001   0.00000  Uiso   1.00
O955   O     0.03958   0.43989   0.75000   0.00000  Uiso   1.00
O956   O     0.29375   0.56011   0.75000   0.00000  Uiso   1.00
O957   O     0.29372   0.43988   0.75000   0.00000  Uiso   1.00
O958   O     0.03961   0.56012   0.74999   0.00000  Uiso   1.00
O959   O     0.01852   0.50001   0.81491   0.00000  Uiso   1.00
O960   O     0.31481   0.49999   0.68508   0.00000  Uiso   1.00
O961   O     0.27267   0.50000   0.81492   0.00000  Uiso   1.00
O962   O     0.06067   0.50000   0.68508   0.00000  Uiso   1.00
C963   C     0.33359   0.42079   0.74857   0.00000  Uiso   1.00
C964   C     0.35846   0.35597   0.77494   0.00000  Uiso   1.00
C965   C     0.66641   0.62383   0.75213   0.00000  Uiso   1.00
C966   C     0.33358   0.37616   0.74788   0.00000  Uiso   1.00
C967   C     0.51599   0.47628   0.77984   0.00000  Uiso   1.00
C968   C     0.48401   0.52371   0.72015   0.00000  Uiso   1.00
C969   C     0.46639   0.47630   0.77984   0.00000  Uiso   1.00
C970   C     0.53362   0.52369   0.72015   0.00000  Uiso   1.00
C971   C     0.63943   0.49991   0.83608   0.00000  Uiso   1.00
C972   C     0.36057   0.50056   0.66395   0.00000  Uiso   1.00
C973   C     0.62449   0.49926   0.88520   0.00000  Uiso   1.00
C974   C     0.66641   0.57921   0.75144   0.00000  Uiso   1.00
C975   C     0.37574   0.50486   0.61509   0.00000  Uiso   1.00
C976   C     0.64170   0.48718   0.95636   0.00000  Uiso   1.00
C977   C     0.36083   0.52782   0.54577   0.00000  Uiso   1.00
C978   C     0.65768   0.49043   0.90994   0.00000  Uiso   1.00
C979   C     0.34377   0.51940   0.59138   0.00000  Uiso   1.00
C980   C     0.57566   0.50615   0.90735   0.00000  Uiso   1.00
C981   C     0.42443   0.49790   0.59269   0.00000  Uiso   1.00
C982   C     0.55878   0.50416   0.95428   0.00000  Uiso   1.00
C983   C     0.44307   0.50776   0.54711   0.00000  Uiso   1.00
C984   C     0.59261   0.49354   0.97862   0.00000  Uiso   1.00
C985   C     0.52857   0.49379   0.54746   0.00000  Uiso   1.00
C986   C     0.41006   0.52214   0.52351   0.00000  Uiso   1.00
C987   C     0.50913   0.51107   0.97745   0.00000  Uiso   1.00
C988   C     0.49337   0.50381   0.52448   0.00000  Uiso   1.00
C989   C     0.61689   0.37321   0.68979   0.00000  Uiso   1.00
C990   C     0.56195   0.37509   0.70995   0.00000  Uiso   1.00
C991   C     0.38303   0.62677   0.81028   0.00000  Uiso   1.00
C992   C     0.43797   0.62485   0.79018   0.00000  Uiso   1.00
C993   C     0.47490   0.52560   0.95532   0.00000  Uiso   1.00
C994   C     0.57714   0.48898   0.52488   0.00000  Uiso   1.00
C995   C     0.42649   0.53117   0.97807   0.00000  Uiso   1.00
C996   C     0.64171   0.35351   0.72218   0.00000  Uiso   1.00
C997   C     0.35827   0.64648   0.77784   0.00000  Uiso   1.00
C998   C     0.64154   0.64403   0.72507   0.00000  Uiso   1.00
Cu999  Cu    0.38022   0.50001   0.75000   0.00000  Uiso   1.00
Cu1000 Cu    0.61978   0.49999   0.75000   0.00000  Uiso   1.00
H1001  H     0.60272   0.48109   0.54385   0.00000  Uiso   1.00
H1002  H     0.48444   0.53425   0.92049   0.00000  Uiso   1.00
H1003  H     0.62291   0.62622   0.70502   0.00000  Uiso   1.00
H1004  H     0.37709   0.37377   0.79499   0.00000  Uiso   1.00
H1005  H     0.52763   0.45718   0.80367   0.00000  Uiso   1.00
H1006  H     0.47238   0.54281   0.69631   0.00000  Uiso   1.00
H1007  H     0.44065   0.45727   0.80369   0.00000  Uiso   1.00
H1008  H     0.55936   0.54272   0.69630   0.00000  Uiso   1.00
H1009  H     0.54648   0.34346   0.71651   0.00000  Uiso   1.00
H1010  H     0.55312   0.39256   0.74185   0.00000  Uiso   1.00
H1011  H     0.54483   0.39080   0.68619   0.00000  Uiso   1.00
H1012  H     0.40165   0.54263   0.95982   0.00000  Uiso   1.00
H1013  H     0.63133   0.40456   0.67938   0.00000  Uiso   1.00
H1014  H     0.62460   0.35487   0.65841   0.00000  Uiso   1.00
H1015  H     0.45346   0.65647   0.78355   0.00000  Uiso   1.00
H1016  H     0.44684   0.60730   0.75833   0.00000  Uiso   1.00
H1017  H     0.45505   0.60920   0.81402   0.00000  Uiso   1.00
H1018  H     0.37529   0.64512   0.84166   0.00000  Uiso   1.00
H1019  H     0.36855   0.59543   0.82069   0.00000  Uiso   1.00
H1020  H     0.44696   0.48465   0.61186   0.00000  Uiso   1.00
H1021  H     0.55123   0.51177   0.88697   0.00000  Uiso   1.00
H1022  H     0.63933   0.52525   0.60824   0.00000  Uiso   1.00
H1023  H     0.36227   0.48489   0.89340   0.00000  Uiso   1.00
H1024  H     0.33431   0.47900   0.97482   0.00000  Uiso   1.00
H1025  H     0.33571   0.53960   0.52805   0.00000  Uiso   1.00
H1026  H     0.52022   0.49036   0.58327   0.00000  Uiso   1.00
N1027  N     0.45069   0.50001   0.74999   0.00000  Uiso   1.00
N1028  N     0.54931   0.49999   0.75001   0.00000  Uiso   1.00
O1029  O     0.37291   0.43989   0.75000   0.00000  Uiso   1.00
O1030  O     0.62709   0.56011   0.75000   0.00000  Uiso   1.00
O1031  O     0.62706   0.43988   0.75000   0.00000  Uiso   1.00
O1032  O     0.37294   0.56012   0.74999   0.00000  Uiso   1.00
O1033  O     0.35186   0.50001   0.81491   0.00000  Uiso   1.00
O1034  O     0.64814   0.49999   0.68508   0.00000  Uiso   1.00
O1035  O     0.60600   0.50000   0.81492   0.00000  Uiso   1.00
O1036  O     0.39400   0.50000   0.68508   0.00000  Uiso   1.00
C1037  C     0.66692   0.42079   0.74857   0.00000  Uiso   1.00
C1038  C     0.69180   0.35597   0.77494   0.00000  Uiso   1.00
C1039  C     0.99975   0.62383   0.75213   0.00000  Uiso   1.00
C1040  C     0.66692   0.37616   0.74788   0.00000  Uiso   1.00
C1041  C     0.84932   0.47628   0.77984   0.00000  Uiso   1.00
C1042  C     0.81735   0.52371   0.72015   0.00000  Uiso   1.00
C1043  C     0.79972   0.47630   0.77984   0.00000  Uiso   1.00
C1044  C     0.86695   0.52369   0.72015   0.00000  Uiso   1.00
C1045  C     0.97276   0.49991   0.83608   0.00000  Uiso   1.00
C1046  C     0.69391   0.50056   0.66395   0.00000  Uiso   1.00
C1047  C     0.95783   0.49926   0.88520   0.00000  Uiso   1.00
C1048  C     0.99974   0.57921   0.75144   0.00000  Uiso   1.00
C1049  C     0.70907   0.50486   0.61509   0.00000  Uiso   1.00
C1050  C     0.97504   0.48718   0.95636   0.00000  Uiso   1.00
C1051  C     0.69417   0.52782   0.54577   0.00000  Uiso   1.00
C1052  C     0.99101   0.49043   0.90994   0.00000  Uiso   1.00
C1053  C     0.67710   0.51940   0.59138   0.00000  Uiso   1.00
C1054  C     0.90900   0.50615   0.90735   0.00000  Uiso   1.00
C1055  C     0.75776   0.49790   0.59269   0.00000  Uiso   1.00
C1056  C     0.89212   0.50416   0.95428   0.00000  Uiso   1.00
C1057  C     0.77641   0.50776   0.54711   0.00000  Uiso   1.00
C1058  C     0.92594   0.49354   0.97862   0.00000  Uiso   1.00
C1059  C     0.86191   0.49379   0.54746   0.00000  Uiso   1.00
C1060  C     0.74340   0.52214   0.52351   0.00000  Uiso   1.00
C1061  C     0.84246   0.51107   0.97745   0.00000  Uiso   1.00
C1062  C     0.82670   0.50381   0.52448   0.00000  Uiso   1.00
C1063  C     0.95022   0.37321   0.68979   0.00000  Uiso   1.00
C1064  C     0.89528   0.37509   0.70995   0.00000  Uiso   1.00
C1065  C     0.71636   0.62677   0.81028   0.00000  Uiso   1.00
C1066  C     0.77131   0.62485   0.79018   0.00000  Uiso   1.00
C1067  C     0.80824   0.52560   0.95532   0.00000  Uiso   1.00
C1068  C     0.91048   0.48898   0.52488   0.00000  Uiso   1.00
C1069  C     0.75982   0.53117   0.97807   0.00000  Uiso   1.00
C1070  C     0.97504   0.35351   0.72218   0.00000  Uiso   1.00
C1071  C     0.69161   0.64648   0.77784   0.00000  Uiso   1.00
C1072  C     0.97487   0.64403   0.72507   0.00000  Uiso   1.00
Cu1073 Cu    0.71355   0.50001   0.75000   0.00000  Uiso   1.00
Cu1074 Cu    0.95311   0.49999   0.75000   0.00000  Uiso   1.00
H1075  H     0.93606   0.48109   0.54385   0.00000  Uiso   1.00
H1076  H     0.81777   0.53425   0.92049   0.00000  Uiso   1.00
H1077  H     0.95624   0.62622   0.70502   0.00000  Uiso   1.00
H1078  H     0.71043   0.37377   0.79499   0.00000  Uiso   1.00
H1079  H     0.86096   0.45718   0.80367   0.00000  Uiso   1.00
H1080  H     0.80571   0.54281   0.69631   0.00000  Uiso   1.00
H1081  H     0.77398   0.45727   0.80369   0.00000  Uiso   1.00
H1082  H     0.89269   0.54272   0.69630   0.00000  Uiso   1.00
H1083  H     0.87981   0.34346   0.71651   0.00000  Uiso   1.00
H1084  H     0.88645   0.39256   0.74185   0.00000  Uiso   1.00
H1085  H     0.87817   0.39080   0.68619   0.00000  Uiso   1.00
H1086  H     0.73498   0.54263   0.95982   0.00000  Uiso   1.00
H1087  H     0.96467   0.40456   0.67938   0.00000  Uiso   1.00
H1088  H     0.95794   0.35487   0.65841   0.00000  Uiso   1.00
H1089  H     0.78679   0.65647   0.78355   0.00000  Uiso   1.00
H1090  H     0.78018   0.60730   0.75833   0.00000  Uiso   1.00
H1091  H     0.78838   0.60920   0.81402   0.00000  Uiso   1.00
H1092  H     0.70862   0.64512   0.84166   0.00000  Uiso   1.00
H1093  H     0.70188   0.59543   0.82069   0.00000  Uiso   1.00
H1094  H     0.78029   0.48465   0.61186   0.00000  Uiso   1.00
H1095  H     0.88456   0.51177   0.88697   0.00000  Uiso   1.00
H1096  H     0.97266   0.52525   0.60824   0.00000  Uiso   1.00
H1097  H     0.69560   0.48489   0.89340   0.00000  Uiso   1.00
H1098  H     0.66764   0.47900   0.97482   0.00000  Uiso   1.00
H1099  H     0.66905   0.53960   0.52805   0.00000  Uiso   1.00
H1100  H     0.85355   0.49036   0.58327   0.00000  Uiso   1.00
N1101  N     0.78403   0.50001   0.74999   0.00000  Uiso   1.00
N1102  N     0.88264   0.49999   0.75001   0.00000  Uiso   1.00
O1103  O     0.70625   0.43989   0.75000   0.00000  Uiso   1.00
O1104  O     0.96042   0.56011   0.75000   0.00000  Uiso   1.00
O1105  O     0.96039   0.43988   0.75000   0.00000  Uiso   1.00
O1106  O     0.70628   0.56012   0.74999   0.00000  Uiso   1.00
O1107  O     0.68519   0.50001   0.81491   0.00000  Uiso   1.00
O1108  O     0.98148   0.49999   0.68508   0.00000  Uiso   1.00
O1109  O     0.93933   0.50000   0.81492   0.00000  Uiso   1.00
O1110  O     0.72733   0.50000   0.68508   0.00000  Uiso   1.00
C1111  C     0.00026   0.75412   0.74857   0.00000  Uiso   1.00
C1112  C     0.02513   0.68930   0.77494   0.00000  Uiso   1.00
C1113  C     0.33308   0.95717   0.75213   0.00000  Uiso   1.00
C1114  C     0.00025   0.70950   0.74788   0.00000  Uiso   1.00
C1115  C     0.18266   0.80962   0.77984   0.00000  Uiso   1.00
C1116  C     0.15068   0.85704   0.72015   0.00000  Uiso   1.00
C1117  C     0.13305   0.80964   0.77984   0.00000  Uiso   1.00
C1118  C     0.20028   0.85702   0.72015   0.00000  Uiso   1.00
C1119  C     0.30610   0.83324   0.83608   0.00000  Uiso   1.00
C1120  C     0.02724   0.83390   0.66395   0.00000  Uiso   1.00
C1121  C     0.29116   0.83259   0.88520   0.00000  Uiso   1.00
C1122  C     0.33308   0.91255   0.75144   0.00000  Uiso   1.00
C1123  C     0.04241   0.83820   0.61509   0.00000  Uiso   1.00
C1124  C     0.30837   0.82051   0.95636   0.00000  Uiso   1.00
C1125  C     0.02750   0.86116   0.54577   0.00000  Uiso   1.00
C1126  C     0.32434   0.82377   0.90994   0.00000  Uiso   1.00
C1127  C     0.01043   0.85273   0.59138   0.00000  Uiso   1.00
C1128  C     0.24233   0.83948   0.90735   0.00000  Uiso   1.00
C1129  C     0.09109   0.83123   0.59269   0.00000  Uiso   1.00
C1130  C     0.22545   0.83749   0.95428   0.00000  Uiso   1.00
C1131  C     0.10974   0.84109   0.54711   0.00000  Uiso   1.00
C1132  C     0.25928   0.82688   0.97862   0.00000  Uiso   1.00
C1133  C     0.19524   0.82713   0.54746   0.00000  Uiso   1.00
C1134  C     0.07673   0.85547   0.52351   0.00000  Uiso   1.00
C1135  C     0.17579   0.84440   0.97745   0.00000  Uiso   1.00
C1136  C     0.16003   0.83714   0.52448   0.00000  Uiso   1.00
C1137  C     0.28356   0.70654   0.68979   0.00000  Uiso   1.00
C1138  C     0.22862   0.70842   0.70995   0.00000  Uiso   1.00
C1139  C     0.04969   0.96011   0.81028   0.00000  Uiso   1.00
C1140  C     0.10464   0.95818   0.79018   0.00000  Uiso   1.00
C1141  C     0.14157   0.85893   0.95532   0.00000  Uiso   1.00
C1142  C     0.24381   0.82232   0.52488   0.00000  Uiso   1.00
C1143  C     0.09315   0.86451   0.97807   0.00000  Uiso   1.00
C1144  C     0.30838   0.68684   0.72218   0.00000  Uiso   1.00
C1145  C     0.02494   0.97982   0.77784   0.00000  Uiso   1.00
C1146  C     0.30820   0.97736   0.72507   0.00000  Uiso   1.00
Cu1147 Cu    0.04689   0.83334   0.75000   0.00000  Uiso   1.00
Cu1148 Cu    0.28645   0.83333   0.75000   0.00000  Uiso   1.00
H1149  H     0.26939   0.81442   0.54385   0.00000  Uiso   1.00
H1150  H     0.15110   0.86758   0.92049   0.00000  Uiso   1.00
H1151  H     0.28958   0.95955   0.70502   0.00000  Uiso   1.00
H1152  H     0.04376   0.70710   0.79499   0.00000  Uiso   1.00
H1153  H     0.19429   0.79051   0.80367   0.00000  Uiso   1.00
H1154  H     0.13904   0.87614   0.69631   0.00000  Uiso   1.00
H1155  H     0.10732   0.79061   0.80369   0.00000  Uiso   1.00
H1156  H     0.22602   0.87605   0.69630   0.00000  Uiso   1.00
H1157  H     0.21315   0.67680   0.71651   0.00000  Uiso   1.00
H1158  H     0.21978   0.72589   0.74185   0.00000  Uiso   1.00
H1159  H     0.21150   0.72413   0.68619   0.00000  Uiso   1.00
H1160  H     0.06832   0.87596   0.95982   0.00000  Uiso   1.00
H1161  H     0.29800   0.73789   0.67938   0.00000  Uiso   1.00
H1162  H     0.29127   0.68820   0.65841   0.00000  Uiso   1.00
H1163  H     0.12012   0.98980   0.78355   0.00000  Uiso   1.00
H1164  H     0.11351   0.94063   0.75833   0.00000  Uiso   1.00
H1165  H     0.12172   0.94254   0.81402   0.00000  Uiso   1.00
H1166  H     0.04195   0.97845   0.84166   0.00000  Uiso   1.00
H1167  H     0.03521   0.92877   0.82069   0.00000  Uiso   1.00
H1168  H     0.11362   0.81798   0.61186   0.00000  Uiso   1.00
H1169  H     0.21790   0.84511   0.88697   0.00000  Uiso   1.00
H1170  H     0.30599   0.85859   0.60824   0.00000  Uiso   1.00
H1171  H     0.02893   0.81823   0.89340   0.00000  Uiso   1.00
H1172  H     0.00098   0.81234   0.97482   0.00000  Uiso   1.00
H1173  H     0.00238   0.87293   0.52805   0.00000  Uiso   1.00
H1174  H     0.18688   0.82369   0.58327   0.00000  Uiso   1.00
N1175  N     0.11736   0.83334   0.74999   0.00000  Uiso   1.00
N1176  N     0.21597   0.83332   0.75001   0.00000  Uiso   1.00
O1177  O     0.03958   0.77322   0.75000   0.00000  Uiso   1.00
O1178  O     0.29375   0.89345   0.75000   0.00000  Uiso   1.00
O1179  O     0.29372   0.77321   0.75000   0.00000  Uiso   1.00
O1180  O     0.03961   0.89346   0.74999   0.00000  Uiso   1.00
O1181  O     0.01852   0.83334   0.81491   0.00000  Uiso   1.00
O1182  O     0.31481   0.83332   0.68508   0.00000  Uiso   1.00
O1183  O     0.27267   0.83333   0.81492   0.00000  Uiso   1.00
O1184  O     0.06067   0.83333   0.68508   0.00000  Uiso   1.00
C1185  C     0.33359   0.75412   0.74857   0.00000  Uiso   1.00
C1186  C     0.35846   0.68930   0.77494   0.00000  Uiso   1.00
C1187  C     0.66641   0.95717   0.75213   0.00000  Uiso   1.00
C1188  C     0.33358   0.70950   0.74788   0.00000  Uiso   1.00
C1189  C     0.51599   0.80962   0.77984   0.00000  Uiso   1.00
C1190  C     0.48401   0.85704   0.72015   0.00000  Uiso   1.00
C1191  C     0.46639   0.80964   0.77984   0.00000  Uiso   1.00
C1192  C     0.53362   0.85702   0.72015   0.00000  Uiso   1.00
C1193  C     0.63943   0.83324   0.83608   0.00000  Uiso   1.00
C1194  C     0.36057   0.83390   0.66395   0.00000  Uiso   1.00
C1195  C     0.62449   0.83259   0.88520   0.00000  Uiso   1.00
C1196  C     0.66641   0.91255   0.75144   0.00000  Uiso   1.00
C1197  C     0.37574   0.83820   0.61509   0.00000  Uiso   1.00
C1198  C     0.64170   0.82051   0.95636   0.00000  Uiso   1.00
C1199  C     0.36083   0.86116   0.54577   0.00000  Uiso   1.00
C1200  C     0.65768   0.82377   0.90994   0.00000  Uiso   1.00
C1201  C     0.34377   0.85273   0.59138   0.00000  Uiso   1.00
C1202  C     0.57566   0.83948   0.90735   0.00000  Uiso   1.00
C1203  C     0.42443   0.83123   0.59269   0.00000  Uiso   1.00
C1204  C     0.55878   0.83749   0.95428   0.00000  Uiso   1.00
C1205  C     0.44307   0.84109   0.54711   0.00000  Uiso   1.00
C1206  C     0.59261   0.82688   0.97862   0.00000  Uiso   1.00
C1207  C     0.52857   0.82713   0.54746   0.00000  Uiso   1.00
C1208  C     0.41006   0.85547   0.52351   0.00000  Uiso   1.00
C1209  C     0.50913   0.84440   0.97745   0.00000  Uiso   1.00
C1210  C     0.49337   0.83714   0.52448   0.00000  Uiso   1.00
C1211  C     0.61689   0.70654   0.68979   0.00000  Uiso   1.00
C1212  C     0.56195   0.70842   0.70995   0.00000  Uiso   1.00
C1213  C     0.38303   0.96011   0.81028   0.00000  Uiso   1.00
C1214  C     0.43797   0.95818   0.79018   0.00000  Uiso   1.00
C1215  C     0.47490   0.85893   0.95532   0.00000  Uiso   1.00
C1216  C     0.57714   0.82232   0.52488   0.00000  Uiso   1.00
C1217  C     0.42649   0.86451   0.97807   0.00000  Uiso   1.00
C1218  C     0.64171   0.68684   0.72218   0.00000  Uiso   1.00
C1219  C     0.35827   0.97982   0.77784   0.00000  Uiso   1.00
C1220  C     0.64154   0.97736   0.72507   0.00000  Uiso   1.00
Cu1221 Cu    0.38022   0.83334   0.75000   0.00000  Uiso   1.00
Cu1222 Cu    0.61978   0.83333   0.75000   0.00000  Uiso   1.00
H1223  H     0.60272   0.81442   0.54385   0.00000  Uiso   1.00
H1224  H     0.48444   0.86758   0.92049   0.00000  Uiso   1.00
H1225  H     0.62291   0.95955   0.70502   0.00000  Uiso   1.00
H1226  H     0.37709   0.70710   0.79499   0.00000  Uiso   1.00
H1227  H     0.52763   0.79051   0.80367   0.00000  Uiso   1.00
H1228  H     0.47238   0.87614   0.69631   0.00000  Uiso   1.00
H1229  H     0.44065   0.79061   0.80369   0.00000  Uiso   1.00
H1230  H     0.55936   0.87605   0.69630   0.00000  Uiso   1.00
H1231  H     0.54648   0.67680   0.71651   0.00000  Uiso   1.00
H1232  H     0.55312   0.72589   0.74185   0.00000  Uiso   1.00
H1233  H     0.54483   0.72413   0.68619   0.00000  Uiso   1.00
H1234  H     0.40165   0.87596   0.95982   0.00000  Uiso   1.00
H1235  H     0.63133   0.73789   0.67938   0.00000  Uiso   1.00
H1236  H     0.62460   0.68820   0.65841   0.00000  Uiso   1.00
H1237  H     0.45346   0.98980   0.78355   0.00000  Uiso   1.00
H1238  H     0.44684   0.94063   0.75833   0.00000  Uiso   1.00
H1239  H     0.45505   0.94254   0.81402   0.00000  Uiso   1.00
H1240  H     0.37529   0.97845   0.84166   0.00000  Uiso   1.00
H1241  H     0.36855   0.92877   0.82069   0.00000  Uiso   1.00
H1242  H     0.44696   0.81798   0.61186   0.00000  Uiso   1.00
H1243  H     0.55123   0.84511   0.88697   0.00000  Uiso   1.00
H1244  H     0.63933   0.85859   0.60824   0.00000  Uiso   1.00
H1245  H     0.36227   0.81823   0.89340   0.00000  Uiso   1.00
H1246  H     0.33431   0.81234   0.97482   0.00000  Uiso   1.00
H1247  H     0.33571   0.87293   0.52805   0.00000  Uiso   1.00
H1248  H     0.52022   0.82369   0.58327   0.00000  Uiso   1.00
N1249  N     0.45069   0.83334   0.74999   0.00000  Uiso   1.00
N1250  N     0.54931   0.83332   0.75001   0.00000  Uiso   1.00
O1251  O     0.37291   0.77322   0.75000   0.00000  Uiso   1.00
O1252  O     0.62709   0.89345   0.75000   0.00000  Uiso   1.00
O1253  O     0.62706   0.77321   0.75000   0.00000  Uiso   1.00
O1254  O     0.37294   0.89346   0.74999   0.00000  Uiso   1.00
O1255  O     0.35186   0.83334   0.81491   0.00000  Uiso   1.00
O1256  O     0.64814   0.83332   0.68508   0.00000  Uiso   1.00
O1257  O     0.60600   0.83333   0.81492   0.00000  Uiso   1.00
O1258  O     0.39400   0.83333   0.68508   0.00000  Uiso   1.00
C1259  C     0.66692   0.75412   0.74857   0.00000  Uiso   1.00
C1260  C     0.69180   0.68930   0.77494   0.00000  Uiso   1.00
C1261  C     0.99975   0.95717   0.75213   0.00000  Uiso   1.00
C1262  C     0.66692   0.70950   0.74788   0.00000  Uiso   1.00
C1263  C     0.84932   0.80962   0.77984   0.00000  Uiso   1.00
C1264  C     0.81735   0.85704   0.72015   0.00000  Uiso   1.00
C1265  C     0.79972   0.80964   0.77984   0.00000  Uiso   1.00
C1266  C     0.86695   0.85702   0.72015   0.00000  Uiso   1.00
C1267  C     0.97276   0.83324   0.83608   0.00000  Uiso   1.00
C1268  C     0.69391   0.83390   0.66395   0.00000  Uiso   1.00
C1269  C     0.95783   0.83259   0.88520   0.00000  Uiso   1.00
C1270  C     0.99974   0.91255   0.75144   0.00000  Uiso   1.00
C1271  C     0.70907   0.83820   0.61509   0.00000  Uiso   1.00
C1272  C     0.97504   0.82051   0.95636   0.00000  Uiso   1.00
C1273  C     0.69417   0.86116   0.54577   0.00000  Uiso   1.00
C1274  C     0.99101   0.82377   0.90994   0.00000  Uiso   1.00
C1275  C     0.67710   0.85273   0.59138   0.00000  Uiso   1.00
C1276  C     0.90900   0.83948   0.90735   0.00000  Uiso   1.00
C1277  C     0.75776   0.83123   0.59269   0.00000  Uiso   1.00
C1278  C     0.89212   0.83749   0.95428   0.00000  Uiso   1.00
C1279  C     0.77641   0.84109   0.54711   0.00000  Uiso   1.00
C1280  C     0.92594   0.82688   0.97862   0.00000  Uiso   1.00
C1281  C     0.86191   0.82713   0.54746   0.00000  Uiso   1.00
C1282  C     0.74340   0.85547   0.52351   0.00000  Uiso   1.00
C1283  C     0.84246   0.84440   0.97745   0.00000  Uiso   1.00
C1284  C     0.82670   0.83714   0.52448   0.00000  Uiso   1.00
C1285  C     0.95022   0.70654   0.68979   0.00000  Uiso   1.00
C1286  C     0.89528   0.70842   0.70995   0.00000  Uiso   1.00
C1287  C     0.71636   0.96011   0.81028   0.00000  Uiso   1.00
C1288  C     0.77131   0.95818   0.79018   0.00000  Uiso   1.00
C1289  C     0.80824   0.85893   0.95532   0.00000  Uiso   1.00
C1290  C     0.91048   0.82232   0.52488   0.00000  Uiso   1.00
C1291  C     0.75982   0.86451   0.97807   0.00000  Uiso   1.00
C1292  C     0.97504   0.68684   0.72218   0.00000  Uiso   1.00
C1293  C     0.69161   0.97982   0.77784   0.00000  Uiso   1.00
C1294  C     0.97487   0.97736   0.72507   0.00000  Uiso   1.00
Cu1295 Cu    0.71355   0.83334   0.75000   0.00000  Uiso   1.00
Cu1296 Cu    0.95311   0.83333   0.75000   0.00000  Uiso   1.00
H1297  H     0.93606   0.81442   0.54385   0.00000  Uiso   1.00
H1298  H     0.81777   0.86758   0.92049   0.00000  Uiso   1.00
H1299  H     0.95624   0.95955   0.70502   0.00000  Uiso   1.00
H1300  H     0.71043   0.70710   0.79499   0.00000  Uiso   1.00
H1301  H     0.86096   0.79051   0.80367   0.00000  Uiso   1.00
H1302  H     0.80571   0.87614   0.69631   0.00000  Uiso   1.00
H1303  H     0.77398   0.79061   0.80369   0.00000  Uiso   1.00
H1304  H     0.89269   0.87605   0.69630   0.00000  Uiso   1.00
H1305  H     0.87981   0.67680   0.71651   0.00000  Uiso   1.00
H1306  H     0.88645   0.72589   0.74185   0.00000  Uiso   1.00
H1307  H     0.87817   0.72413   0.68619   0.00000  Uiso   1.00
H1308  H     0.73498   0.87596   0.95982   0.00000  Uiso   1.00
H1309  H     0.96467   0.73789   0.67938   0.00000  Uiso   1.00
H1310  H     0.95794   0.68820   0.65841   0.00000  Uiso   1.00
H1311  H     0.78679   0.98980   0.78355   0.00000  Uiso   1.00
H1312  H     0.78018   0.94063   0.75833   0.00000  Uiso   1.00
H1313  H     0.78838   0.94254   0.81402   0.00000  Uiso   1.00
H1314  H     0.70862   0.97845   0.84166   0.00000  Uiso   1.00
H1315  H     0.70188   0.92877   0.82069   0.00000  Uiso   1.00
H1316  H     0.78029   0.81798   0.61186   0.00000  Uiso   1.00
H1317  H     0.88456   0.84511   0.88697   0.00000  Uiso   1.00
H1318  H     0.97266   0.85859   0.60824   0.00000  Uiso   1.00
H1319  H     0.69560   0.81823   0.89340   0.00000  Uiso   1.00
H1320  H     0.66764   0.81234   0.97482   0.00000  Uiso   1.00
H1321  H     0.66905   0.87293   0.52805   0.00000  Uiso   1.00
H1322  H     0.85355   0.82369   0.58327   0.00000  Uiso   1.00
N1323  N     0.78403   0.83334   0.74999   0.00000  Uiso   1.00
N1324  N     0.88264   0.83332   0.75001   0.00000  Uiso   1.00
O1325  O     0.70625   0.77322   0.75000   0.00000  Uiso   1.00
O1326  O     0.96042   0.89345   0.75000   0.00000  Uiso   1.00
O1327  O     0.96039   0.77321   0.75000   0.00000  Uiso   1.00
O1328  O     0.70628   0.89346   0.74999   0.00000  Uiso   1.00
O1329  O     0.68519   0.83334   0.81491   0.00000  Uiso   1.00
O1330  O     0.98148   0.83332   0.68508   0.00000  Uiso   1.00
O1331  O     0.93933   0.83333   0.81492   0.00000  Uiso   1.00
O1332  O     0.72733   0.83333   0.68508   0.00000  Uiso   1.00
loop_
_geom_bond_atom_site_label_1
_geom_bond_atom_site_label_2
_geom_bond_distance
_geom_bond_site_symmetry_2
_ccdc_geom_bond_type
C1     C4      1.447   .     S
C1     O67     1.291   .     A
C1     O217    1.288   1_455 S
C2     C4      1.399   .     A
C2     H42     1.085   .     S
C2     C479    1.390   1_545 S
C3     C12     1.446   .     S
C3     C36     1.399   .     A
C3     C109    1.413   .     S
C4     C182    1.413   1_455 S
C5     H43     1.082   .     S
C5     C7      1.416   .     A
C5     N66     1.367   .     A
C6     N65     1.367   .     A
C6     H44     1.082   .     S
C6     C8      1.416   .     A
C7     H45     1.082   .     S
C7     N65     1.367   .     A
C8     N66     1.367   .     A
C8     H46     1.082   .     S
C9     O73     1.295   .     A
C9     C11     1.467   .     S
C9     O145    1.296   .     S
C10    C13     1.466   .     S
C10    O74     1.294   .     A
C10    O220    1.296   1_455 S
C11    C18     1.399   .     A
C11    C16     1.399   .     A
C12    O68     1.291   .     A
C12    O144    1.288   .     S
C13    C19     1.398   .     A
C13    C17     1.399   .     A
C14    C16     1.391   .     A
C14    C22     1.404   .     A
C14    H136    1.083   .     S
C15    C24     1.404   .     A
C15    C17     1.392   .     A
C15    H63     1.084   .     S
C16    H135    1.083   .     S
C17    H208    1.083   1_455 S
C18    C20     1.405   .     A
C18    H59     1.075   .     S
C19    C21     1.405   .     A
C19    H58     1.075   .     S
C20    C25     1.427   .     A
C20    C22     1.418   .     A
C21    C26     1.426   .     A
C21    C24     1.418   .     A
C22    C698    1.390   .     S
C23    C26     1.417   .     A
C23    H64     1.076   .     S
C23    C32     1.386   .     A
C24    C699    1.390   1_554 S
C25    C31     1.417   .     A
C25    C692    1.424   .     S
C26    C691    1.424   1_554 S
C27    H51     1.109   .     S
C27    C34     1.516   .     S
C27    H52     1.112   .     S
C27    C28     1.527   .     S
C28    H47     1.111   .     S
C28    H49     1.110   .     S
C28    H48     1.110   .     S
C29    C30     1.527   .     S
C29    H57     1.109   .     S
C29    H56     1.112   .     S
C29    C35     1.516   .     S
C30    H53     1.111   .     S
C30    H54     1.110   .     S
C30    H55     1.111   .     S
C31    H40     1.076   .     S
C31    C33     1.387   .     A
C32    H39     1.084   .     S
C32    C688    1.390   1_554 S
C33    H50     1.084   .     S
C33    C690    1.390   .     S
C34    C78     1.413   .     S
C34    C480    1.390   1_545 S
C35    C224    1.390   .     S
C35    C151    1.413   1_455 S
C36    H41     1.085   .     S
C36    C256    1.390   .     S
Cu37   O74     1.944   .     S
Cu37   N65     2.012   .     S
Cu37   O70     1.960   .     S
Cu37   O71     1.957   .     S
Cu37   O67     1.959   .     S
Cu37   Cu186   2.678   1_455 S
Cu38   O68     1.959   .     S
Cu38   N66     2.012   .     S
Cu38   O69     1.960   .     S
Cu38   O72     1.957   .     S
Cu38   O73     1.944   .     S
Cu38   Cu111   2.678   .     S
H60    C91     1.083   .     S
H61    C164    1.083   1_455 S
H62    C162    1.083   1_455 S
O69    C75     1.288   .     S
O70    C160    1.288   1_455 S
O71    C157    1.296   1_455 S
O72    C84     1.296   .     S
C75    C78     1.447   .     S
C75    O141    1.291   .     A
C76    C78     1.399   .     A
C76    H116    1.085   .     S
C76    C553    1.390   1_545 S
C77    C86     1.446   .     S
C77    C110    1.399   .     A
C77    C183    1.413   .     S
C79    H117    1.082   .     S
C79    C81     1.416   .     A
C79    N140    1.367   .     A
C80    N139    1.367   .     A
C80    H118    1.082   .     S
C80    C82     1.416   .     A
C81    H119    1.082   .     S
C81    N139    1.367   .     A
C82    N140    1.367   .     A
C82    H120    1.082   .     S
C83    O147    1.295   .     A
C83    C85     1.467   .     S
C83    O219    1.296   .     S
C84    C87     1.466   .     S
C84    O148    1.294   .     A
C85    C92     1.399   .     A
C85    C90     1.399   .     A
C86    O142    1.291   .     A
C86    O218    1.288   .     S
C87    C93     1.398   .     A
C87    C91     1.399   .     A
C88    C90     1.391   .     A
C88    C96     1.404   .     A
C88    H210    1.083   .     S
C89    C98     1.404   .     A
C89    C91     1.392   .     A
C89    H137    1.084   .     S
C90    H209    1.083   .     S
C92    C94     1.405   .     A
C92    H133    1.075   .     S
C93    C95     1.405   .     A
C93    H132    1.075   .     S
C94    C99     1.427   .     A
C94    C96     1.418   .     A
C95    C100    1.426   .     A
C95    C98     1.418   .     A
C96    C772    1.390   .     S
C97    C100    1.417   .     A
C97    H138    1.076   .     S
C97    C106    1.386   .     A
C98    C773    1.390   1_554 S
C99    C105    1.417   .     A
C99    C766    1.424   .     S
C100   C765    1.424   1_554 S
C101   H125    1.109   .     S
C101   C108    1.516   .     S
C101   H126    1.112   .     S
C101   C102    1.527   .     S
C102   H121    1.111   .     S
C102   H123    1.110   .     S
C102   H122    1.110   .     S
C103   C104    1.527   .     S
C103   H131    1.109   .     S
C103   H130    1.112   .     S
C103   C109    1.516   .     S
C104   H127    1.111   .     S
C104   H128    1.110   .     S
C104   H129    1.111   .     S
C105   H114    1.076   .     S
C105   C107    1.387   .     A
C106   H113    1.084   .     S
C106   C762    1.390   1_554 S
C107   H124    1.084   .     S
C107   C764    1.390   .     S
C108   C152    1.413   .     S
C108   C554    1.390   1_545 S
C109   C298    1.390   .     S
C110   H115    1.085   .     S
C110   C330    1.390   .     S
Cu111  O148    1.944   .     S
Cu111  N139    2.012   .     S
Cu111  O144    1.960   .     S
Cu111  O145    1.957   .     S
Cu111  O141    1.959   .     S
Cu112  O142    1.959   .     S
Cu112  N140    2.012   .     S
Cu112  O143    1.960   .     S
Cu112  O146    1.957   .     S
Cu112  O147    1.944   .     S
Cu112  Cu185   2.678   .     S
H134   C165    1.083   .     S
O143   C149    1.288   .     S
O146   C158    1.296   .     S
C149   C152    1.447   .     S
C149   O215    1.291   .     A
C150   C152    1.399   .     A
C150   H190    1.085   .     S
C150   C627    1.390   1_545 S
C151   C160    1.446   .     S
C151   C184    1.399   .     A
C151   C35     1.413   1_655 S
C153   H191    1.082   .     S
C153   C155    1.416   .     A
C153   N214    1.367   .     A
C154   N213    1.367   .     A
C154   H192    1.082   .     S
C154   C156    1.416   .     A
C155   H193    1.082   .     S
C155   N213    1.367   .     A
C156   N214    1.367   .     A
C156   H194    1.082   .     S
C157   O221    1.295   .     A
C157   C159    1.467   .     S
C157   O71     1.296   1_655 S
C158   C161    1.466   .     S
C158   O222    1.294   .     A
C159   C166    1.399   .     A
C159   C164    1.399   .     A
C160   O216    1.291   .     A
C160   O70     1.288   1_655 S
C161   C167    1.398   .     A
C161   C165    1.399   .     A
C162   C164    1.391   .     A
C162   C170    1.404   .     A
C162   H62     1.083   1_655 S
C163   C172    1.404   .     A
C163   C165    1.392   .     A
C163   H211    1.084   .     S
C164   H61     1.083   1_655 S
C166   C168    1.405   .     A
C166   H207    1.075   .     S
C167   C169    1.405   .     A
C167   H206    1.075   .     S
C168   C173    1.427   .     A
C168   C170    1.418   .     A
C169   C174    1.426   .     A
C169   C172    1.418   .     A
C170   C846    1.390   .     S
C171   C174    1.417   .     A
C171   H212    1.076   .     S
C171   C180    1.386   .     A
C172   C847    1.390   1_554 S
C173   C179    1.417   .     A
C173   C840    1.424   .     S
C174   C839    1.424   1_554 S
C175   H199    1.109   .     S
C175   C182    1.516   .     S
C175   H200    1.112   .     S
C175   C176    1.527   .     S
C176   H195    1.111   .     S
C176   H197    1.110   .     S
C176   H196    1.110   .     S
C177   C178    1.527   .     S
C177   H205    1.109   .     S
C177   H204    1.112   .     S
C177   C183    1.516   .     S
C178   H201    1.111   .     S
C178   H202    1.110   .     S
C178   H203    1.111   .     S
C179   H188    1.076   .     S
C179   C181    1.387   .     A
C180   H187    1.084   .     S
C180   C836    1.390   1_554 S
C181   H198    1.084   .     S
C181   C838    1.390   .     S
C182   C4      1.413   1_655 S
C182   C628    1.390   1_545 S
C183   C372    1.390   .     S
C184   H189    1.085   .     S
C184   C404    1.390   .     S
Cu185  O222    1.944   .     S
Cu185  N213    2.012   .     S
Cu185  O218    1.960   .     S
Cu185  O219    1.957   .     S
Cu185  O215    1.959   .     S
Cu186  O216    1.959   .     S
Cu186  N214    2.012   .     S
Cu186  O217    1.960   .     S
Cu186  O220    1.957   .     S
Cu186  O221    1.944   .     S
Cu186  Cu37    2.678   1_655 S
H208   C17     1.083   1_655 S
O217   C1      1.288   1_655 S
O220   C10     1.296   1_655 S
C223   C226    1.447   .     S
C223   O289    1.291   .     A
C223   O439    1.288   1_455 S
C224   C226    1.399   .     A
C224   H264    1.085   .     S
C225   C234    1.446   .     S
C225   C258    1.399   .     A
C225   C331    1.413   .     S
C226   C404    1.413   1_455 S
C227   H265    1.082   .     S
C227   C229    1.416   .     A
C227   N288    1.367   .     A
C228   N287    1.367   .     A
C228   H266    1.082   .     S
C228   C230    1.416   .     A
C229   H267    1.082   .     S
C229   N287    1.367   .     A
C230   N288    1.367   .     A
C230   H268    1.082   .     S
C231   O295    1.295   .     A
C231   C233    1.467   .     S
C231   O367    1.296   .     S
C232   C235    1.466   .     S
C232   O296    1.294   .     A
C232   O442    1.296   1_455 S
C233   C240    1.399   .     A
C233   C238    1.399   .     A
C234   O290    1.291   .     A
C234   O366    1.288   .     S
C235   C241    1.398   .     A
C235   C239    1.399   .     A
C236   C238    1.391   .     A
C236   C244    1.404   .     A
C236   H358    1.083   .     S
C237   C246    1.404   .     A
C237   C239    1.392   .     A
C237   H285    1.084   .     S
C238   H357    1.083   .     S
C239   H430    1.083   1_455 S
C240   C242    1.405   .     A
C240   H281    1.075   .     S
C241   C243    1.405   .     A
C241   H280    1.075   .     S
C242   C247    1.427   .     A
C242   C244    1.418   .     A
C243   C248    1.426   .     A
C243   C246    1.418   .     A
C244   C920    1.390   .     S
C245   C248    1.417   .     A
C245   H286    1.076   .     S
C245   C254    1.386   .     A
C246   C921    1.390   1_554 S
C247   C253    1.417   .     A
C247   C914    1.424   .     S
C248   C913    1.424   1_554 S
C249   H273    1.109   .     S
C249   C256    1.516   .     S
C249   H274    1.112   .     S
C249   C250    1.527   .     S
C250   H269    1.111   .     S
C250   H271    1.110   .     S
C250   H270    1.110   .     S
C251   C252    1.527   .     S
C251   H279    1.109   .     S
C251   H278    1.112   .     S
C251   C257    1.516   .     S
C252   H275    1.111   .     S
C252   H276    1.110   .     S
C252   H277    1.111   .     S
C253   H262    1.076   .     S
C253   C255    1.387   .     A
C254   H261    1.084   .     S
C254   C910    1.390   1_554 S
C255   H272    1.084   .     S
C255   C912    1.390   .     S
C256   C300    1.413   .     S
C257   C446    1.390   .     S
C257   C373    1.413   1_455 S
C258   H263    1.085   .     S
C258   C478    1.390   .     S
Cu259  O296    1.944   .     S
Cu259  N287    2.012   .     S
Cu259  O292    1.960   .     S
Cu259  O293    1.957   .     S
Cu259  O289    1.959   .     S
Cu259  Cu408   2.678   1_455 S
Cu260  O290    1.959   .     S
Cu260  N288    2.012   .     S
Cu260  O291    1.960   .     S
Cu260  O294    1.957   .     S
Cu260  O295    1.944   .     S
Cu260  Cu333   2.678   .     S
H282   C313    1.083   .     S
H283   C386    1.083   1_455 S
H284   C384    1.083   1_455 S
O291   C297    1.288   .     S
O292   C382    1.288   1_455 S
O293   C379    1.296   1_455 S
O294   C306    1.296   .     S
C297   C300    1.447   .     S
C297   O363    1.291   .     A
C298   C300    1.399   .     A
C298   H338    1.085   .     S
C299   C308    1.446   .     S
C299   C332    1.399   .     A
C299   C405    1.413   .     S
C301   H339    1.082   .     S
C301   C303    1.416   .     A
C301   N362    1.367   .     A
C302   N361    1.367   .     A
C302   H340    1.082   .     S
C302   C304    1.416   .     A
C303   H341    1.082   .     S
C303   N361    1.367   .     A
C304   N362    1.367   .     A
C304   H342    1.082   .     S
C305   O369    1.295   .     A
C305   C307    1.467   .     S
C305   O441    1.296   .     S
C306   C309    1.466   .     S
C306   O370    1.294   .     A
C307   C314    1.399   .     A
C307   C312    1.399   .     A
C308   O364    1.291   .     A
C308   O440    1.288   .     S
C309   C315    1.398   .     A
C309   C313    1.399   .     A
C310   C312    1.391   .     A
C310   C318    1.404   .     A
C310   H432    1.083   .     S
C311   C320    1.404   .     A
C311   C313    1.392   .     A
C311   H359    1.084   .     S
C312   H431    1.083   .     S
C314   C316    1.405   .     A
C314   H355    1.075   .     S
C315   C317    1.405   .     A
C315   H354    1.075   .     S
C316   C321    1.427   .     A
C316   C318    1.418   .     A
C317   C322    1.426   .     A
C317   C320    1.418   .     A
C318   C994    1.390   .     S
C319   C322    1.417   .     A
C319   H360    1.076   .     S
C319   C328    1.386   .     A
C320   C995    1.390   1_554 S
C321   C327    1.417   .     A
C321   C988    1.424   .     S
C322   C987    1.424   1_554 S
C323   H347    1.109   .     S
C323   C330    1.516   .     S
C323   H348    1.112   .     S
C323   C324    1.527   .     S
C324   H343    1.111   .     S
C324   H345    1.110   .     S
C324   H344    1.110   .     S
C325   C326    1.527   .     S
C325   H353    1.109   .     S
C325   H352    1.112   .     S
C325   C331    1.516   .     S
C326   H349    1.111   .     S
C326   H350    1.110   .     S
C326   H351    1.111   .     S
C327   H336    1.076   .     S
C327   C329    1.387   .     A
C328   H335    1.084   .     S
C328   C984    1.390   1_554 S
C329   H346    1.084   .     S
C329   C986    1.390   .     S
C330   C374    1.413   .     S
C331   C520    1.390   .     S
C332   H337    1.085   .     S
C332   C552    1.390   .     S
Cu333  O370    1.944   .     S
Cu333  N361    2.012   .     S
Cu333  O366    1.960   .     S
Cu333  O367    1.957   .     S
Cu333  O363    1.959   .     S
Cu334  O364    1.959   .     S
Cu334  N362    2.012   .     S
Cu334  O365    1.960   .     S
Cu334  O368    1.957   .     S
Cu334  O369    1.944   .     S
Cu334  Cu407   2.678   .     S
H356   C387    1.083   .     S
O365   C371    1.288   .     S
O368   C380    1.296   .     S
C371   C374    1.447   .     S
C371   O437    1.291   .     A
C372   C374    1.399   .     A
C372   H412    1.085   .     S
C373   C382    1.446   .     S
C373   C406    1.399   .     A
C373   C257    1.413   1_655 S
C375   H413    1.082   .     S
C375   C377    1.416   .     A
C375   N436    1.367   .     A
C376   N435    1.367   .     A
C376   H414    1.082   .     S
C376   C378    1.416   .     A
C377   H415    1.082   .     S
C377   N435    1.367   .     A
C378   N436    1.367   .     A
C378   H416    1.082   .     S
C379   O443    1.295   .     A
C379   C381    1.467   .     S
C379   O293    1.296   1_655 S
C380   C383    1.466   .     S
C380   O444    1.294   .     A
C381   C388    1.399   .     A
C381   C386    1.399   .     A
C382   O438    1.291   .     A
C382   O292    1.288   1_655 S
C383   C389    1.398   .     A
C383   C387    1.399   .     A
C384   C386    1.391   .     A
C384   C392    1.404   .     A
C384   H284    1.083   1_655 S
C385   C394    1.404   .     A
C385   C387    1.392   .     A
C385   H433    1.084   .     S
C386   H283    1.083   1_655 S
C388   C390    1.405   .     A
C388   H429    1.075   .     S
C389   C391    1.405   .     A
C389   H428    1.075   .     S
C390   C395    1.427   .     A
C390   C392    1.418   .     A
C391   C396    1.426   .     A
C391   C394    1.418   .     A
C392   C1068   1.390   .     S
C393   C396    1.417   .     A
C393   H434    1.076   .     S
C393   C402    1.386   .     A
C394   C1069   1.390   1_554 S
C395   C401    1.417   .     A
C395   C1062   1.424   .     S
C396   C1061   1.424   1_554 S
C397   H421    1.109   .     S
C397   C404    1.516   .     S
C397   H422    1.112   .     S
C397   C398    1.527   .     S
C398   H417    1.111   .     S
C398   H419    1.110   .     S
C398   H418    1.110   .     S
C399   C400    1.527   .     S
C399   H427    1.109   .     S
C399   H426    1.112   .     S
C399   C405    1.516   .     S
C400   H423    1.111   .     S
C400   H424    1.110   .     S
C400   H425    1.111   .     S
C401   H410    1.076   .     S
C401   C403    1.387   .     A
C402   H409    1.084   .     S
C402   C1058   1.390   1_554 S
C403   H420    1.084   .     S
C403   C1060   1.390   .     S
C404   C226    1.413   1_655 S
C405   C594    1.390   .     S
C406   H411    1.085   .     S
C406   C626    1.390   .     S
Cu407  O444    1.944   .     S
Cu407  N435    2.012   .     S
Cu407  O440    1.960   .     S
Cu407  O441    1.957   .     S
Cu407  O437    1.959   .     S
Cu408  O438    1.959   .     S
Cu408  N436    2.012   .     S
Cu408  O439    1.960   .     S
Cu408  O442    1.957   .     S
Cu408  O443    1.944   .     S
Cu408  Cu259   2.678   1_655 S
H430   C239    1.083   1_655 S
O439   C223    1.288   1_655 S
O442   C232    1.296   1_655 S
C445   C448    1.447   .     S
C445   O511    1.291   .     A
C445   O661    1.288   1_455 S
C446   C448    1.399   .     A
C446   H486    1.085   .     S
C447   C456    1.446   .     S
C447   C480    1.399   .     A
C447   C553    1.413   .     S
C448   C626    1.413   1_455 S
C449   H487    1.082   .     S
C449   C451    1.416   .     A
C449   N510    1.367   .     A
C450   N509    1.367   .     A
C450   H488    1.082   .     S
C450   C452    1.416   .     A
C451   H489    1.082   .     S
C451   N509    1.367   .     A
C452   N510    1.367   .     A
C452   H490    1.082   .     S
C453   O517    1.295   .     A
C453   C455    1.467   .     S
C453   O589    1.296   .     S
C454   C457    1.466   .     S
C454   O518    1.294   .     A
C454   O664    1.296   1_455 S
C455   C462    1.399   .     A
C455   C460    1.399   .     A
C456   O512    1.291   .     A
C456   O588    1.288   .     S
C457   C463    1.398   .     A
C457   C461    1.399   .     A
C458   C460    1.391   .     A
C458   C466    1.404   .     A
C458   H580    1.083   .     S
C459   C468    1.404   .     A
C459   C461    1.392   .     A
C459   H507    1.084   .     S
C460   H579    1.083   .     S
C461   H652    1.083   1_455 S
C462   C464    1.405   .     A
C462   H503    1.075   .     S
C463   C465    1.405   .     A
C463   H502    1.075   .     S
C464   C469    1.427   .     A
C464   C466    1.418   .     A
C465   C470    1.426   .     A
C465   C468    1.418   .     A
C466   C1142   1.390   .     S
C467   C470    1.417   .     A
C467   H508    1.076   .     S
C467   C476    1.386   .     A
C468   C1143   1.390   1_554 S
C469   C475    1.417   .     A
C469   C1136   1.424   .     S
C470   C1135   1.424   1_554 S
C471   H495    1.109   .     S
C471   C478    1.516   .     S
C471   H496    1.112   .     S
C471   C472    1.527   .     S
C472   H491    1.111   .     S
C472   H493    1.110   .     S
C472   H492    1.110   .     S
C473   C474    1.527   .     S
C473   H501    1.109   .     S
C473   H500    1.112   .     S
C473   C479    1.516   .     S
C474   H497    1.111   .     S
C474   H498    1.110   .     S
C474   H499    1.111   .     S
C475   H484    1.076   .     S
C475   C477    1.387   .     A
C476   H483    1.084   .     S
C476   C1132   1.390   1_554 S
C477   H494    1.084   .     S
C477   C1134   1.390   .     S
C478   C522    1.413   .     S
C479   C2      1.390   1_565 S
C479   C595    1.413   1_455 S
C480   H485    1.085   .     S
C480   C34     1.390   1_565 S
Cu481  O518    1.944   .     S
Cu481  N509    2.012   .     S
Cu481  O514    1.960   .     S
Cu481  O515    1.957   .     S
Cu481  O511    1.959   .     S
Cu481  Cu630   2.678   1_455 S
Cu482  O512    1.959   .     S
Cu482  N510    2.012   .     S
Cu482  O513    1.960   .     S
Cu482  O516    1.957   .     S
Cu482  O517    1.944   .     S
Cu482  Cu555   2.678   .     S
H504   C535    1.083   .     S
H505   C608    1.083   1_455 S
H506   C606    1.083   1_455 S
O513   C519    1.288   .     S
O514   C604    1.288   1_455 S
O515   C601    1.296   1_455 S
O516   C528    1.296   .     S
C519   C522    1.447   .     S
C519   O585    1.291   .     A
C520   C522    1.399   .     A
C520   H560    1.085   .     S
C521   C530    1.446   .     S
C521   C554    1.399   .     A
C521   C627    1.413   .     S
C523   H561    1.082   .     S
C523   C525    1.416   .     A
C523   N584    1.367   .     A
C524   N583    1.367   .     A
C524   H562    1.082   .     S
C524   C526    1.416   .     A
C525   H563    1.082   .     S
C525   N583    1.367   .     A
C526   N584    1.367   .     A
C526   H564    1.082   .     S
C527   O591    1.295   .     A
C527   C529    1.467   .     S
C527   O663    1.296   .     S
C528   C531    1.466   .     S
C528   O592    1.294   .     A
C529   C536    1.399   .     A
C529   C534    1.399   .     A
C530   O586    1.291   .     A
C530   O662    1.288   .     S
C531   C537    1.398   .     A
C531   C535    1.399   .     A
C532   C534    1.391   .     A
C532   C540    1.404   .     A
C532   H654    1.083   .     S
C533   C542    1.404   .     A
C533   C535    1.392   .     A
C533   H581    1.084   .     S
C534   H653    1.083   .     S
C536   C538    1.405   .     A
C536   H577    1.075   .     S
C537   C539    1.405   .     A
C537   H576    1.075   .     S
C538   C543    1.427   .     A
C538   C540    1.418   .     A
C539   C544    1.426   .     A
C539   C542    1.418   .     A
C540   C1216   1.390   .     S
C541   C544    1.417   .     A
C541   H582    1.076   .     S
C541   C550    1.386   .     A
C542   C1217   1.390   1_554 S
C543   C549    1.417   .     A
C543   C1210   1.424   .     S
C544   C1209   1.424   1_554 S
C545   H569    1.109   .     S
C545   C552    1.516   .     S
C545   H570    1.112   .     S
C545   C546    1.527   .     S
C546   H565    1.111   .     S
C546   H567    1.110   .     S
C546   H566    1.110   .     S
C547   C548    1.527   .     S
C547   H575    1.109   .     S
C547   H574    1.112   .     S
C547   C553    1.516   .     S
C548   H571    1.111   .     S
C548   H572    1.110   .     S
C548   H573    1.111   .     S
C549   H558    1.076   .     S
C549   C551    1.387   .     A
C550   H557    1.084   .     S
C550   C1206   1.390   1_554 S
C551   H568    1.084   .     S
C551   C1208   1.390   .     S
C552   C596    1.413   .     S
C553   C76     1.390   1_565 S
C554   H559    1.085   .     S
C554   C108    1.390   1_565 S
Cu555  O592    1.944   .     S
Cu555  N583    2.012   .     S
Cu555  O588    1.960   .     S
Cu555  O589    1.957   .     S
Cu555  O585    1.959   .     S
Cu556  O586    1.959   .     S
Cu556  N584    2.012   .     S
Cu556  O587    1.960   .     S
Cu556  O590    1.957   .     S
Cu556  O591    1.944   .     S
Cu556  Cu629   2.678   .     S
H578   C609    1.083   .     S
O587   C593    1.288   .     S
O590   C602    1.296   .     S
C593   C596    1.447   .     S
C593   O659    1.291   .     A
C594   C596    1.399   .     A
C594   H634    1.085   .     S
C595   C604    1.446   .     S
C595   C628    1.399   .     A
C595   C479    1.413   1_655 S
C597   H635    1.082   .     S
C597   C599    1.416   .     A
C597   N658    1.367   .     A
C598   N657    1.367   .     A
C598   H636    1.082   .     S
C598   C600    1.416   .     A
C599   H637    1.082   .     S
C599   N657    1.367   .     A
C600   N658    1.367   .     A
C600   H638    1.082   .     S
C601   O665    1.295   .     A
C601   C603    1.467   .     S
C601   O515    1.296   1_655 S
C602   C605    1.466   .     S
C602   O666    1.294   .     A
C603   C610    1.399   .     A
C603   C608    1.399   .     A
C604   O660    1.291   .     A
C604   O514    1.288   1_655 S
C605   C611    1.398   .     A
C605   C609    1.399   .     A
C606   C608    1.391   .     A
C606   C614    1.404   .     A
C606   H506    1.083   1_655 S
C607   C616    1.404   .     A
C607   C609    1.392   .     A
C607   H655    1.084   .     S
C608   H505    1.083   1_655 S
C610   C612    1.405   .     A
C610   H651    1.075   .     S
C611   C613    1.405   .     A
C611   H650    1.075   .     S
C612   C617    1.427   .     A
C612   C614    1.418   .     A
C613   C618    1.426   .     A
C613   C616    1.418   .     A
C614   C1290   1.390   .     S
C615   C618    1.417   .     A
C615   H656    1.076   .     S
C615   C624    1.386   .     A
C616   C1291   1.390   1_554 S
C617   C623    1.417   .     A
C617   C1284   1.424   .     S
C618   C1283   1.424   1_554 S
C619   H643    1.109   .     S
C619   C626    1.516   .     S
C619   H644    1.112   .     S
C619   C620    1.527   .     S
C620   H639    1.111   .     S
C620   H641    1.110   .     S
C620   H640    1.110   .     S
C621   C622    1.527   .     S
C621   H649    1.109   .     S
C621   H648    1.112   .     S
C621   C627    1.516   .     S
C622   H645    1.111   .     S
C622   H646    1.110   .     S
C622   H647    1.111   .     S
C623   H632    1.076   .     S
C623   C625    1.387   .     A
C624   H631    1.084   .     S
C624   C1280   1.390   1_554 S
C625   H642    1.084   .     S
C625   C1282   1.390   .     S
C626   C448    1.413   1_655 S
C627   C150    1.390   1_565 S
C628   H633    1.085   .     S
C628   C182    1.390   1_565 S
Cu629  O666    1.944   .     S
Cu629  N657    2.012   .     S
Cu629  O662    1.960   .     S
Cu629  O663    1.957   .     S
Cu629  O659    1.959   .     S
Cu630  O660    1.959   .     S
Cu630  N658    2.012   .     S
Cu630  O661    1.960   .     S
Cu630  O664    1.957   .     S
Cu630  O665    1.944   .     S
Cu630  Cu481   2.678   1_655 S
H652   C461    1.083   1_655 S
O661   C445    1.288   1_655 S
O664   C454    1.296   1_655 S
C667   C670    1.447   .     S
C667   O733    1.291   .     A
C667   O883    1.288   1_455 S
C668   C670    1.399   .     A
C668   H708    1.085   .     S
C668   C1145   1.390   1_545 S
C669   C678    1.446   .     S
C669   C702    1.399   .     A
C669   C775    1.413   .     S
C670   C848    1.413   1_455 S
C671   H709    1.082   .     S
C671   C673    1.416   .     A
C671   N732    1.367   .     A
C672   N731    1.367   .     A
C672   H710    1.082   .     S
C672   C674    1.416   .     A
C673   H711    1.082   .     S
C673   N731    1.367   .     A
C674   N732    1.367   .     A
C674   H712    1.082   .     S
C675   O739    1.295   .     A
C675   C677    1.467   .     S
C675   O811    1.296   .     S
C676   C679    1.466   .     S
C676   O740    1.294   .     A
C676   O886    1.296   1_455 S
C677   C684    1.399   .     A
C677   C682    1.399   .     A
C678   O734    1.291   .     A
C678   O810    1.288   .     S
C679   C685    1.398   .     A
C679   C683    1.399   .     A
C680   C682    1.391   .     A
C680   C688    1.404   .     A
C680   H802    1.083   .     S
C681   C690    1.404   .     A
C681   C683    1.392   .     A
C681   H729    1.084   .     S
C682   H801    1.083   .     S
C683   H874    1.083   1_455 S
C684   C686    1.405   .     A
C684   H725    1.075   .     S
C685   C687    1.405   .     A
C685   H724    1.075   .     S
C686   C691    1.427   .     A
C686   C688    1.418   .     A
C687   C692    1.426   .     A
C687   C690    1.418   .     A
C688   C32     1.390   1_556 S
C689   C692    1.417   .     A
C689   H730    1.076   .     S
C689   C698    1.386   .     A
C691   C697    1.417   .     A
C691   C26     1.424   1_556 S
C693   H717    1.109   .     S
C693   C700    1.516   .     S
C693   H718    1.112   .     S
C693   C694    1.527   .     S
C694   H713    1.111   .     S
C694   H715    1.110   .     S
C694   H714    1.110   .     S
C695   C696    1.527   .     S
C695   H723    1.109   .     S
C695   H722    1.112   .     S
C695   C701    1.516   .     S
C696   H719    1.111   .     S
C696   H720    1.110   .     S
C696   H721    1.111   .     S
C697   H706    1.076   .     S
C697   C699    1.387   .     A
C698   H705    1.084   .     S
C699   H716    1.084   .     S
C699   C24     1.390   1_556 S
C700   C744    1.413   .     S
C700   C1146   1.390   1_545 S
C701   C890    1.390   .     S
C701   C817    1.413   1_455 S
C702   H707    1.085   .     S
C702   C922    1.390   .     S
Cu703  O740    1.944   .     S
Cu703  N731    2.012   .     S
Cu703  O736    1.960   .     S
Cu703  O737    1.957   .     S
Cu703  O733    1.959   .     S
Cu703  Cu852   2.678   1_455 S
Cu704  O734    1.959   .     S
Cu704  N732    2.012   .     S
Cu704  O735    1.960   .     S
Cu704  O738    1.957   .     S
Cu704  O739    1.944   .     S
Cu704  Cu777   2.678   .     S
H726   C757    1.083   .     S
H727   C830    1.083   1_455 S
H728   C828    1.083   1_455 S
O735   C741    1.288   .     S
O736   C826    1.288   1_455 S
O737   C823    1.296   1_455 S
O738   C750    1.296   .     S
C741   C744    1.447   .     S
C741   O807    1.291   .     A
C742   C744    1.399   .     A
C742   H782    1.085   .     S
C742   C1219   1.390   1_545 S
C743   C752    1.446   .     S
C743   C776    1.399   .     A
C743   C849    1.413   .     S
C745   H783    1.082   .     S
C745   C747    1.416   .     A
C745   N806    1.367   .     A
C746   N805    1.367   .     A
C746   H784    1.082   .     S
C746   C748    1.416   .     A
C747   H785    1.082   .     S
C747   N805    1.367   .     A
C748   N806    1.367   .     A
C748   H786    1.082   .     S
C749   O813    1.295   .     A
C749   C751    1.467   .     S
C749   O885    1.296   .     S
C750   C753    1.466   .     S
C750   O814    1.294   .     A
C751   C758    1.399   .     A
C751   C756    1.399   .     A
C752   O808    1.291   .     A
C752   O884    1.288   .     S
C753   C759    1.398   .     A
C753   C757    1.399   .     A
C754   C756    1.391   .     A
C754   C762    1.404   .     A
C754   H876    1.083   .     S
C755   C764    1.404   .     A
C755   C757    1.392   .     A
C755   H803    1.084   .     S
C756   H875    1.083   .     S
C758   C760    1.405   .     A
C758   H799    1.075   .     S
C759   C761    1.405   .     A
C759   H798    1.075   .     S
C760   C765    1.427   .     A
C760   C762    1.418   .     A
C761   C766    1.426   .     A
C761   C764    1.418   .     A
C762   C106    1.390   1_556 S
C763   C766    1.417   .     A
C763   H804    1.076   .     S
C763   C772    1.386   .     A
C765   C771    1.417   .     A
C765   C100    1.424   1_556 S
C767   H791    1.109   .     S
C767   C774    1.516   .     S
C767   H792    1.112   .     S
C767   C768    1.527   .     S
C768   H787    1.111   .     S
C768   H789    1.110   .     S
C768   H788    1.110   .     S
C769   C770    1.527   .     S
C769   H797    1.109   .     S
C769   H796    1.112   .     S
C769   C775    1.516   .     S
C770   H793    1.111   .     S
C770   H794    1.110   .     S
C770   H795    1.111   .     S
C771   H780    1.076   .     S
C771   C773    1.387   .     A
C772   H779    1.084   .     S
C773   H790    1.084   .     S
C773   C98     1.390   1_556 S
C774   C818    1.413   .     S
C774   C1220   1.390   1_545 S
C775   C964    1.390   .     S
C776   H781    1.085   .     S
C776   C996    1.390   .     S
Cu777  O814    1.944   .     S
Cu777  N805    2.012   .     S
Cu777  O810    1.960   .     S
Cu777  O811    1.957   .     S
Cu777  O807    1.959   .     S
Cu778  O808    1.959   .     S
Cu778  N806    2.012   .     S
Cu778  O809    1.960   .     S
Cu778  O812    1.957   .     S
Cu778  O813    1.944   .     S
Cu778  Cu851   2.678   .     S
H800   C831    1.083   .     S
O809   C815    1.288   .     S
O812   C824    1.296   .     S
C815   C818    1.447   .     S
C815   O881    1.291   .     A
C816   C818    1.399   .     A
C816   H856    1.085   .     S
C816   C1293   1.390   1_545 S
C817   C826    1.446   .     S
C817   C850    1.399   .     A
C817   C701    1.413   1_655 S
C819   H857    1.082   .     S
C819   C821    1.416   .     A
C819   N880    1.367   .     A
C820   N879    1.367   .     A
C820   H858    1.082   .     S
C820   C822    1.416   .     A
C821   H859    1.082   .     S
C821   N879    1.367   .     A
C822   N880    1.367   .     A
C822   H860    1.082   .     S
C823   O887    1.295   .     A
C823   C825    1.467   .     S
C823   O737    1.296   1_655 S
C824   C827    1.466   .     S
C824   O888    1.294   .     A
C825   C832    1.399   .     A
C825   C830    1.399   .     A
C826   O882    1.291   .     A
C826   O736    1.288   1_655 S
C827   C833    1.398   .     A
C827   C831    1.399   .     A
C828   C830    1.391   .     A
C828   C836    1.404   .     A
C828   H728    1.083   1_655 S
C829   C838    1.404   .     A
C829   C831    1.392   .     A
C829   H877    1.084   .     S
C830   H727    1.083   1_655 S
C832   C834    1.405   .     A
C832   H873    1.075   .     S
C833   C835    1.405   .     A
C833   H872    1.075   .     S
C834   C839    1.427   .     A
C834   C836    1.418   .     A
C835   C840    1.426   .     A
C835   C838    1.418   .     A
C836   C180    1.390   1_556 S
C837   C840    1.417   .     A
C837   H878    1.076   .     S
C837   C846    1.386   .     A
C839   C845    1.417   .     A
C839   C174    1.424   1_556 S
C841   H865    1.109   .     S
C841   C848    1.516   .     S
C841   H866    1.112   .     S
C841   C842    1.527   .     S
C842   H861    1.111   .     S
C842   H863    1.110   .     S
C842   H862    1.110   .     S
C843   C844    1.527   .     S
C843   H871    1.109   .     S
C843   H870    1.112   .     S
C843   C849    1.516   .     S
C844   H867    1.111   .     S
C844   H868    1.110   .     S
C844   H869    1.111   .     S
C845   H854    1.076   .     S
C845   C847    1.387   .     A
C846   H853    1.084   .     S
C847   H864    1.084   .     S
C847   C172    1.390   1_556 S
C848   C670    1.413   1_655 S
C848   C1294   1.390   1_545 S
C849   C1038   1.390   .     S
C850   H855    1.085   .     S
C850   C1070   1.390   .     S
Cu851  O888    1.944   .     S
Cu851  N879    2.012   .     S
Cu851  O884    1.960   .     S
Cu851  O885    1.957   .     S
Cu851  O881    1.959   .     S
Cu852  O882    1.959   .     S
Cu852  N880    2.012   .     S
Cu852  O883    1.960   .     S
Cu852  O886    1.957   .     S
Cu852  O887    1.944   .     S
Cu852  Cu703   2.678   1_655 S
H874   C683    1.083   1_655 S
O883   C667    1.288   1_655 S
O886   C676    1.296   1_655 S
C889   C892    1.447   .     S
C889   O955    1.291   .     A
C889   O1105   1.288   1_455 S
C890   C892    1.399   .     A
C890   H930    1.085   .     S
C891   C900    1.446   .     S
C891   C924    1.399   .     A
C891   C997    1.413   .     S
C892   C1070   1.413   1_455 S
C893   H931    1.082   .     S
C893   C895    1.416   .     A
C893   N954    1.367   .     A
C894   N953    1.367   .     A
C894   H932    1.082   .     S
C894   C896    1.416   .     A
C895   H933    1.082   .     S
C895   N953    1.367   .     A
C896   N954    1.367   .     A
C896   H934    1.082   .     S
C897   O961    1.295   .     A
C897   C899    1.467   .     S
C897   O1033   1.296   .     S
C898   C901    1.466   .     S
C898   O962    1.294   .     A
C898   O1108   1.296   1_455 S
C899   C906    1.399   .     A
C899   C904    1.399   .     A
C900   O956    1.291   .     A
C900   O1032   1.288   .     S
C901   C907    1.398   .     A
C901   C905    1.399   .     A
C902   C904    1.391   .     A
C902   C910    1.404   .     A
C902   H1024   1.083   .     S
C903   C912    1.404   .     A
C903   C905    1.392   .     A
C903   H951    1.084   .     S
C904   H1023   1.083   .     S
C905   H1096   1.083   1_455 S
C906   C908    1.405   .     A
C906   H947    1.075   .     S
C907   C909    1.405   .     A
C907   H946    1.075   .     S
C908   C913    1.427   .     A
C908   C910    1.418   .     A
C909   C914    1.426   .     A
C909   C912    1.418   .     A
C910   C254    1.390   1_556 S
C911   C914    1.417   .     A
C911   H952    1.076   .     S
C911   C920    1.386   .     A
C913   C919    1.417   .     A
C913   C248    1.424   1_556 S
C915   H939    1.109   .     S
C915   C922    1.516   .     S
C915   H940    1.112   .     S
C915   C916    1.527   .     S
C916   H935    1.111   .     S
C916   H937    1.110   .     S
C916   H936    1.110   .     S
C917   C918    1.527   .     S
C917   H945    1.109   .     S
C917   H944    1.112   .     S
C917   C923    1.516   .     S
C918   H941    1.111   .     S
C918   H942    1.110   .     S
C918   H943    1.111   .     S
C919   H928    1.076   .     S
C919   C921    1.387   .     A
C920   H927    1.084   .     S
C921   H938    1.084   .     S
C921   C246    1.390   1_556 S
C922   C966    1.413   .     S
C923   C1112   1.390   .     S
C923   C1039   1.413   1_455 S
C924   H929    1.085   .     S
C924   C1144   1.390   .     S
Cu925  O962    1.944   .     S
Cu925  N953    2.012   .     S
Cu925  O958    1.960   .     S
Cu925  O959    1.957   .     S
Cu925  O955    1.959   .     S
Cu925  Cu1074  2.678   1_455 S
Cu926  O956    1.959   .     S
Cu926  N954    2.012   .     S
Cu926  O957    1.960   .     S
Cu926  O960    1.957   .     S
Cu926  O961    1.944   .     S
Cu926  Cu999   2.678   .     S
H948   C979    1.083   .     S
H949   C1052   1.083   1_455 S
H950   C1050   1.083   1_455 S
O957   C963    1.288   .     S
O958   C1048   1.288   1_455 S
O959   C1045   1.296   1_455 S
O960   C972    1.296   .     S
C963   C966    1.447   .     S
C963   O1029   1.291   .     A
C964   C966    1.399   .     A
C964   H1004   1.085   .     S
C965   C974    1.446   .     S
C965   C998    1.399   .     A
C965   C1071   1.413   .     S
C967   H1005   1.082   .     S
C967   C969    1.416   .     A
C967   N1028   1.367   .     A
C968   N1027   1.367   .     A
C968   H1006   1.082   .     S
C968   C970    1.416   .     A
C969   H1007   1.082   .     S
C969   N1027   1.367   .     A
C970   N1028   1.367   .     A
C970   H1008   1.082   .     S
C971   O1035   1.295   .     A
C971   C973    1.467   .     S
C971   O1107   1.296   .     S
C972   C975    1.466   .     S
C972   O1036   1.294   .     A
C973   C980    1.399   .     A
C973   C978    1.399   .     A
C974   O1030   1.291   .     A
C974   O1106   1.288   .     S
C975   C981    1.398   .     A
C975   C979    1.399   .     A
C976   C978    1.391   .     A
C976   C984    1.404   .     A
C976   H1098   1.083   .     S
C977   C986    1.404   .     A
C977   C979    1.392   .     A
C977   H1025   1.084   .     S
C978   H1097   1.083   .     S
C980   C982    1.405   .     A
C980   H1021   1.075   .     S
C981   C983    1.405   .     A
C981   H1020   1.075   .     S
C982   C987    1.427   .     A
C982   C984    1.418   .     A
C983   C988    1.426   .     A
C983   C986    1.418   .     A
C984   C328    1.390   1_556 S
C985   C988    1.417   .     A
C985   H1026   1.076   .     S
C985   C994    1.386   .     A
C987   C993    1.417   .     A
C987   C322    1.424   1_556 S
C989   H1013   1.109   .     S
C989   C996    1.516   .     S
C989   H1014   1.112   .     S
C989   C990    1.527   .     S
C990   H1009   1.111   .     S
C990   H1011   1.110   .     S
C990   H1010   1.110   .     S
C991   C992    1.527   .     S
C991   H1019   1.109   .     S
C991   H1018   1.112   .     S
C991   C997    1.516   .     S
C992   H1015   1.111   .     S
C992   H1016   1.110   .     S
C992   H1017   1.111   .     S
C993   H1002   1.076   .     S
C993   C995    1.387   .     A
C994   H1001   1.084   .     S
C995   H1012   1.084   .     S
C995   C320    1.390   1_556 S
C996   C1040   1.413   .     S
C997   C1186   1.390   .     S
C998   H1003   1.085   .     S
C998   C1218   1.390   .     S
Cu999  O1036   1.944   .     S
Cu999  N1027   2.012   .     S
Cu999  O1032   1.960   .     S
Cu999  O1033   1.957   .     S
Cu999  O1029   1.959   .     S
Cu1000 O1030   1.959   .     S
Cu1000 N1028   2.012   .     S
Cu1000 O1031   1.960   .     S
Cu1000 O1034   1.957   .     S
Cu1000 O1035   1.944   .     S
Cu1000 Cu1073  2.678   .     S
H1022  C1053   1.083   .     S
O1031  C1037   1.288   .     S
O1034  C1046   1.296   .     S
C1037  C1040   1.447   .     S
C1037  O1103   1.291   .     A
C1038  C1040   1.399   .     A
C1038  H1078   1.085   .     S
C1039  C1048   1.446   .     S
C1039  C1072   1.399   .     A
C1039  C923    1.413   1_655 S
C1041  H1079   1.082   .     S
C1041  C1043   1.416   .     A
C1041  N1102   1.367   .     A
C1042  N1101   1.367   .     A
C1042  H1080   1.082   .     S
C1042  C1044   1.416   .     A
C1043  H1081   1.082   .     S
C1043  N1101   1.367   .     A
C1044  N1102   1.367   .     A
C1044  H1082   1.082   .     S
C1045  O1109   1.295   .     A
C1045  C1047   1.467   .     S
C1045  O959    1.296   1_655 S
C1046  C1049   1.466   .     S
C1046  O1110   1.294   .     A
C1047  C1054   1.399   .     A
C1047  C1052   1.399   .     A
C1048  O1104   1.291   .     A
C1048  O958    1.288   1_655 S
C1049  C1055   1.398   .     A
C1049  C1053   1.399   .     A
C1050  C1052   1.391   .     A
C1050  C1058   1.404   .     A
C1050  H950    1.083   1_655 S
C1051  C1060   1.404   .     A
C1051  C1053   1.392   .     A
C1051  H1099   1.084   .     S
C1052  H949    1.083   1_655 S
C1054  C1056   1.405   .     A
C1054  H1095   1.075   .     S
C1055  C1057   1.405   .     A
C1055  H1094   1.075   .     S
C1056  C1061   1.427   .     A
C1056  C1058   1.418   .     A
C1057  C1062   1.426   .     A
C1057  C1060   1.418   .     A
C1058  C402    1.390   1_556 S
C1059  C1062   1.417   .     A
C1059  H1100   1.076   .     S
C1059  C1068   1.386   .     A
C1061  C1067   1.417   .     A
C1061  C396    1.424   1_556 S
C1063  H1087   1.109   .     S
C1063  C1070   1.516   .     S
C1063  H1088   1.112   .     S
C1063  C1064   1.527   .     S
C1064  H1083   1.111   .     S
C1064  H1085   1.110   .     S
C1064  H1084   1.110   .     S
C1065  C1066   1.527   .     S
C1065  H1093   1.109   .     S
C1065  H1092   1.112   .     S
C1065  C1071   1.516   .     S
C1066  H1089   1.111   .     S
C1066  H1090   1.110   .     S
C1066  H1091   1.111   .     S
C1067  H1076   1.076   .     S
C1067  C1069   1.387   .     A
C1068  H1075   1.084   .     S
C1069  H1086   1.084   .     S
C1069  C394    1.390   1_556 S
C1070  C892    1.413   1_655 S
C1071  C1260   1.390   .     S
C1072  H1077   1.085   .     S
C1072  C1292   1.390   .     S
Cu1073 O1110   1.944   .     S
Cu1073 N1101   2.012   .     S
Cu1073 O1106   1.960   .     S
Cu1073 O1107   1.957   .     S
Cu1073 O1103   1.959   .     S
Cu1074 O1104   1.959   .     S
Cu1074 N1102   2.012   .     S
Cu1074 O1105   1.960   .     S
Cu1074 O1108   1.957   .     S
Cu1074 O1109   1.944   .     S
Cu1074 Cu925   2.678   1_655 S
H1096  C905    1.083   1_655 S
O1105  C889    1.288   1_655 S
O1108  C898    1.296   1_655 S
C1111  C1114   1.447   .     S
C1111  O1177   1.291   .     A
C1111  O1327   1.288   1_455 S
C1112  C1114   1.399   .     A
C1112  H1152   1.085   .     S
C1113  C1122   1.446   .     S
C1113  C1146   1.399   .     A
C1113  C1219   1.413   .     S
C1114  C1292   1.413   1_455 S
C1115  H1153   1.082   .     S
C1115  C1117   1.416   .     A
C1115  N1176   1.367   .     A
C1116  N1175   1.367   .     A
C1116  H1154   1.082   .     S
C1116  C1118   1.416   .     A
C1117  H1155   1.082   .     S
C1117  N1175   1.367   .     A
C1118  N1176   1.367   .     A
C1118  H1156   1.082   .     S
C1119  O1183   1.295   .     A
C1119  C1121   1.467   .     S
C1119  O1255   1.296   .     S
C1120  C1123   1.466   .     S
C1120  O1184   1.294   .     A
C1120  O1330   1.296   1_455 S
C1121  C1128   1.399   .     A
C1121  C1126   1.399   .     A
C1122  O1178   1.291   .     A
C1122  O1254   1.288   .     S
C1123  C1129   1.398   .     A
C1123  C1127   1.399   .     A
C1124  C1126   1.391   .     A
C1124  C1132   1.404   .     A
C1124  H1246   1.083   .     S
C1125  C1134   1.404   .     A
C1125  C1127   1.392   .     A
C1125  H1173   1.084   .     S
C1126  H1245   1.083   .     S
C1127  H1318   1.083   1_455 S
C1128  C1130   1.405   .     A
C1128  H1169   1.075   .     S
C1129  C1131   1.405   .     A
C1129  H1168   1.075   .     S
C1130  C1135   1.427   .     A
C1130  C1132   1.418   .     A
C1131  C1136   1.426   .     A
C1131  C1134   1.418   .     A
C1132  C476    1.390   1_556 S
C1133  C1136   1.417   .     A
C1133  H1174   1.076   .     S
C1133  C1142   1.386   .     A
C1135  C1141   1.417   .     A
C1135  C470    1.424   1_556 S
C1137  H1161   1.109   .     S
C1137  C1144   1.516   .     S
C1137  H1162   1.112   .     S
C1137  C1138   1.527   .     S
C1138  H1157   1.111   .     S
C1138  H1159   1.110   .     S
C1138  H1158   1.110   .     S
C1139  C1140   1.527   .     S
C1139  H1167   1.109   .     S
C1139  H1166   1.112   .     S
C1139  C1145   1.516   .     S
C1140  H1163   1.111   .     S
C1140  H1164   1.110   .     S
C1140  H1165   1.111   .     S
C1141  H1150   1.076   .     S
C1141  C1143   1.387   .     A
C1142  H1149   1.084   .     S
C1143  H1160   1.084   .     S
C1143  C468    1.390   1_556 S
C1144  C1188   1.413   .     S
C1145  C668    1.390   1_565 S
C1145  C1261   1.413   1_455 S
C1146  H1151   1.085   .     S
C1146  C700    1.390   1_565 S
Cu1147 O1184   1.944   .     S
Cu1147 N1175   2.012   .     S
Cu1147 O1180   1.960   .     S
Cu1147 O1181   1.957   .     S
Cu1147 O1177   1.959   .     S
Cu1147 Cu1296  2.678   1_455 S
Cu1148 O1178   1.959   .     S
Cu1148 N1176   2.012   .     S
Cu1148 O1179   1.960   .     S
Cu1148 O1182   1.957   .     S
Cu1148 O1183   1.944   .     S
Cu1148 Cu1221  2.678   .     S
H1170  C1201   1.083   .     S
H1171  C1274   1.083   1_455 S
H1172  C1272   1.083   1_455 S
O1179  C1185   1.288   .     S
O1180  C1270   1.288   1_455 S
O1181  C1267   1.296   1_455 S
O1182  C1194   1.296   .     S
C1185  C1188   1.447   .     S
C1185  O1251   1.291   .     A
C1186  C1188   1.399   .     A
C1186  H1226   1.085   .     S
C1187  C1196   1.446   .     S
C1187  C1220   1.399   .     A
C1187  C1293   1.413   .     S
C1189  H1227   1.082   .     S
C1189  C1191   1.416   .     A
C1189  N1250   1.367   .     A
C1190  N1249   1.367   .     A
C1190  H1228   1.082   .     S
C1190  C1192   1.416   .     A
C1191  H1229   1.082   .     S
C1191  N1249   1.367   .     A
C1192  N1250   1.367   .     A
C1192  H1230   1.082   .     S
C1193  O1257   1.295   .     A
C1193  C1195   1.467   .     S
C1193  O1329   1.296   .     S
C1194  C1197   1.466   .     S
C1194  O1258   1.294   .     A
C1195  C1202   1.399   .     A
C1195  C1200   1.399   .     A
C1196  O1252   1.291   .     A
C1196  O1328   1.288   .     S
C1197  C1203   1.398   .     A
C1197  C1201   1.399   .     A
C1198  C1200   1.391   .     A
C1198  C1206   1.404   .     A
C1198  H1320   1.083   .     S
C1199  C1208   1.404   .     A
C1199  C1201   1.392   .     A
C1199  H1247   1.084   .     S
C1200  H1319   1.083   .     S
C1202  C1204   1.405   .     A
C1202  H1243   1.075   .     S
C1203  C1205   1.405   .     A
C1203  H1242   1.075   .     S
C1204  C1209   1.427   .     A
C1204  C1206   1.418   .     A
C1205  C1210   1.426   .     A
C1205  C1208   1.418   .     A
C1206  C550    1.390   1_556 S
C1207  C1210   1.417   .     A
C1207  H1248   1.076   .     S
C1207  C1216   1.386   .     A
C1209  C1215   1.417   .     A
C1209  C544    1.424   1_556 S
C1211  H1235   1.109   .     S
C1211  C1218   1.516   .     S
C1211  H1236   1.112   .     S
C1211  C1212   1.527   .     S
C1212  H1231   1.111   .     S
C1212  H1233   1.110   .     S
C1212  H1232   1.110   .     S
C1213  C1214   1.527   .     S
C1213  H1241   1.109   .     S
C1213  H1240   1.112   .     S
C1213  C1219   1.516   .     S
C1214  H1237   1.111   .     S
C1214  H1238   1.110   .     S
C1214  H1239   1.111   .     S
C1215  H1224   1.076   .     S
C1215  C1217   1.387   .     A
C1216  H1223   1.084   .     S
C1217  H1234   1.084   .     S
C1217  C542    1.390   1_556 S
C1218  C1262   1.413   .     S
C1219  C742    1.390   1_565 S
C1220  H1225   1.085   .     S
C1220  C774    1.390   1_565 S
Cu1221 O1258   1.944   .     S
Cu1221 N1249   2.012   .     S
Cu1221 O1254   1.960   .     S
Cu1221 O1255   1.957   .     S
Cu1221 O1251   1.959   .     S
Cu1222 O1252   1.959   .     S
Cu1222 N1250   2.012   .     S
Cu1222 O1253   1.960   .     S
Cu1222 O1256   1.957   .     S
Cu1222 O1257   1.944   .     S
Cu1222 Cu1295  2.678   .     S
H1244  C1275   1.083   .     S
O1253  C1259   1.288   .     S
O1256  C1268   1.296   .     S
C1259  C1262   1.447   .     S
C1259  O1325   1.291   .     A
C1260  C1262   1.399   .     A
C1260  H1300   1.085   .     S
C1261  C1270   1.446   .     S
C1261  C1294   1.399   .     A
C1261  C1145   1.413   1_655 S
C1263  H1301   1.082   .     S
C1263  C1265   1.416   .     A
C1263  N1324   1.367   .     A
C1264  N1323   1.367   .     A
C1264  H1302   1.082   .     S
C1264  C1266   1.416   .     A
C1265  H1303   1.082   .     S
C1265  N1323   1.367   .     A
C1266  N1324   1.367   .     A
C1266  H1304   1.082   .     S
C1267  O1331   1.295   .     A
C1267  C1269   1.467   .     S
C1267  O1181   1.296   1_655 S
C1268  C1271   1.466   .     S
C1268  O1332   1.294   .     A
C1269  C1276   1.399   .     A
C1269  C1274   1.399   .     A
C1270  O1326   1.291   .     A
C1270  O1180   1.288   1_655 S
C1271  C1277   1.398   .     A
C1271  C1275   1.399   .     A
C1272  C1274   1.391   .     A
C1272  C1280   1.404   .     A
C1272  H1172   1.083   1_655 S
C1273  C1282   1.404   .     A
C1273  C1275   1.392   .     A
C1273  H1321   1.084   .     S
C1274  H1171   1.083   1_655 S
C1276  C1278   1.405   .     A
C1276  H1317   1.075   .     S
C1277  C1279   1.405   .     A
C1277  H1316   1.075   .     S
C1278  C1283   1.427   .     A
C1278  C1280   1.418   .     A
C1279  C1284   1.426   .     A
C1279  C1282   1.418   .     A
C1280  C624    1.390   1_556 S
C1281  C1284   1.417   .     A
C1281  H1322   1.076   .     S
C1281  C1290   1.386   .     A
C1283  C1289   1.417   .     A
C1283  C618    1.424   1_556 S
C1285  H1309   1.109   .     S
C1285  C1292   1.516   .     S
C1285  H1310   1.112   .     S
C1285  C1286   1.527   .     S
C1286  H1305   1.111   .     S
C1286  H1307   1.110   .     S
C1286  H1306   1.110   .     S
C1287  C1288   1.527   .     S
C1287  H1315   1.109   .     S
C1287  H1314   1.112   .     S
C1287  C1293   1.516   .     S
C1288  H1311   1.111   .     S
C1288  H1312   1.110   .     S
C1288  H1313   1.111   .     S
C1289  H1298   1.076   .     S
C1289  C1291   1.387   .     A
C1290  H1297   1.084   .     S
C1291  H1308   1.084   .     S
C1291  C616    1.390   1_556 S
C1292  C1114   1.413   1_655 S
C1293  C816    1.390   1_565 S
C1294  H1299   1.085   .     S
C1294  C848    1.390   1_565 S
Cu1295 O1332   1.944   .     S
Cu1295 N1323   2.012   .     S
Cu1295 O1328   1.960   .     S
Cu1295 O1329   1.957   .     S
Cu1295 O1325   1.959   .     S
Cu1296 O1326   1.959   .     S
Cu1296 N1324   2.012   .     S
Cu1296 O1327   1.960   .     S
Cu1296 O1330   1.957   .     S
Cu1296 O1331   1.944   .     S
Cu1296 Cu1147  2.678   1_655 S
H1318  C1127   1.083   1_655 S
O1327  C1111   1.288   1_655 S
O1330  C1120   1.296   1_655 S
