data_str_m2_o10_o18_pcu_sym.143
_audit_creation_date              2020-01-03
_audit_creation_method            'Materials Studio'
_symmetry_space_group_name_H-M    'P1'
_symmetry_Int_Tables_number       1
_symmetry_cell_setting            triclinic
loop_
_symmetry_equiv_pos_as_xyz
  x,y,z
_cell_length_a                    22.4416
_cell_length_b                    26.0617
_cell_length_c                    31.2848
_cell_angle_alpha                 94.2737
_cell_angle_beta                  75.0770
_cell_angle_gamma                 103.2689
loop_
_atom_site_label
_atom_site_type_symbol
_atom_site_fract_x
_atom_site_fract_y
_atom_site_fract_z
_atom_site_U_iso_or_equiv
_atom_site_adp_type
_atom_site_occupancy
C1     C     0.18168   0.26668   0.25134   0.00000  Uiso   1.00
C2     C     0.15162   0.06666   0.24874   0.00000  Uiso   1.00
C3     C     0.10319   0.10009   0.03361   0.00000  Uiso   1.00
C4     C     0.24214   0.17777   0.45443   0.00000  Uiso   1.00
C5     C     0.06207   0.08376   0.00608   0.00000  Uiso   1.00
C6     C     0.28606   0.18950   0.48020   0.00000  Uiso   1.00
C7     C     0.19003   0.32271   0.25203   0.00000  Uiso   1.00
C8     C     0.14321   0.01063   0.24816   0.00000  Uiso   1.00
C9     C     0.12794   0.16143   0.33315   0.00000  Uiso   1.00
C10    C     0.20520   0.17020   0.16658   0.00000  Uiso   1.00
C11    C     0.10355   0.14713   0.37983   0.00000  Uiso   1.00
C12    C     0.22837   0.17189   0.11800   0.00000  Uiso   1.00
C13    C     0.03823   0.08377   0.43499   0.00000  Uiso   1.00
C14    C     0.31169   0.19521   0.05138   0.00000  Uiso   1.00
C15    C     0.05539   0.10219   0.39186   0.00000  Uiso   1.00
C16    C     0.29246   0.18986   0.09729   0.00000  Uiso   1.00
C17    C     0.13766   0.17072   0.41034   0.00000  Uiso   1.00
C18    C     0.18465   0.15645   0.09204   0.00000  Uiso   1.00
C19    C     0.13036   0.14502   0.44996   0.00000  Uiso   1.00
C20    C     0.20371   0.15749   0.04565   0.00000  Uiso   1.00
C21    C     0.07573   0.10498   0.46428   0.00000  Uiso   1.00
C22    C     0.26739   0.18079   0.02561   0.00000  Uiso   1.00
C23    C     0.17729   0.15579   0.47435   0.00000  Uiso   1.00
C24    C     0.16045   0.13859   0.01886   0.00000  Uiso   1.00
Cu25   Cu    0.10737   0.16108   0.24517   0.00000  Uiso   1.00
Cu26   Cu    0.22596   0.17225   0.25484   0.00000  Uiso   1.00
H27    H     0.02021   0.05290   0.01711   0.00000  Uiso   1.00
H28    H     0.00187   0.20577   0.46439   0.00000  Uiso   1.00
H29    H     0.13511   0.14621   0.10856   0.00000  Uiso   1.00
H30    H     0.17383   0.20608   0.40089   0.00000  Uiso   1.00
H31    H     0.32717   0.20182   0.11662   0.00000  Uiso   1.00
H32    H     0.03186   0.08070   0.36767   0.00000  Uiso   1.00
H33    H     0.33202   0.05053   0.44433   0.00000  Uiso   1.00
H34    H     0.02769   0.21136   0.03607   0.00000  Uiso   1.00
H35    H     0.23508   0.01326   0.25569   0.00000  Uiso   1.00
H36    H     0.09815   0.32009   0.24451   0.00000  Uiso   1.00
H37    H     0.00108   0.20531   0.28464   0.00000  Uiso   1.00
H38    H     0.33223   0.12800   0.21539   0.00000  Uiso   1.00
N39    N     0.31506   0.18068   0.26212   0.00000  Uiso   1.00
N40    N     0.01827   0.15265   0.23788   0.00000  Uiso   1.00
O41    O     0.12815   0.23809   0.24686   0.00000  Uiso   1.00
O42    O     0.20518   0.09524   0.25314   0.00000  Uiso   1.00
O43    O     0.22829   0.24753   0.25503   0.00000  Uiso   1.00
O44    O     0.10504   0.08580   0.24498   0.00000  Uiso   1.00
O45    O     0.08851   0.15930   0.30855   0.00000  Uiso   1.00
O46    O     0.24482   0.17403   0.19146   0.00000  Uiso   1.00
O47    O     0.18866   0.16874   0.31671   0.00000  Uiso   1.00
O48    O     0.14468   0.16460   0.18329   0.00000  Uiso   1.00
O49    O     0.08929   0.07379   0.07295   0.00000  Uiso   1.00
C50    C     0.11678   0.02933   0.06515   0.00000  Uiso   1.00
H51    H     0.16907   0.04087   0.05258   0.00000  Uiso   1.00
H52    H     0.09599   0.00079   0.04181   0.00000  Uiso   1.00
H53    H     0.10674   0.00895   0.09694   0.00000  Uiso   1.00
O54    O     0.26550   0.18427   0.40918   0.00000  Uiso   1.00
C55    C     0.26480   0.13448   0.38759   0.00000  Uiso   1.00
H56    H     0.22209   0.12044   0.37507   0.00000  Uiso   1.00
H57    H     0.26743   0.10302   0.40879   0.00000  Uiso   1.00
H58    H     0.30500   0.13906   0.35798   0.00000  Uiso   1.00
C59    C     0.51501   0.26668   0.25134   0.00000  Uiso   1.00
C60    C     0.48495   0.06666   0.24874   0.00000  Uiso   1.00
C61    C     0.43652   0.10009   0.03361   0.00000  Uiso   1.00
C62    C     0.57547   0.17777   0.45443   0.00000  Uiso   1.00
C63    C     0.39540   0.08376   0.00608   0.00000  Uiso   1.00
C64    C     0.61940   0.18950   0.48020   0.00000  Uiso   1.00
C65    C     0.52336   0.32271   0.25203   0.00000  Uiso   1.00
C66    C     0.47655   0.01063   0.24816   0.00000  Uiso   1.00
C67    C     0.46127   0.16143   0.33315   0.00000  Uiso   1.00
C68    C     0.53854   0.17020   0.16658   0.00000  Uiso   1.00
C69    C     0.43689   0.14713   0.37983   0.00000  Uiso   1.00
C70    C     0.56171   0.17189   0.11800   0.00000  Uiso   1.00
C71    C     0.37156   0.08377   0.43499   0.00000  Uiso   1.00
C72    C     0.64503   0.19521   0.05138   0.00000  Uiso   1.00
C73    C     0.38872   0.10219   0.39186   0.00000  Uiso   1.00
C74    C     0.62579   0.18986   0.09729   0.00000  Uiso   1.00
C75    C     0.47099   0.17072   0.41034   0.00000  Uiso   1.00
C76    C     0.51798   0.15645   0.09204   0.00000  Uiso   1.00
C77    C     0.46370   0.14502   0.44996   0.00000  Uiso   1.00
C78    C     0.53704   0.15749   0.04565   0.00000  Uiso   1.00
C79    C     0.40906   0.10498   0.46428   0.00000  Uiso   1.00
C80    C     0.60072   0.18079   0.02561   0.00000  Uiso   1.00
C81    C     0.51062   0.15579   0.47435   0.00000  Uiso   1.00
C82    C     0.49378   0.13859   0.01886   0.00000  Uiso   1.00
Cu83   Cu    0.44071   0.16108   0.24517   0.00000  Uiso   1.00
Cu84   Cu    0.55929   0.17225   0.25484   0.00000  Uiso   1.00
H85    H     0.35354   0.05290   0.01711   0.00000  Uiso   1.00
H86    H     0.33520   0.20577   0.46439   0.00000  Uiso   1.00
H87    H     0.46845   0.14621   0.10856   0.00000  Uiso   1.00
H88    H     0.50717   0.20608   0.40089   0.00000  Uiso   1.00
H89    H     0.66051   0.20182   0.11662   0.00000  Uiso   1.00
H90    H     0.36520   0.08070   0.36767   0.00000  Uiso   1.00
H91    H     0.66536   0.05053   0.44433   0.00000  Uiso   1.00
H92    H     0.36103   0.21136   0.03607   0.00000  Uiso   1.00
H93    H     0.56842   0.01326   0.25569   0.00000  Uiso   1.00
H94    H     0.43148   0.32009   0.24451   0.00000  Uiso   1.00
H95    H     0.33442   0.20531   0.28464   0.00000  Uiso   1.00
H96    H     0.66556   0.12800   0.21539   0.00000  Uiso   1.00
N97    N     0.64839   0.18068   0.26212   0.00000  Uiso   1.00
N98    N     0.35161   0.15265   0.23788   0.00000  Uiso   1.00
O99    O     0.46148   0.23809   0.24686   0.00000  Uiso   1.00
O100   O     0.53852   0.09524   0.25314   0.00000  Uiso   1.00
O101   O     0.56163   0.24753   0.25503   0.00000  Uiso   1.00
O102   O     0.43837   0.08580   0.24498   0.00000  Uiso   1.00
O103   O     0.42185   0.15930   0.30855   0.00000  Uiso   1.00
O104   O     0.57815   0.17403   0.19146   0.00000  Uiso   1.00
O105   O     0.52199   0.16874   0.31671   0.00000  Uiso   1.00
O106   O     0.47801   0.16460   0.18329   0.00000  Uiso   1.00
O107   O     0.42262   0.07379   0.07295   0.00000  Uiso   1.00
C108   C     0.45011   0.02933   0.06515   0.00000  Uiso   1.00
H109   H     0.50240   0.04087   0.05258   0.00000  Uiso   1.00
H110   H     0.42933   0.00079   0.04181   0.00000  Uiso   1.00
H111   H     0.44007   0.00895   0.09694   0.00000  Uiso   1.00
O112   O     0.59883   0.18427   0.40918   0.00000  Uiso   1.00
C113   C     0.59813   0.13448   0.38759   0.00000  Uiso   1.00
H114   H     0.55542   0.12044   0.37507   0.00000  Uiso   1.00
H115   H     0.60077   0.10302   0.40879   0.00000  Uiso   1.00
H116   H     0.63833   0.13906   0.35798   0.00000  Uiso   1.00
C117   C     0.84834   0.26668   0.25134   0.00000  Uiso   1.00
C118   C     0.81828   0.06666   0.24874   0.00000  Uiso   1.00
C119   C     0.76986   0.10009   0.03361   0.00000  Uiso   1.00
C120   C     0.90881   0.17777   0.45443   0.00000  Uiso   1.00
C121   C     0.72874   0.08376   0.00608   0.00000  Uiso   1.00
C122   C     0.95273   0.18950   0.48020   0.00000  Uiso   1.00
C123   C     0.85669   0.32271   0.25203   0.00000  Uiso   1.00
C124   C     0.80988   0.01063   0.24816   0.00000  Uiso   1.00
C125   C     0.79460   0.16143   0.33315   0.00000  Uiso   1.00
C126   C     0.87187   0.17020   0.16658   0.00000  Uiso   1.00
C127   C     0.77022   0.14713   0.37983   0.00000  Uiso   1.00
C128   C     0.89504   0.17189   0.11800   0.00000  Uiso   1.00
C129   C     0.70490   0.08377   0.43499   0.00000  Uiso   1.00
C130   C     0.97836   0.19521   0.05138   0.00000  Uiso   1.00
C131   C     0.72206   0.10219   0.39186   0.00000  Uiso   1.00
C132   C     0.95912   0.18986   0.09729   0.00000  Uiso   1.00
C133   C     0.80433   0.17072   0.41034   0.00000  Uiso   1.00
C134   C     0.85132   0.15645   0.09204   0.00000  Uiso   1.00
C135   C     0.79703   0.14502   0.44996   0.00000  Uiso   1.00
C136   C     0.87037   0.15749   0.04565   0.00000  Uiso   1.00
C137   C     0.74239   0.10498   0.46428   0.00000  Uiso   1.00
C138   C     0.93405   0.18079   0.02561   0.00000  Uiso   1.00
C139   C     0.84395   0.15579   0.47435   0.00000  Uiso   1.00
C140   C     0.82711   0.13859   0.01886   0.00000  Uiso   1.00
Cu141  Cu    0.77404   0.16108   0.24517   0.00000  Uiso   1.00
Cu142  Cu    0.89263   0.17225   0.25484   0.00000  Uiso   1.00
H143   H     0.68688   0.05290   0.01711   0.00000  Uiso   1.00
H144   H     0.66854   0.20577   0.46439   0.00000  Uiso   1.00
H145   H     0.80178   0.14621   0.10856   0.00000  Uiso   1.00
H146   H     0.84050   0.20608   0.40089   0.00000  Uiso   1.00
H147   H     0.99384   0.20182   0.11662   0.00000  Uiso   1.00
H148   H     0.69853   0.08070   0.36767   0.00000  Uiso   1.00
H149   H     0.99869   0.05053   0.44433   0.00000  Uiso   1.00
H150   H     0.69436   0.21136   0.03607   0.00000  Uiso   1.00
H151   H     0.90175   0.01326   0.25569   0.00000  Uiso   1.00
H152   H     0.76482   0.32009   0.24451   0.00000  Uiso   1.00
H153   H     0.66775   0.20531   0.28464   0.00000  Uiso   1.00
H154   H     0.99890   0.12800   0.21539   0.00000  Uiso   1.00
N155   N     0.98173   0.18068   0.26212   0.00000  Uiso   1.00
N156   N     0.68494   0.15265   0.23788   0.00000  Uiso   1.00
O157   O     0.79482   0.23809   0.24686   0.00000  Uiso   1.00
O158   O     0.87185   0.09524   0.25314   0.00000  Uiso   1.00
O159   O     0.89496   0.24753   0.25503   0.00000  Uiso   1.00
O160   O     0.77171   0.08580   0.24498   0.00000  Uiso   1.00
O161   O     0.75518   0.15930   0.30855   0.00000  Uiso   1.00
O162   O     0.91149   0.17403   0.19146   0.00000  Uiso   1.00
O163   O     0.85532   0.16874   0.31671   0.00000  Uiso   1.00
O164   O     0.81134   0.16460   0.18329   0.00000  Uiso   1.00
O165   O     0.75596   0.07379   0.07295   0.00000  Uiso   1.00
C166   C     0.78345   0.02933   0.06515   0.00000  Uiso   1.00
H167   H     0.83573   0.04087   0.05258   0.00000  Uiso   1.00
H168   H     0.76266   0.00079   0.04181   0.00000  Uiso   1.00
H169   H     0.77340   0.00895   0.09694   0.00000  Uiso   1.00
O170   O     0.93217   0.18427   0.40918   0.00000  Uiso   1.00
C171   C     0.93147   0.13448   0.38759   0.00000  Uiso   1.00
H172   H     0.88876   0.12044   0.37507   0.00000  Uiso   1.00
H173   H     0.93410   0.10302   0.40879   0.00000  Uiso   1.00
H174   H     0.97166   0.13906   0.35798   0.00000  Uiso   1.00
C175   C     0.18168   0.60001   0.25134   0.00000  Uiso   1.00
C176   C     0.15162   0.39999   0.24874   0.00000  Uiso   1.00
C177   C     0.10319   0.43342   0.03361   0.00000  Uiso   1.00
C178   C     0.24214   0.51110   0.45443   0.00000  Uiso   1.00
C179   C     0.06207   0.41709   0.00608   0.00000  Uiso   1.00
C180   C     0.28606   0.52283   0.48020   0.00000  Uiso   1.00
C181   C     0.19003   0.65605   0.25203   0.00000  Uiso   1.00
C182   C     0.14321   0.34396   0.24816   0.00000  Uiso   1.00
C183   C     0.12794   0.49476   0.33315   0.00000  Uiso   1.00
C184   C     0.20520   0.50353   0.16658   0.00000  Uiso   1.00
C185   C     0.10355   0.48046   0.37983   0.00000  Uiso   1.00
C186   C     0.22837   0.50522   0.11800   0.00000  Uiso   1.00
C187   C     0.03823   0.41711   0.43499   0.00000  Uiso   1.00
C188   C     0.31169   0.52854   0.05138   0.00000  Uiso   1.00
C189   C     0.05539   0.43553   0.39186   0.00000  Uiso   1.00
C190   C     0.29246   0.52320   0.09729   0.00000  Uiso   1.00
C191   C     0.13766   0.50405   0.41034   0.00000  Uiso   1.00
C192   C     0.18465   0.48978   0.09204   0.00000  Uiso   1.00
C193   C     0.13036   0.47835   0.44996   0.00000  Uiso   1.00
C194   C     0.20371   0.49083   0.04565   0.00000  Uiso   1.00
C195   C     0.07573   0.43831   0.46428   0.00000  Uiso   1.00
C196   C     0.26739   0.51413   0.02561   0.00000  Uiso   1.00
C197   C     0.17729   0.48912   0.47435   0.00000  Uiso   1.00
C198   C     0.16045   0.47192   0.01886   0.00000  Uiso   1.00
Cu199  Cu    0.10737   0.49441   0.24517   0.00000  Uiso   1.00
Cu200  Cu    0.22596   0.50559   0.25484   0.00000  Uiso   1.00
H201   H     0.02021   0.38623   0.01711   0.00000  Uiso   1.00
H202   H     0.00187   0.53911   0.46439   0.00000  Uiso   1.00
H203   H     0.13511   0.47954   0.10856   0.00000  Uiso   1.00
H204   H     0.17383   0.53941   0.40089   0.00000  Uiso   1.00
H205   H     0.32717   0.53515   0.11662   0.00000  Uiso   1.00
H206   H     0.03186   0.41403   0.36767   0.00000  Uiso   1.00
H207   H     0.33202   0.38387   0.44433   0.00000  Uiso   1.00
H208   H     0.02769   0.54470   0.03607   0.00000  Uiso   1.00
H209   H     0.23508   0.34659   0.25569   0.00000  Uiso   1.00
H210   H     0.09815   0.65342   0.24451   0.00000  Uiso   1.00
H211   H     0.00108   0.53864   0.28464   0.00000  Uiso   1.00
H212   H     0.33223   0.46133   0.21539   0.00000  Uiso   1.00
N213   N     0.31506   0.51401   0.26212   0.00000  Uiso   1.00
N214   N     0.01827   0.48599   0.23788   0.00000  Uiso   1.00
O215   O     0.12815   0.57142   0.24686   0.00000  Uiso   1.00
O216   O     0.20518   0.42858   0.25314   0.00000  Uiso   1.00
O217   O     0.22829   0.58086   0.25503   0.00000  Uiso   1.00
O218   O     0.10504   0.41914   0.24498   0.00000  Uiso   1.00
O219   O     0.08851   0.49263   0.30855   0.00000  Uiso   1.00
O220   O     0.24482   0.50737   0.19146   0.00000  Uiso   1.00
O221   O     0.18866   0.50207   0.31671   0.00000  Uiso   1.00
O222   O     0.14468   0.49793   0.18329   0.00000  Uiso   1.00
O223   O     0.08929   0.40712   0.07295   0.00000  Uiso   1.00
C224   C     0.11678   0.36267   0.06515   0.00000  Uiso   1.00
H225   H     0.16907   0.37420   0.05258   0.00000  Uiso   1.00
H226   H     0.09599   0.33413   0.04181   0.00000  Uiso   1.00
H227   H     0.10674   0.34228   0.09694   0.00000  Uiso   1.00
O228   O     0.26550   0.51760   0.40918   0.00000  Uiso   1.00
C229   C     0.26480   0.46781   0.38759   0.00000  Uiso   1.00
H230   H     0.22209   0.45377   0.37507   0.00000  Uiso   1.00
H231   H     0.26743   0.43635   0.40879   0.00000  Uiso   1.00
H232   H     0.30500   0.47239   0.35798   0.00000  Uiso   1.00
C233   C     0.51501   0.60001   0.25134   0.00000  Uiso   1.00
C234   C     0.48495   0.39999   0.24874   0.00000  Uiso   1.00
C235   C     0.43652   0.43342   0.03361   0.00000  Uiso   1.00
C236   C     0.57547   0.51110   0.45443   0.00000  Uiso   1.00
C237   C     0.39540   0.41709   0.00608   0.00000  Uiso   1.00
C238   C     0.61940   0.52283   0.48020   0.00000  Uiso   1.00
C239   C     0.52336   0.65605   0.25203   0.00000  Uiso   1.00
C240   C     0.47655   0.34396   0.24816   0.00000  Uiso   1.00
C241   C     0.46127   0.49476   0.33315   0.00000  Uiso   1.00
C242   C     0.53854   0.50353   0.16658   0.00000  Uiso   1.00
C243   C     0.43689   0.48046   0.37983   0.00000  Uiso   1.00
C244   C     0.56171   0.50522   0.11800   0.00000  Uiso   1.00
C245   C     0.37156   0.41711   0.43499   0.00000  Uiso   1.00
C246   C     0.64503   0.52854   0.05138   0.00000  Uiso   1.00
C247   C     0.38872   0.43553   0.39186   0.00000  Uiso   1.00
C248   C     0.62579   0.52320   0.09729   0.00000  Uiso   1.00
C249   C     0.47099   0.50405   0.41034   0.00000  Uiso   1.00
C250   C     0.51798   0.48978   0.09204   0.00000  Uiso   1.00
C251   C     0.46370   0.47835   0.44996   0.00000  Uiso   1.00
C252   C     0.53704   0.49083   0.04565   0.00000  Uiso   1.00
C253   C     0.40906   0.43831   0.46428   0.00000  Uiso   1.00
C254   C     0.60072   0.51413   0.02561   0.00000  Uiso   1.00
C255   C     0.51062   0.48912   0.47435   0.00000  Uiso   1.00
C256   C     0.49378   0.47192   0.01886   0.00000  Uiso   1.00
Cu257  Cu    0.44071   0.49441   0.24517   0.00000  Uiso   1.00
Cu258  Cu    0.55929   0.50559   0.25484   0.00000  Uiso   1.00
H259   H     0.35354   0.38623   0.01711   0.00000  Uiso   1.00
H260   H     0.33520   0.53911   0.46439   0.00000  Uiso   1.00
H261   H     0.46845   0.47954   0.10856   0.00000  Uiso   1.00
H262   H     0.50717   0.53941   0.40089   0.00000  Uiso   1.00
H263   H     0.66051   0.53515   0.11662   0.00000  Uiso   1.00
H264   H     0.36520   0.41403   0.36767   0.00000  Uiso   1.00
H265   H     0.66536   0.38387   0.44433   0.00000  Uiso   1.00
H266   H     0.36103   0.54470   0.03607   0.00000  Uiso   1.00
H267   H     0.56842   0.34659   0.25569   0.00000  Uiso   1.00
H268   H     0.43148   0.65342   0.24451   0.00000  Uiso   1.00
H269   H     0.33442   0.53864   0.28464   0.00000  Uiso   1.00
H270   H     0.66556   0.46133   0.21539   0.00000  Uiso   1.00
N271   N     0.64839   0.51401   0.26212   0.00000  Uiso   1.00
N272   N     0.35161   0.48599   0.23788   0.00000  Uiso   1.00
O273   O     0.46148   0.57142   0.24686   0.00000  Uiso   1.00
O274   O     0.53852   0.42858   0.25314   0.00000  Uiso   1.00
O275   O     0.56163   0.58086   0.25503   0.00000  Uiso   1.00
O276   O     0.43837   0.41914   0.24498   0.00000  Uiso   1.00
O277   O     0.42185   0.49263   0.30855   0.00000  Uiso   1.00
O278   O     0.57815   0.50737   0.19146   0.00000  Uiso   1.00
O279   O     0.52199   0.50207   0.31671   0.00000  Uiso   1.00
O280   O     0.47801   0.49793   0.18329   0.00000  Uiso   1.00
O281   O     0.42262   0.40712   0.07295   0.00000  Uiso   1.00
C282   C     0.45011   0.36267   0.06515   0.00000  Uiso   1.00
H283   H     0.50240   0.37420   0.05258   0.00000  Uiso   1.00
H284   H     0.42933   0.33413   0.04181   0.00000  Uiso   1.00
H285   H     0.44007   0.34228   0.09694   0.00000  Uiso   1.00
O286   O     0.59883   0.51760   0.40918   0.00000  Uiso   1.00
C287   C     0.59813   0.46781   0.38759   0.00000  Uiso   1.00
H288   H     0.55542   0.45377   0.37507   0.00000  Uiso   1.00
H289   H     0.60077   0.43635   0.40879   0.00000  Uiso   1.00
H290   H     0.63833   0.47239   0.35798   0.00000  Uiso   1.00
C291   C     0.84834   0.60001   0.25134   0.00000  Uiso   1.00
C292   C     0.81828   0.39999   0.24874   0.00000  Uiso   1.00
C293   C     0.76986   0.43342   0.03361   0.00000  Uiso   1.00
C294   C     0.90881   0.51110   0.45443   0.00000  Uiso   1.00
C295   C     0.72874   0.41709   0.00608   0.00000  Uiso   1.00
C296   C     0.95273   0.52283   0.48020   0.00000  Uiso   1.00
C297   C     0.85669   0.65605   0.25203   0.00000  Uiso   1.00
C298   C     0.80988   0.34396   0.24816   0.00000  Uiso   1.00
C299   C     0.79460   0.49476   0.33315   0.00000  Uiso   1.00
C300   C     0.87187   0.50353   0.16658   0.00000  Uiso   1.00
C301   C     0.77022   0.48046   0.37983   0.00000  Uiso   1.00
C302   C     0.89504   0.50522   0.11800   0.00000  Uiso   1.00
C303   C     0.70490   0.41711   0.43499   0.00000  Uiso   1.00
C304   C     0.97836   0.52854   0.05138   0.00000  Uiso   1.00
C305   C     0.72206   0.43553   0.39186   0.00000  Uiso   1.00
C306   C     0.95912   0.52320   0.09729   0.00000  Uiso   1.00
C307   C     0.80433   0.50405   0.41034   0.00000  Uiso   1.00
C308   C     0.85132   0.48978   0.09204   0.00000  Uiso   1.00
C309   C     0.79703   0.47835   0.44996   0.00000  Uiso   1.00
C310   C     0.87037   0.49083   0.04565   0.00000  Uiso   1.00
C311   C     0.74239   0.43831   0.46428   0.00000  Uiso   1.00
C312   C     0.93405   0.51413   0.02561   0.00000  Uiso   1.00
C313   C     0.84395   0.48912   0.47435   0.00000  Uiso   1.00
C314   C     0.82711   0.47192   0.01886   0.00000  Uiso   1.00
Cu315  Cu    0.77404   0.49441   0.24517   0.00000  Uiso   1.00
Cu316  Cu    0.89263   0.50559   0.25484   0.00000  Uiso   1.00
H317   H     0.68688   0.38623   0.01711   0.00000  Uiso   1.00
H318   H     0.66854   0.53911   0.46439   0.00000  Uiso   1.00
H319   H     0.80178   0.47954   0.10856   0.00000  Uiso   1.00
H320   H     0.84050   0.53941   0.40089   0.00000  Uiso   1.00
H321   H     0.99384   0.53515   0.11662   0.00000  Uiso   1.00
H322   H     0.69853   0.41403   0.36767   0.00000  Uiso   1.00
H323   H     0.99869   0.38387   0.44433   0.00000  Uiso   1.00
H324   H     0.69436   0.54470   0.03607   0.00000  Uiso   1.00
H325   H     0.90175   0.34659   0.25569   0.00000  Uiso   1.00
H326   H     0.76482   0.65342   0.24451   0.00000  Uiso   1.00
H327   H     0.66775   0.53864   0.28464   0.00000  Uiso   1.00
H328   H     0.99890   0.46133   0.21539   0.00000  Uiso   1.00
N329   N     0.98173   0.51401   0.26212   0.00000  Uiso   1.00
N330   N     0.68494   0.48599   0.23788   0.00000  Uiso   1.00
O331   O     0.79482   0.57142   0.24686   0.00000  Uiso   1.00
O332   O     0.87185   0.42858   0.25314   0.00000  Uiso   1.00
O333   O     0.89496   0.58086   0.25503   0.00000  Uiso   1.00
O334   O     0.77171   0.41914   0.24498   0.00000  Uiso   1.00
O335   O     0.75518   0.49263   0.30855   0.00000  Uiso   1.00
O336   O     0.91149   0.50737   0.19146   0.00000  Uiso   1.00
O337   O     0.85532   0.50207   0.31671   0.00000  Uiso   1.00
O338   O     0.81134   0.49793   0.18329   0.00000  Uiso   1.00
O339   O     0.75596   0.40712   0.07295   0.00000  Uiso   1.00
C340   C     0.78345   0.36267   0.06515   0.00000  Uiso   1.00
H341   H     0.83573   0.37420   0.05258   0.00000  Uiso   1.00
H342   H     0.76266   0.33413   0.04181   0.00000  Uiso   1.00
H343   H     0.77340   0.34228   0.09694   0.00000  Uiso   1.00
O344   O     0.93217   0.51760   0.40918   0.00000  Uiso   1.00
C345   C     0.93147   0.46781   0.38759   0.00000  Uiso   1.00
H346   H     0.88876   0.45377   0.37507   0.00000  Uiso   1.00
H347   H     0.93410   0.43635   0.40879   0.00000  Uiso   1.00
H348   H     0.97166   0.47239   0.35798   0.00000  Uiso   1.00
C349   C     0.18168   0.93334   0.25134   0.00000  Uiso   1.00
C350   C     0.15162   0.73332   0.24874   0.00000  Uiso   1.00
C351   C     0.10319   0.76676   0.03361   0.00000  Uiso   1.00
C352   C     0.24214   0.84444   0.45443   0.00000  Uiso   1.00
C353   C     0.06207   0.75043   0.00608   0.00000  Uiso   1.00
C354   C     0.28606   0.85616   0.48020   0.00000  Uiso   1.00
C355   C     0.19003   0.98938   0.25203   0.00000  Uiso   1.00
C356   C     0.14321   0.67729   0.24816   0.00000  Uiso   1.00
C357   C     0.12794   0.82810   0.33315   0.00000  Uiso   1.00
C358   C     0.20520   0.83687   0.16658   0.00000  Uiso   1.00
C359   C     0.10355   0.81380   0.37983   0.00000  Uiso   1.00
C360   C     0.22837   0.83855   0.11800   0.00000  Uiso   1.00
C361   C     0.03823   0.75044   0.43499   0.00000  Uiso   1.00
C362   C     0.31169   0.86188   0.05138   0.00000  Uiso   1.00
C363   C     0.05539   0.76886   0.39186   0.00000  Uiso   1.00
C364   C     0.29246   0.85653   0.09729   0.00000  Uiso   1.00
C365   C     0.13766   0.83738   0.41034   0.00000  Uiso   1.00
C366   C     0.18465   0.82311   0.09204   0.00000  Uiso   1.00
C367   C     0.13036   0.81169   0.44996   0.00000  Uiso   1.00
C368   C     0.20371   0.82416   0.04565   0.00000  Uiso   1.00
C369   C     0.07573   0.77164   0.46428   0.00000  Uiso   1.00
C370   C     0.26739   0.84746   0.02561   0.00000  Uiso   1.00
C371   C     0.17729   0.82245   0.47435   0.00000  Uiso   1.00
C372   C     0.16045   0.80525   0.01886   0.00000  Uiso   1.00
Cu373  Cu    0.10737   0.82775   0.24517   0.00000  Uiso   1.00
Cu374  Cu    0.22596   0.83892   0.25484   0.00000  Uiso   1.00
H375   H     0.02021   0.71956   0.01711   0.00000  Uiso   1.00
H376   H     0.00187   0.87244   0.46439   0.00000  Uiso   1.00
H377   H     0.13511   0.81287   0.10856   0.00000  Uiso   1.00
H378   H     0.17383   0.87274   0.40089   0.00000  Uiso   1.00
H379   H     0.32717   0.86848   0.11662   0.00000  Uiso   1.00
H380   H     0.03186   0.74737   0.36767   0.00000  Uiso   1.00
H381   H     0.33202   0.71720   0.44433   0.00000  Uiso   1.00
H382   H     0.02769   0.87803   0.03607   0.00000  Uiso   1.00
H383   H     0.23508   0.67992   0.25569   0.00000  Uiso   1.00
H384   H     0.09815   0.98675   0.24451   0.00000  Uiso   1.00
H385   H     0.00108   0.87197   0.28464   0.00000  Uiso   1.00
H386   H     0.33223   0.79466   0.21539   0.00000  Uiso   1.00
N387   N     0.31506   0.84735   0.26212   0.00000  Uiso   1.00
N388   N     0.01827   0.81932   0.23788   0.00000  Uiso   1.00
O389   O     0.12815   0.90476   0.24686   0.00000  Uiso   1.00
O390   O     0.20518   0.76191   0.25314   0.00000  Uiso   1.00
O391   O     0.22829   0.91420   0.25503   0.00000  Uiso   1.00
O392   O     0.10504   0.75247   0.24498   0.00000  Uiso   1.00
O393   O     0.08851   0.82597   0.30855   0.00000  Uiso   1.00
O394   O     0.24482   0.84070   0.19146   0.00000  Uiso   1.00
O395   O     0.18866   0.83540   0.31671   0.00000  Uiso   1.00
O396   O     0.14468   0.83126   0.18329   0.00000  Uiso   1.00
O397   O     0.08929   0.74046   0.07295   0.00000  Uiso   1.00
C398   C     0.11678   0.69600   0.06515   0.00000  Uiso   1.00
H399   H     0.16907   0.70753   0.05258   0.00000  Uiso   1.00
H400   H     0.09599   0.66746   0.04181   0.00000  Uiso   1.00
H401   H     0.10674   0.67562   0.09694   0.00000  Uiso   1.00
O402   O     0.26550   0.85094   0.40918   0.00000  Uiso   1.00
C403   C     0.26480   0.80114   0.38759   0.00000  Uiso   1.00
H404   H     0.22209   0.78710   0.37507   0.00000  Uiso   1.00
H405   H     0.26743   0.76968   0.40879   0.00000  Uiso   1.00
H406   H     0.30500   0.80572   0.35798   0.00000  Uiso   1.00
C407   C     0.51501   0.93334   0.25134   0.00000  Uiso   1.00
C408   C     0.48495   0.73332   0.24874   0.00000  Uiso   1.00
C409   C     0.43652   0.76676   0.03361   0.00000  Uiso   1.00
C410   C     0.57547   0.84444   0.45443   0.00000  Uiso   1.00
C411   C     0.39540   0.75043   0.00608   0.00000  Uiso   1.00
C412   C     0.61940   0.85616   0.48020   0.00000  Uiso   1.00
C413   C     0.52336   0.98938   0.25203   0.00000  Uiso   1.00
C414   C     0.47655   0.67729   0.24816   0.00000  Uiso   1.00
C415   C     0.46127   0.82810   0.33315   0.00000  Uiso   1.00
C416   C     0.53854   0.83687   0.16658   0.00000  Uiso   1.00
C417   C     0.43689   0.81380   0.37983   0.00000  Uiso   1.00
C418   C     0.56171   0.83855   0.11800   0.00000  Uiso   1.00
C419   C     0.37156   0.75044   0.43499   0.00000  Uiso   1.00
C420   C     0.64503   0.86188   0.05138   0.00000  Uiso   1.00
C421   C     0.38872   0.76886   0.39186   0.00000  Uiso   1.00
C422   C     0.62579   0.85653   0.09729   0.00000  Uiso   1.00
C423   C     0.47099   0.83738   0.41034   0.00000  Uiso   1.00
C424   C     0.51798   0.82311   0.09204   0.00000  Uiso   1.00
C425   C     0.46370   0.81169   0.44996   0.00000  Uiso   1.00
C426   C     0.53704   0.82416   0.04565   0.00000  Uiso   1.00
C427   C     0.40906   0.77164   0.46428   0.00000  Uiso   1.00
C428   C     0.60072   0.84746   0.02561   0.00000  Uiso   1.00
C429   C     0.51062   0.82245   0.47435   0.00000  Uiso   1.00
C430   C     0.49378   0.80525   0.01886   0.00000  Uiso   1.00
Cu431  Cu    0.44071   0.82775   0.24517   0.00000  Uiso   1.00
Cu432  Cu    0.55929   0.83892   0.25484   0.00000  Uiso   1.00
H433   H     0.35354   0.71956   0.01711   0.00000  Uiso   1.00
H434   H     0.33520   0.87244   0.46439   0.00000  Uiso   1.00
H435   H     0.46845   0.81287   0.10856   0.00000  Uiso   1.00
H436   H     0.50717   0.87274   0.40089   0.00000  Uiso   1.00
H437   H     0.66051   0.86848   0.11662   0.00000  Uiso   1.00
H438   H     0.36520   0.74737   0.36767   0.00000  Uiso   1.00
H439   H     0.66536   0.71720   0.44433   0.00000  Uiso   1.00
H440   H     0.36103   0.87803   0.03607   0.00000  Uiso   1.00
H441   H     0.56842   0.67992   0.25569   0.00000  Uiso   1.00
H442   H     0.43148   0.98675   0.24451   0.00000  Uiso   1.00
H443   H     0.33442   0.87197   0.28464   0.00000  Uiso   1.00
H444   H     0.66556   0.79466   0.21539   0.00000  Uiso   1.00
N445   N     0.64839   0.84735   0.26212   0.00000  Uiso   1.00
N446   N     0.35161   0.81932   0.23788   0.00000  Uiso   1.00
O447   O     0.46148   0.90476   0.24686   0.00000  Uiso   1.00
O448   O     0.53852   0.76191   0.25314   0.00000  Uiso   1.00
O449   O     0.56163   0.91420   0.25503   0.00000  Uiso   1.00
O450   O     0.43837   0.75247   0.24498   0.00000  Uiso   1.00
O451   O     0.42185   0.82597   0.30855   0.00000  Uiso   1.00
O452   O     0.57815   0.84070   0.19146   0.00000  Uiso   1.00
O453   O     0.52199   0.83540   0.31671   0.00000  Uiso   1.00
O454   O     0.47801   0.83126   0.18329   0.00000  Uiso   1.00
O455   O     0.42262   0.74046   0.07295   0.00000  Uiso   1.00
C456   C     0.45011   0.69600   0.06515   0.00000  Uiso   1.00
H457   H     0.50240   0.70753   0.05258   0.00000  Uiso   1.00
H458   H     0.42933   0.66746   0.04181   0.00000  Uiso   1.00
H459   H     0.44007   0.67562   0.09694   0.00000  Uiso   1.00
O460   O     0.59883   0.85094   0.40918   0.00000  Uiso   1.00
C461   C     0.59813   0.80114   0.38759   0.00000  Uiso   1.00
H462   H     0.55542   0.78710   0.37507   0.00000  Uiso   1.00
H463   H     0.60077   0.76968   0.40879   0.00000  Uiso   1.00
H464   H     0.63833   0.80572   0.35798   0.00000  Uiso   1.00
C465   C     0.84834   0.93334   0.25134   0.00000  Uiso   1.00
C466   C     0.81828   0.73332   0.24874   0.00000  Uiso   1.00
C467   C     0.76986   0.76676   0.03361   0.00000  Uiso   1.00
C468   C     0.90881   0.84444   0.45443   0.00000  Uiso   1.00
C469   C     0.72874   0.75043   0.00608   0.00000  Uiso   1.00
C470   C     0.95273   0.85616   0.48020   0.00000  Uiso   1.00
C471   C     0.85669   0.98938   0.25203   0.00000  Uiso   1.00
C472   C     0.80988   0.67729   0.24816   0.00000  Uiso   1.00
C473   C     0.79460   0.82810   0.33315   0.00000  Uiso   1.00
C474   C     0.87187   0.83687   0.16658   0.00000  Uiso   1.00
C475   C     0.77022   0.81380   0.37983   0.00000  Uiso   1.00
C476   C     0.89504   0.83855   0.11800   0.00000  Uiso   1.00
C477   C     0.70490   0.75044   0.43499   0.00000  Uiso   1.00
C478   C     0.97836   0.86188   0.05138   0.00000  Uiso   1.00
C479   C     0.72206   0.76886   0.39186   0.00000  Uiso   1.00
C480   C     0.95912   0.85653   0.09729   0.00000  Uiso   1.00
C481   C     0.80433   0.83738   0.41034   0.00000  Uiso   1.00
C482   C     0.85132   0.82311   0.09204   0.00000  Uiso   1.00
C483   C     0.79703   0.81169   0.44996   0.00000  Uiso   1.00
C484   C     0.87037   0.82416   0.04565   0.00000  Uiso   1.00
C485   C     0.74239   0.77164   0.46428   0.00000  Uiso   1.00
C486   C     0.93405   0.84746   0.02561   0.00000  Uiso   1.00
C487   C     0.84395   0.82245   0.47435   0.00000  Uiso   1.00
C488   C     0.82711   0.80525   0.01886   0.00000  Uiso   1.00
Cu489  Cu    0.77404   0.82775   0.24517   0.00000  Uiso   1.00
Cu490  Cu    0.89263   0.83892   0.25484   0.00000  Uiso   1.00
H491   H     0.68688   0.71956   0.01711   0.00000  Uiso   1.00
H492   H     0.66854   0.87244   0.46439   0.00000  Uiso   1.00
H493   H     0.80178   0.81287   0.10856   0.00000  Uiso   1.00
H494   H     0.84050   0.87274   0.40089   0.00000  Uiso   1.00
H495   H     0.99384   0.86848   0.11662   0.00000  Uiso   1.00
H496   H     0.69853   0.74737   0.36767   0.00000  Uiso   1.00
H497   H     0.99869   0.71720   0.44433   0.00000  Uiso   1.00
H498   H     0.69436   0.87803   0.03607   0.00000  Uiso   1.00
H499   H     0.90175   0.67992   0.25569   0.00000  Uiso   1.00
H500   H     0.76482   0.98675   0.24451   0.00000  Uiso   1.00
H501   H     0.66775   0.87197   0.28464   0.00000  Uiso   1.00
H502   H     0.99890   0.79466   0.21539   0.00000  Uiso   1.00
N503   N     0.98173   0.84735   0.26212   0.00000  Uiso   1.00
N504   N     0.68494   0.81932   0.23788   0.00000  Uiso   1.00
O505   O     0.79482   0.90476   0.24686   0.00000  Uiso   1.00
O506   O     0.87185   0.76191   0.25314   0.00000  Uiso   1.00
O507   O     0.89496   0.91420   0.25503   0.00000  Uiso   1.00
O508   O     0.77171   0.75247   0.24498   0.00000  Uiso   1.00
O509   O     0.75518   0.82597   0.30855   0.00000  Uiso   1.00
O510   O     0.91149   0.84070   0.19146   0.00000  Uiso   1.00
O511   O     0.85532   0.83540   0.31671   0.00000  Uiso   1.00
O512   O     0.81134   0.83126   0.18329   0.00000  Uiso   1.00
O513   O     0.75596   0.74046   0.07295   0.00000  Uiso   1.00
C514   C     0.78345   0.69600   0.06515   0.00000  Uiso   1.00
H515   H     0.83573   0.70753   0.05258   0.00000  Uiso   1.00
H516   H     0.76266   0.66746   0.04181   0.00000  Uiso   1.00
H517   H     0.77340   0.67562   0.09694   0.00000  Uiso   1.00
O518   O     0.93217   0.85094   0.40918   0.00000  Uiso   1.00
C519   C     0.93147   0.80114   0.38759   0.00000  Uiso   1.00
H520   H     0.88876   0.78710   0.37507   0.00000  Uiso   1.00
H521   H     0.93410   0.76968   0.40879   0.00000  Uiso   1.00
H522   H     0.97166   0.80572   0.35798   0.00000  Uiso   1.00
C523   C     0.18168   0.26668   0.75134   0.00000  Uiso   1.00
C524   C     0.15162   0.06666   0.74874   0.00000  Uiso   1.00
C525   C     0.10319   0.10009   0.53361   0.00000  Uiso   1.00
C526   C     0.24214   0.17777   0.95443   0.00000  Uiso   1.00
C527   C     0.06207   0.08376   0.50608   0.00000  Uiso   1.00
C528   C     0.28606   0.18950   0.98020   0.00000  Uiso   1.00
C529   C     0.19003   0.32271   0.75203   0.00000  Uiso   1.00
C530   C     0.14321   0.01063   0.74816   0.00000  Uiso   1.00
C531   C     0.12794   0.16143   0.83315   0.00000  Uiso   1.00
C532   C     0.20520   0.17020   0.66658   0.00000  Uiso   1.00
C533   C     0.10355   0.14713   0.87983   0.00000  Uiso   1.00
C534   C     0.22837   0.17189   0.61800   0.00000  Uiso   1.00
C535   C     0.03823   0.08377   0.93499   0.00000  Uiso   1.00
C536   C     0.31169   0.19521   0.55138   0.00000  Uiso   1.00
C537   C     0.05539   0.10219   0.89186   0.00000  Uiso   1.00
C538   C     0.29246   0.18986   0.59729   0.00000  Uiso   1.00
C539   C     0.13766   0.17072   0.91034   0.00000  Uiso   1.00
C540   C     0.18465   0.15645   0.59204   0.00000  Uiso   1.00
C541   C     0.13036   0.14502   0.94996   0.00000  Uiso   1.00
C542   C     0.20371   0.15749   0.54565   0.00000  Uiso   1.00
C543   C     0.07573   0.10498   0.96428   0.00000  Uiso   1.00
C544   C     0.26739   0.18079   0.52561   0.00000  Uiso   1.00
C545   C     0.17729   0.15579   0.97435   0.00000  Uiso   1.00
C546   C     0.16045   0.13859   0.51886   0.00000  Uiso   1.00
Cu547  Cu    0.10737   0.16108   0.74517   0.00000  Uiso   1.00
Cu548  Cu    0.22596   0.17225   0.75484   0.00000  Uiso   1.00
H549   H     0.02021   0.05290   0.51711   0.00000  Uiso   1.00
H550   H     0.00187   0.20577   0.96439   0.00000  Uiso   1.00
H551   H     0.13511   0.14621   0.60856   0.00000  Uiso   1.00
H552   H     0.17383   0.20608   0.90089   0.00000  Uiso   1.00
H553   H     0.32717   0.20182   0.61662   0.00000  Uiso   1.00
H554   H     0.03186   0.08070   0.86767   0.00000  Uiso   1.00
H555   H     0.33202   0.05053   0.94433   0.00000  Uiso   1.00
H556   H     0.02769   0.21136   0.53607   0.00000  Uiso   1.00
H557   H     0.23508   0.01326   0.75569   0.00000  Uiso   1.00
H558   H     0.09815   0.32009   0.74451   0.00000  Uiso   1.00
H559   H     0.00108   0.20531   0.78464   0.00000  Uiso   1.00
H560   H     0.33223   0.12800   0.71539   0.00000  Uiso   1.00
N561   N     0.31506   0.18068   0.76212   0.00000  Uiso   1.00
N562   N     0.01827   0.15265   0.73788   0.00000  Uiso   1.00
O563   O     0.12815   0.23809   0.74686   0.00000  Uiso   1.00
O564   O     0.20518   0.09524   0.75314   0.00000  Uiso   1.00
O565   O     0.22829   0.24753   0.75503   0.00000  Uiso   1.00
O566   O     0.10504   0.08580   0.74498   0.00000  Uiso   1.00
O567   O     0.08851   0.15930   0.80855   0.00000  Uiso   1.00
O568   O     0.24482   0.17403   0.69146   0.00000  Uiso   1.00
O569   O     0.18866   0.16874   0.81671   0.00000  Uiso   1.00
O570   O     0.14468   0.16460   0.68329   0.00000  Uiso   1.00
O571   O     0.08929   0.07379   0.57295   0.00000  Uiso   1.00
C572   C     0.11678   0.02933   0.56515   0.00000  Uiso   1.00
H573   H     0.16907   0.04087   0.55258   0.00000  Uiso   1.00
H574   H     0.09599   0.00079   0.54181   0.00000  Uiso   1.00
H575   H     0.10674   0.00895   0.59694   0.00000  Uiso   1.00
O576   O     0.26550   0.18427   0.90918   0.00000  Uiso   1.00
C577   C     0.26480   0.13448   0.88759   0.00000  Uiso   1.00
H578   H     0.22209   0.12044   0.87507   0.00000  Uiso   1.00
H579   H     0.26743   0.10302   0.90879   0.00000  Uiso   1.00
H580   H     0.30500   0.13906   0.85798   0.00000  Uiso   1.00
C581   C     0.51501   0.26668   0.75134   0.00000  Uiso   1.00
C582   C     0.48495   0.06666   0.74874   0.00000  Uiso   1.00
C583   C     0.43652   0.10009   0.53361   0.00000  Uiso   1.00
C584   C     0.57547   0.17777   0.95443   0.00000  Uiso   1.00
C585   C     0.39540   0.08376   0.50608   0.00000  Uiso   1.00
C586   C     0.61940   0.18950   0.98020   0.00000  Uiso   1.00
C587   C     0.52336   0.32271   0.75203   0.00000  Uiso   1.00
C588   C     0.47655   0.01063   0.74816   0.00000  Uiso   1.00
C589   C     0.46127   0.16143   0.83315   0.00000  Uiso   1.00
C590   C     0.53854   0.17020   0.66658   0.00000  Uiso   1.00
C591   C     0.43689   0.14713   0.87983   0.00000  Uiso   1.00
C592   C     0.56171   0.17189   0.61800   0.00000  Uiso   1.00
C593   C     0.37156   0.08377   0.93499   0.00000  Uiso   1.00
C594   C     0.64503   0.19521   0.55138   0.00000  Uiso   1.00
C595   C     0.38872   0.10219   0.89186   0.00000  Uiso   1.00
C596   C     0.62579   0.18986   0.59729   0.00000  Uiso   1.00
C597   C     0.47099   0.17072   0.91034   0.00000  Uiso   1.00
C598   C     0.51798   0.15645   0.59204   0.00000  Uiso   1.00
C599   C     0.46370   0.14502   0.94996   0.00000  Uiso   1.00
C600   C     0.53704   0.15749   0.54565   0.00000  Uiso   1.00
C601   C     0.40906   0.10498   0.96428   0.00000  Uiso   1.00
C602   C     0.60072   0.18079   0.52561   0.00000  Uiso   1.00
C603   C     0.51062   0.15579   0.97435   0.00000  Uiso   1.00
C604   C     0.49378   0.13859   0.51886   0.00000  Uiso   1.00
Cu605  Cu    0.44071   0.16108   0.74517   0.00000  Uiso   1.00
Cu606  Cu    0.55929   0.17225   0.75484   0.00000  Uiso   1.00
H607   H     0.35354   0.05290   0.51711   0.00000  Uiso   1.00
H608   H     0.33520   0.20577   0.96439   0.00000  Uiso   1.00
H609   H     0.46845   0.14621   0.60856   0.00000  Uiso   1.00
H610   H     0.50717   0.20608   0.90089   0.00000  Uiso   1.00
H611   H     0.66051   0.20182   0.61662   0.00000  Uiso   1.00
H612   H     0.36520   0.08070   0.86767   0.00000  Uiso   1.00
H613   H     0.66536   0.05053   0.94433   0.00000  Uiso   1.00
H614   H     0.36103   0.21136   0.53607   0.00000  Uiso   1.00
H615   H     0.56842   0.01326   0.75569   0.00000  Uiso   1.00
H616   H     0.43148   0.32009   0.74451   0.00000  Uiso   1.00
H617   H     0.33442   0.20531   0.78464   0.00000  Uiso   1.00
H618   H     0.66556   0.12800   0.71539   0.00000  Uiso   1.00
N619   N     0.64839   0.18068   0.76212   0.00000  Uiso   1.00
N620   N     0.35161   0.15265   0.73788   0.00000  Uiso   1.00
O621   O     0.46148   0.23809   0.74686   0.00000  Uiso   1.00
O622   O     0.53852   0.09524   0.75314   0.00000  Uiso   1.00
O623   O     0.56163   0.24753   0.75503   0.00000  Uiso   1.00
O624   O     0.43837   0.08580   0.74498   0.00000  Uiso   1.00
O625   O     0.42185   0.15930   0.80855   0.00000  Uiso   1.00
O626   O     0.57815   0.17403   0.69146   0.00000  Uiso   1.00
O627   O     0.52199   0.16874   0.81671   0.00000  Uiso   1.00
O628   O     0.47801   0.16460   0.68329   0.00000  Uiso   1.00
O629   O     0.42262   0.07379   0.57295   0.00000  Uiso   1.00
C630   C     0.45011   0.02933   0.56515   0.00000  Uiso   1.00
H631   H     0.50240   0.04087   0.55258   0.00000  Uiso   1.00
H632   H     0.42933   0.00079   0.54181   0.00000  Uiso   1.00
H633   H     0.44007   0.00895   0.59694   0.00000  Uiso   1.00
O634   O     0.59883   0.18427   0.90918   0.00000  Uiso   1.00
C635   C     0.59813   0.13448   0.88759   0.00000  Uiso   1.00
H636   H     0.55542   0.12044   0.87507   0.00000  Uiso   1.00
H637   H     0.60077   0.10302   0.90879   0.00000  Uiso   1.00
H638   H     0.63833   0.13906   0.85798   0.00000  Uiso   1.00
C639   C     0.84834   0.26668   0.75134   0.00000  Uiso   1.00
C640   C     0.81828   0.06666   0.74874   0.00000  Uiso   1.00
C641   C     0.76986   0.10009   0.53361   0.00000  Uiso   1.00
C642   C     0.90881   0.17777   0.95443   0.00000  Uiso   1.00
C643   C     0.72874   0.08376   0.50608   0.00000  Uiso   1.00
C644   C     0.95273   0.18950   0.98020   0.00000  Uiso   1.00
C645   C     0.85669   0.32271   0.75203   0.00000  Uiso   1.00
C646   C     0.80988   0.01063   0.74816   0.00000  Uiso   1.00
C647   C     0.79460   0.16143   0.83315   0.00000  Uiso   1.00
C648   C     0.87187   0.17020   0.66658   0.00000  Uiso   1.00
C649   C     0.77022   0.14713   0.87983   0.00000  Uiso   1.00
C650   C     0.89504   0.17189   0.61800   0.00000  Uiso   1.00
C651   C     0.70490   0.08377   0.93499   0.00000  Uiso   1.00
C652   C     0.97836   0.19521   0.55138   0.00000  Uiso   1.00
C653   C     0.72206   0.10219   0.89186   0.00000  Uiso   1.00
C654   C     0.95912   0.18986   0.59729   0.00000  Uiso   1.00
C655   C     0.80433   0.17072   0.91034   0.00000  Uiso   1.00
C656   C     0.85132   0.15645   0.59204   0.00000  Uiso   1.00
C657   C     0.79703   0.14502   0.94996   0.00000  Uiso   1.00
C658   C     0.87037   0.15749   0.54565   0.00000  Uiso   1.00
C659   C     0.74239   0.10498   0.96428   0.00000  Uiso   1.00
C660   C     0.93405   0.18079   0.52561   0.00000  Uiso   1.00
C661   C     0.84395   0.15579   0.97435   0.00000  Uiso   1.00
C662   C     0.82711   0.13859   0.51886   0.00000  Uiso   1.00
Cu663  Cu    0.77404   0.16108   0.74517   0.00000  Uiso   1.00
Cu664  Cu    0.89263   0.17225   0.75484   0.00000  Uiso   1.00
H665   H     0.68688   0.05290   0.51711   0.00000  Uiso   1.00
H666   H     0.66854   0.20577   0.96439   0.00000  Uiso   1.00
H667   H     0.80178   0.14621   0.60856   0.00000  Uiso   1.00
H668   H     0.84050   0.20608   0.90089   0.00000  Uiso   1.00
H669   H     0.99384   0.20182   0.61662   0.00000  Uiso   1.00
H670   H     0.69853   0.08070   0.86767   0.00000  Uiso   1.00
H671   H     0.99869   0.05053   0.94433   0.00000  Uiso   1.00
H672   H     0.69436   0.21136   0.53607   0.00000  Uiso   1.00
H673   H     0.90175   0.01326   0.75569   0.00000  Uiso   1.00
H674   H     0.76482   0.32009   0.74451   0.00000  Uiso   1.00
H675   H     0.66775   0.20531   0.78464   0.00000  Uiso   1.00
H676   H     0.99890   0.12800   0.71539   0.00000  Uiso   1.00
N677   N     0.98173   0.18068   0.76212   0.00000  Uiso   1.00
N678   N     0.68494   0.15265   0.73788   0.00000  Uiso   1.00
O679   O     0.79482   0.23809   0.74686   0.00000  Uiso   1.00
O680   O     0.87185   0.09524   0.75314   0.00000  Uiso   1.00
O681   O     0.89496   0.24753   0.75503   0.00000  Uiso   1.00
O682   O     0.77171   0.08580   0.74498   0.00000  Uiso   1.00
O683   O     0.75518   0.15930   0.80855   0.00000  Uiso   1.00
O684   O     0.91149   0.17403   0.69146   0.00000  Uiso   1.00
O685   O     0.85532   0.16874   0.81671   0.00000  Uiso   1.00
O686   O     0.81134   0.16460   0.68329   0.00000  Uiso   1.00
O687   O     0.75596   0.07379   0.57295   0.00000  Uiso   1.00
C688   C     0.78345   0.02933   0.56515   0.00000  Uiso   1.00
H689   H     0.83573   0.04087   0.55258   0.00000  Uiso   1.00
H690   H     0.76266   0.00079   0.54181   0.00000  Uiso   1.00
H691   H     0.77340   0.00895   0.59694   0.00000  Uiso   1.00
O692   O     0.93217   0.18427   0.90918   0.00000  Uiso   1.00
C693   C     0.93147   0.13448   0.88759   0.00000  Uiso   1.00
H694   H     0.88876   0.12044   0.87507   0.00000  Uiso   1.00
H695   H     0.93410   0.10302   0.90879   0.00000  Uiso   1.00
H696   H     0.97166   0.13906   0.85798   0.00000  Uiso   1.00
C697   C     0.18168   0.60001   0.75134   0.00000  Uiso   1.00
C698   C     0.15162   0.39999   0.74874   0.00000  Uiso   1.00
C699   C     0.10319   0.43342   0.53361   0.00000  Uiso   1.00
C700   C     0.24214   0.51110   0.95443   0.00000  Uiso   1.00
C701   C     0.06207   0.41709   0.50608   0.00000  Uiso   1.00
C702   C     0.28606   0.52283   0.98020   0.00000  Uiso   1.00
C703   C     0.19003   0.65605   0.75203   0.00000  Uiso   1.00
C704   C     0.14321   0.34396   0.74816   0.00000  Uiso   1.00
C705   C     0.12794   0.49476   0.83315   0.00000  Uiso   1.00
C706   C     0.20520   0.50353   0.66658   0.00000  Uiso   1.00
C707   C     0.10355   0.48046   0.87983   0.00000  Uiso   1.00
C708   C     0.22837   0.50522   0.61800   0.00000  Uiso   1.00
C709   C     0.03823   0.41711   0.93499   0.00000  Uiso   1.00
C710   C     0.31169   0.52854   0.55138   0.00000  Uiso   1.00
C711   C     0.05539   0.43553   0.89186   0.00000  Uiso   1.00
C712   C     0.29246   0.52320   0.59729   0.00000  Uiso   1.00
C713   C     0.13766   0.50405   0.91034   0.00000  Uiso   1.00
C714   C     0.18465   0.48978   0.59204   0.00000  Uiso   1.00
C715   C     0.13036   0.47835   0.94996   0.00000  Uiso   1.00
C716   C     0.20371   0.49083   0.54565   0.00000  Uiso   1.00
C717   C     0.07573   0.43831   0.96428   0.00000  Uiso   1.00
C718   C     0.26739   0.51413   0.52561   0.00000  Uiso   1.00
C719   C     0.17729   0.48912   0.97435   0.00000  Uiso   1.00
C720   C     0.16045   0.47192   0.51886   0.00000  Uiso   1.00
Cu721  Cu    0.10737   0.49441   0.74517   0.00000  Uiso   1.00
Cu722  Cu    0.22596   0.50559   0.75484   0.00000  Uiso   1.00
H723   H     0.02021   0.38623   0.51711   0.00000  Uiso   1.00
H724   H     0.00187   0.53911   0.96439   0.00000  Uiso   1.00
H725   H     0.13511   0.47954   0.60856   0.00000  Uiso   1.00
H726   H     0.17383   0.53941   0.90089   0.00000  Uiso   1.00
H727   H     0.32717   0.53515   0.61662   0.00000  Uiso   1.00
H728   H     0.03186   0.41403   0.86767   0.00000  Uiso   1.00
H729   H     0.33202   0.38387   0.94433   0.00000  Uiso   1.00
H730   H     0.02769   0.54470   0.53607   0.00000  Uiso   1.00
H731   H     0.23508   0.34659   0.75569   0.00000  Uiso   1.00
H732   H     0.09815   0.65342   0.74451   0.00000  Uiso   1.00
H733   H     0.00108   0.53864   0.78464   0.00000  Uiso   1.00
H734   H     0.33223   0.46133   0.71539   0.00000  Uiso   1.00
N735   N     0.31506   0.51401   0.76212   0.00000  Uiso   1.00
N736   N     0.01827   0.48599   0.73788   0.00000  Uiso   1.00
O737   O     0.12815   0.57142   0.74686   0.00000  Uiso   1.00
O738   O     0.20518   0.42858   0.75314   0.00000  Uiso   1.00
O739   O     0.22829   0.58086   0.75503   0.00000  Uiso   1.00
O740   O     0.10504   0.41914   0.74498   0.00000  Uiso   1.00
O741   O     0.08851   0.49263   0.80855   0.00000  Uiso   1.00
O742   O     0.24482   0.50737   0.69146   0.00000  Uiso   1.00
O743   O     0.18866   0.50207   0.81671   0.00000  Uiso   1.00
O744   O     0.14468   0.49793   0.68329   0.00000  Uiso   1.00
O745   O     0.08929   0.40712   0.57295   0.00000  Uiso   1.00
C746   C     0.11678   0.36267   0.56515   0.00000  Uiso   1.00
H747   H     0.16907   0.37420   0.55258   0.00000  Uiso   1.00
H748   H     0.09599   0.33413   0.54181   0.00000  Uiso   1.00
H749   H     0.10674   0.34228   0.59694   0.00000  Uiso   1.00
O750   O     0.26550   0.51760   0.90918   0.00000  Uiso   1.00
C751   C     0.26480   0.46781   0.88759   0.00000  Uiso   1.00
H752   H     0.22209   0.45377   0.87507   0.00000  Uiso   1.00
H753   H     0.26743   0.43635   0.90879   0.00000  Uiso   1.00
H754   H     0.30500   0.47239   0.85798   0.00000  Uiso   1.00
C755   C     0.51501   0.60001   0.75134   0.00000  Uiso   1.00
C756   C     0.48495   0.39999   0.74874   0.00000  Uiso   1.00
C757   C     0.43652   0.43342   0.53361   0.00000  Uiso   1.00
C758   C     0.57547   0.51110   0.95443   0.00000  Uiso   1.00
C759   C     0.39540   0.41709   0.50608   0.00000  Uiso   1.00
C760   C     0.61940   0.52283   0.98020   0.00000  Uiso   1.00
C761   C     0.52336   0.65605   0.75203   0.00000  Uiso   1.00
C762   C     0.47655   0.34396   0.74816   0.00000  Uiso   1.00
C763   C     0.46127   0.49476   0.83315   0.00000  Uiso   1.00
C764   C     0.53854   0.50353   0.66658   0.00000  Uiso   1.00
C765   C     0.43689   0.48046   0.87983   0.00000  Uiso   1.00
C766   C     0.56171   0.50522   0.61800   0.00000  Uiso   1.00
C767   C     0.37156   0.41711   0.93499   0.00000  Uiso   1.00
C768   C     0.64503   0.52854   0.55138   0.00000  Uiso   1.00
C769   C     0.38872   0.43553   0.89186   0.00000  Uiso   1.00
C770   C     0.62579   0.52320   0.59729   0.00000  Uiso   1.00
C771   C     0.47099   0.50405   0.91034   0.00000  Uiso   1.00
C772   C     0.51798   0.48978   0.59204   0.00000  Uiso   1.00
C773   C     0.46370   0.47835   0.94996   0.00000  Uiso   1.00
C774   C     0.53704   0.49083   0.54565   0.00000  Uiso   1.00
C775   C     0.40906   0.43831   0.96428   0.00000  Uiso   1.00
C776   C     0.60072   0.51413   0.52561   0.00000  Uiso   1.00
C777   C     0.51062   0.48912   0.97435   0.00000  Uiso   1.00
C778   C     0.49378   0.47192   0.51886   0.00000  Uiso   1.00
Cu779  Cu    0.44071   0.49441   0.74517   0.00000  Uiso   1.00
Cu780  Cu    0.55929   0.50559   0.75484   0.00000  Uiso   1.00
H781   H     0.35354   0.38623   0.51711   0.00000  Uiso   1.00
H782   H     0.33520   0.53911   0.96439   0.00000  Uiso   1.00
H783   H     0.46845   0.47954   0.60856   0.00000  Uiso   1.00
H784   H     0.50717   0.53941   0.90089   0.00000  Uiso   1.00
H785   H     0.66051   0.53515   0.61662   0.00000  Uiso   1.00
H786   H     0.36520   0.41403   0.86767   0.00000  Uiso   1.00
H787   H     0.66536   0.38387   0.94433   0.00000  Uiso   1.00
H788   H     0.36103   0.54470   0.53607   0.00000  Uiso   1.00
H789   H     0.56842   0.34659   0.75569   0.00000  Uiso   1.00
H790   H     0.43148   0.65342   0.74451   0.00000  Uiso   1.00
H791   H     0.33442   0.53864   0.78464   0.00000  Uiso   1.00
H792   H     0.66556   0.46133   0.71539   0.00000  Uiso   1.00
N793   N     0.64839   0.51401   0.76212   0.00000  Uiso   1.00
N794   N     0.35161   0.48599   0.73788   0.00000  Uiso   1.00
O795   O     0.46148   0.57142   0.74686   0.00000  Uiso   1.00
O796   O     0.53852   0.42858   0.75314   0.00000  Uiso   1.00
O797   O     0.56163   0.58086   0.75503   0.00000  Uiso   1.00
O798   O     0.43837   0.41914   0.74498   0.00000  Uiso   1.00
O799   O     0.42185   0.49263   0.80855   0.00000  Uiso   1.00
O800   O     0.57815   0.50737   0.69146   0.00000  Uiso   1.00
O801   O     0.52199   0.50207   0.81671   0.00000  Uiso   1.00
O802   O     0.47801   0.49793   0.68329   0.00000  Uiso   1.00
O803   O     0.42262   0.40712   0.57295   0.00000  Uiso   1.00
C804   C     0.45011   0.36267   0.56515   0.00000  Uiso   1.00
H805   H     0.50240   0.37420   0.55258   0.00000  Uiso   1.00
H806   H     0.42933   0.33413   0.54181   0.00000  Uiso   1.00
H807   H     0.44007   0.34228   0.59694   0.00000  Uiso   1.00
O808   O     0.59883   0.51760   0.90918   0.00000  Uiso   1.00
C809   C     0.59813   0.46781   0.88759   0.00000  Uiso   1.00
H810   H     0.55542   0.45377   0.87507   0.00000  Uiso   1.00
H811   H     0.60077   0.43635   0.90879   0.00000  Uiso   1.00
H812   H     0.63833   0.47239   0.85798   0.00000  Uiso   1.00
C813   C     0.84834   0.60001   0.75134   0.00000  Uiso   1.00
C814   C     0.81828   0.39999   0.74874   0.00000  Uiso   1.00
C815   C     0.76986   0.43342   0.53361   0.00000  Uiso   1.00
C816   C     0.90881   0.51110   0.95443   0.00000  Uiso   1.00
C817   C     0.72874   0.41709   0.50608   0.00000  Uiso   1.00
C818   C     0.95273   0.52283   0.98020   0.00000  Uiso   1.00
C819   C     0.85669   0.65605   0.75203   0.00000  Uiso   1.00
C820   C     0.80988   0.34396   0.74816   0.00000  Uiso   1.00
C821   C     0.79460   0.49476   0.83315   0.00000  Uiso   1.00
C822   C     0.87187   0.50353   0.66658   0.00000  Uiso   1.00
C823   C     0.77022   0.48046   0.87983   0.00000  Uiso   1.00
C824   C     0.89504   0.50522   0.61800   0.00000  Uiso   1.00
C825   C     0.70490   0.41711   0.93499   0.00000  Uiso   1.00
C826   C     0.97836   0.52854   0.55138   0.00000  Uiso   1.00
C827   C     0.72206   0.43553   0.89186   0.00000  Uiso   1.00
C828   C     0.95912   0.52320   0.59729   0.00000  Uiso   1.00
C829   C     0.80433   0.50405   0.91034   0.00000  Uiso   1.00
C830   C     0.85132   0.48978   0.59204   0.00000  Uiso   1.00
C831   C     0.79703   0.47835   0.94996   0.00000  Uiso   1.00
C832   C     0.87037   0.49083   0.54565   0.00000  Uiso   1.00
C833   C     0.74239   0.43831   0.96428   0.00000  Uiso   1.00
C834   C     0.93405   0.51413   0.52561   0.00000  Uiso   1.00
C835   C     0.84395   0.48912   0.97435   0.00000  Uiso   1.00
C836   C     0.82711   0.47192   0.51886   0.00000  Uiso   1.00
Cu837  Cu    0.77404   0.49441   0.74517   0.00000  Uiso   1.00
Cu838  Cu    0.89263   0.50559   0.75484   0.00000  Uiso   1.00
H839   H     0.68688   0.38623   0.51711   0.00000  Uiso   1.00
H840   H     0.66854   0.53911   0.96439   0.00000  Uiso   1.00
H841   H     0.80178   0.47954   0.60856   0.00000  Uiso   1.00
H842   H     0.84050   0.53941   0.90089   0.00000  Uiso   1.00
H843   H     0.99384   0.53515   0.61662   0.00000  Uiso   1.00
H844   H     0.69853   0.41403   0.86767   0.00000  Uiso   1.00
H845   H     0.99869   0.38387   0.94433   0.00000  Uiso   1.00
H846   H     0.69436   0.54470   0.53607   0.00000  Uiso   1.00
H847   H     0.90175   0.34659   0.75569   0.00000  Uiso   1.00
H848   H     0.76482   0.65342   0.74451   0.00000  Uiso   1.00
H849   H     0.66775   0.53864   0.78464   0.00000  Uiso   1.00
H850   H     0.99890   0.46133   0.71539   0.00000  Uiso   1.00
N851   N     0.98173   0.51401   0.76212   0.00000  Uiso   1.00
N852   N     0.68494   0.48599   0.73788   0.00000  Uiso   1.00
O853   O     0.79482   0.57142   0.74686   0.00000  Uiso   1.00
O854   O     0.87185   0.42858   0.75314   0.00000  Uiso   1.00
O855   O     0.89496   0.58086   0.75503   0.00000  Uiso   1.00
O856   O     0.77171   0.41914   0.74498   0.00000  Uiso   1.00
O857   O     0.75518   0.49263   0.80855   0.00000  Uiso   1.00
O858   O     0.91149   0.50737   0.69146   0.00000  Uiso   1.00
O859   O     0.85532   0.50207   0.81671   0.00000  Uiso   1.00
O860   O     0.81134   0.49793   0.68329   0.00000  Uiso   1.00
O861   O     0.75596   0.40712   0.57295   0.00000  Uiso   1.00
C862   C     0.78345   0.36267   0.56515   0.00000  Uiso   1.00
H863   H     0.83573   0.37420   0.55258   0.00000  Uiso   1.00
H864   H     0.76266   0.33413   0.54181   0.00000  Uiso   1.00
H865   H     0.77340   0.34228   0.59694   0.00000  Uiso   1.00
O866   O     0.93217   0.51760   0.90918   0.00000  Uiso   1.00
C867   C     0.93147   0.46781   0.88759   0.00000  Uiso   1.00
H868   H     0.88876   0.45377   0.87507   0.00000  Uiso   1.00
H869   H     0.93410   0.43635   0.90879   0.00000  Uiso   1.00
H870   H     0.97166   0.47239   0.85798   0.00000  Uiso   1.00
C871   C     0.18168   0.93334   0.75134   0.00000  Uiso   1.00
C872   C     0.15162   0.73332   0.74874   0.00000  Uiso   1.00
C873   C     0.10319   0.76676   0.53361   0.00000  Uiso   1.00
C874   C     0.24214   0.84444   0.95443   0.00000  Uiso   1.00
C875   C     0.06207   0.75043   0.50608   0.00000  Uiso   1.00
C876   C     0.28606   0.85616   0.98020   0.00000  Uiso   1.00
C877   C     0.19003   0.98938   0.75203   0.00000  Uiso   1.00
C878   C     0.14321   0.67729   0.74816   0.00000  Uiso   1.00
C879   C     0.12794   0.82810   0.83315   0.00000  Uiso   1.00
C880   C     0.20520   0.83687   0.66658   0.00000  Uiso   1.00
C881   C     0.10355   0.81380   0.87983   0.00000  Uiso   1.00
C882   C     0.22837   0.83855   0.61800   0.00000  Uiso   1.00
C883   C     0.03823   0.75044   0.93499   0.00000  Uiso   1.00
C884   C     0.31169   0.86188   0.55138   0.00000  Uiso   1.00
C885   C     0.05539   0.76886   0.89186   0.00000  Uiso   1.00
C886   C     0.29246   0.85653   0.59729   0.00000  Uiso   1.00
C887   C     0.13766   0.83738   0.91034   0.00000  Uiso   1.00
C888   C     0.18465   0.82311   0.59204   0.00000  Uiso   1.00
C889   C     0.13036   0.81169   0.94996   0.00000  Uiso   1.00
C890   C     0.20371   0.82416   0.54565   0.00000  Uiso   1.00
C891   C     0.07573   0.77164   0.96428   0.00000  Uiso   1.00
C892   C     0.26739   0.84746   0.52561   0.00000  Uiso   1.00
C893   C     0.17729   0.82245   0.97435   0.00000  Uiso   1.00
C894   C     0.16045   0.80525   0.51886   0.00000  Uiso   1.00
Cu895  Cu    0.10737   0.82775   0.74517   0.00000  Uiso   1.00
Cu896  Cu    0.22596   0.83892   0.75484   0.00000  Uiso   1.00
H897   H     0.02021   0.71956   0.51711   0.00000  Uiso   1.00
H898   H     0.00187   0.87244   0.96439   0.00000  Uiso   1.00
H899   H     0.13511   0.81287   0.60856   0.00000  Uiso   1.00
H900   H     0.17383   0.87274   0.90089   0.00000  Uiso   1.00
H901   H     0.32717   0.86848   0.61662   0.00000  Uiso   1.00
H902   H     0.03186   0.74737   0.86767   0.00000  Uiso   1.00
H903   H     0.33202   0.71720   0.94433   0.00000  Uiso   1.00
H904   H     0.02769   0.87803   0.53607   0.00000  Uiso   1.00
H905   H     0.23508   0.67992   0.75569   0.00000  Uiso   1.00
H906   H     0.09815   0.98675   0.74451   0.00000  Uiso   1.00
H907   H     0.00108   0.87197   0.78464   0.00000  Uiso   1.00
H908   H     0.33223   0.79466   0.71539   0.00000  Uiso   1.00
N909   N     0.31506   0.84735   0.76212   0.00000  Uiso   1.00
N910   N     0.01827   0.81932   0.73788   0.00000  Uiso   1.00
O911   O     0.12815   0.90476   0.74686   0.00000  Uiso   1.00
O912   O     0.20518   0.76191   0.75314   0.00000  Uiso   1.00
O913   O     0.22829   0.91420   0.75503   0.00000  Uiso   1.00
O914   O     0.10504   0.75247   0.74498   0.00000  Uiso   1.00
O915   O     0.08851   0.82597   0.80855   0.00000  Uiso   1.00
O916   O     0.24482   0.84070   0.69146   0.00000  Uiso   1.00
O917   O     0.18866   0.83540   0.81671   0.00000  Uiso   1.00
O918   O     0.14468   0.83126   0.68329   0.00000  Uiso   1.00
O919   O     0.08929   0.74046   0.57295   0.00000  Uiso   1.00
C920   C     0.11678   0.69600   0.56515   0.00000  Uiso   1.00
H921   H     0.16907   0.70753   0.55258   0.00000  Uiso   1.00
H922   H     0.09599   0.66746   0.54181   0.00000  Uiso   1.00
H923   H     0.10674   0.67562   0.59694   0.00000  Uiso   1.00
O924   O     0.26550   0.85094   0.90918   0.00000  Uiso   1.00
C925   C     0.26480   0.80114   0.88759   0.00000  Uiso   1.00
H926   H     0.22209   0.78710   0.87507   0.00000  Uiso   1.00
H927   H     0.26743   0.76968   0.90879   0.00000  Uiso   1.00
H928   H     0.30500   0.80572   0.85798   0.00000  Uiso   1.00
C929   C     0.51501   0.93334   0.75134   0.00000  Uiso   1.00
C930   C     0.48495   0.73332   0.74874   0.00000  Uiso   1.00
C931   C     0.43652   0.76676   0.53361   0.00000  Uiso   1.00
C932   C     0.57547   0.84444   0.95443   0.00000  Uiso   1.00
C933   C     0.39540   0.75043   0.50608   0.00000  Uiso   1.00
C934   C     0.61940   0.85616   0.98020   0.00000  Uiso   1.00
C935   C     0.52336   0.98938   0.75203   0.00000  Uiso   1.00
C936   C     0.47655   0.67729   0.74816   0.00000  Uiso   1.00
C937   C     0.46127   0.82810   0.83315   0.00000  Uiso   1.00
C938   C     0.53854   0.83687   0.66658   0.00000  Uiso   1.00
C939   C     0.43689   0.81380   0.87983   0.00000  Uiso   1.00
C940   C     0.56171   0.83855   0.61800   0.00000  Uiso   1.00
C941   C     0.37156   0.75044   0.93499   0.00000  Uiso   1.00
C942   C     0.64503   0.86188   0.55138   0.00000  Uiso   1.00
C943   C     0.38872   0.76886   0.89186   0.00000  Uiso   1.00
C944   C     0.62579   0.85653   0.59729   0.00000  Uiso   1.00
C945   C     0.47099   0.83738   0.91034   0.00000  Uiso   1.00
C946   C     0.51798   0.82311   0.59204   0.00000  Uiso   1.00
C947   C     0.46370   0.81169   0.94996   0.00000  Uiso   1.00
C948   C     0.53704   0.82416   0.54565   0.00000  Uiso   1.00
C949   C     0.40906   0.77164   0.96428   0.00000  Uiso   1.00
C950   C     0.60072   0.84746   0.52561   0.00000  Uiso   1.00
C951   C     0.51062   0.82245   0.97435   0.00000  Uiso   1.00
C952   C     0.49378   0.80525   0.51886   0.00000  Uiso   1.00
Cu953  Cu    0.44071   0.82775   0.74517   0.00000  Uiso   1.00
Cu954  Cu    0.55929   0.83892   0.75484   0.00000  Uiso   1.00
H955   H     0.35354   0.71956   0.51711   0.00000  Uiso   1.00
H956   H     0.33520   0.87244   0.96439   0.00000  Uiso   1.00
H957   H     0.46845   0.81287   0.60856   0.00000  Uiso   1.00
H958   H     0.50717   0.87274   0.90089   0.00000  Uiso   1.00
H959   H     0.66051   0.86848   0.61662   0.00000  Uiso   1.00
H960   H     0.36520   0.74737   0.86767   0.00000  Uiso   1.00
H961   H     0.66536   0.71720   0.94433   0.00000  Uiso   1.00
H962   H     0.36103   0.87803   0.53607   0.00000  Uiso   1.00
H963   H     0.56842   0.67992   0.75569   0.00000  Uiso   1.00
H964   H     0.43148   0.98675   0.74451   0.00000  Uiso   1.00
H965   H     0.33442   0.87197   0.78464   0.00000  Uiso   1.00
H966   H     0.66556   0.79466   0.71539   0.00000  Uiso   1.00
N967   N     0.64839   0.84735   0.76212   0.00000  Uiso   1.00
N968   N     0.35161   0.81932   0.73788   0.00000  Uiso   1.00
O969   O     0.46148   0.90476   0.74686   0.00000  Uiso   1.00
O970   O     0.53852   0.76191   0.75314   0.00000  Uiso   1.00
O971   O     0.56163   0.91420   0.75503   0.00000  Uiso   1.00
O972   O     0.43837   0.75247   0.74498   0.00000  Uiso   1.00
O973   O     0.42185   0.82597   0.80855   0.00000  Uiso   1.00
O974   O     0.57815   0.84070   0.69146   0.00000  Uiso   1.00
O975   O     0.52199   0.83540   0.81671   0.00000  Uiso   1.00
O976   O     0.47801   0.83126   0.68329   0.00000  Uiso   1.00
O977   O     0.42262   0.74046   0.57295   0.00000  Uiso   1.00
C978   C     0.45011   0.69600   0.56515   0.00000  Uiso   1.00
H979   H     0.50240   0.70753   0.55258   0.00000  Uiso   1.00
H980   H     0.42933   0.66746   0.54181   0.00000  Uiso   1.00
H981   H     0.44007   0.67562   0.59694   0.00000  Uiso   1.00
O982   O     0.59883   0.85094   0.90918   0.00000  Uiso   1.00
C983   C     0.59813   0.80114   0.88759   0.00000  Uiso   1.00
H984   H     0.55542   0.78710   0.87507   0.00000  Uiso   1.00
H985   H     0.60077   0.76968   0.90879   0.00000  Uiso   1.00
H986   H     0.63833   0.80572   0.85798   0.00000  Uiso   1.00
C987   C     0.84834   0.93334   0.75134   0.00000  Uiso   1.00
C988   C     0.81828   0.73332   0.74874   0.00000  Uiso   1.00
C989   C     0.76986   0.76676   0.53361   0.00000  Uiso   1.00
C990   C     0.90881   0.84444   0.95443   0.00000  Uiso   1.00
C991   C     0.72874   0.75043   0.50608   0.00000  Uiso   1.00
C992   C     0.95273   0.85616   0.98020   0.00000  Uiso   1.00
C993   C     0.85669   0.98938   0.75203   0.00000  Uiso   1.00
C994   C     0.80988   0.67729   0.74816   0.00000  Uiso   1.00
C995   C     0.79460   0.82810   0.83315   0.00000  Uiso   1.00
C996   C     0.87187   0.83687   0.66658   0.00000  Uiso   1.00
C997   C     0.77022   0.81380   0.87983   0.00000  Uiso   1.00
C998   C     0.89504   0.83855   0.61800   0.00000  Uiso   1.00
C999   C     0.70490   0.75044   0.93499   0.00000  Uiso   1.00
C1000  C     0.97836   0.86188   0.55138   0.00000  Uiso   1.00
C1001  C     0.72206   0.76886   0.89186   0.00000  Uiso   1.00
C1002  C     0.95912   0.85653   0.59729   0.00000  Uiso   1.00
C1003  C     0.80433   0.83738   0.91034   0.00000  Uiso   1.00
C1004  C     0.85132   0.82311   0.59204   0.00000  Uiso   1.00
C1005  C     0.79703   0.81169   0.94996   0.00000  Uiso   1.00
C1006  C     0.87037   0.82416   0.54565   0.00000  Uiso   1.00
C1007  C     0.74239   0.77164   0.96428   0.00000  Uiso   1.00
C1008  C     0.93405   0.84746   0.52561   0.00000  Uiso   1.00
C1009  C     0.84395   0.82245   0.97435   0.00000  Uiso   1.00
C1010  C     0.82711   0.80525   0.51886   0.00000  Uiso   1.00
Cu1011 Cu    0.77404   0.82775   0.74517   0.00000  Uiso   1.00
Cu1012 Cu    0.89263   0.83892   0.75484   0.00000  Uiso   1.00
H1013  H     0.68688   0.71956   0.51711   0.00000  Uiso   1.00
H1014  H     0.66854   0.87244   0.96439   0.00000  Uiso   1.00
H1015  H     0.80178   0.81287   0.60856   0.00000  Uiso   1.00
H1016  H     0.84050   0.87274   0.90089   0.00000  Uiso   1.00
H1017  H     0.99384   0.86848   0.61662   0.00000  Uiso   1.00
H1018  H     0.69853   0.74737   0.86767   0.00000  Uiso   1.00
H1019  H     0.99869   0.71720   0.94433   0.00000  Uiso   1.00
H1020  H     0.69436   0.87803   0.53607   0.00000  Uiso   1.00
H1021  H     0.90175   0.67992   0.75569   0.00000  Uiso   1.00
H1022  H     0.76482   0.98675   0.74451   0.00000  Uiso   1.00
H1023  H     0.66775   0.87197   0.78464   0.00000  Uiso   1.00
H1024  H     0.99890   0.79466   0.71539   0.00000  Uiso   1.00
N1025  N     0.98173   0.84735   0.76212   0.00000  Uiso   1.00
N1026  N     0.68494   0.81932   0.73788   0.00000  Uiso   1.00
O1027  O     0.79482   0.90476   0.74686   0.00000  Uiso   1.00
O1028  O     0.87185   0.76191   0.75314   0.00000  Uiso   1.00
O1029  O     0.89496   0.91420   0.75503   0.00000  Uiso   1.00
O1030  O     0.77171   0.75247   0.74498   0.00000  Uiso   1.00
O1031  O     0.75518   0.82597   0.80855   0.00000  Uiso   1.00
O1032  O     0.91149   0.84070   0.69146   0.00000  Uiso   1.00
O1033  O     0.85532   0.83540   0.81671   0.00000  Uiso   1.00
O1034  O     0.81134   0.83126   0.68329   0.00000  Uiso   1.00
O1035  O     0.75596   0.74046   0.57295   0.00000  Uiso   1.00
C1036  C     0.78345   0.69600   0.56515   0.00000  Uiso   1.00
H1037  H     0.83573   0.70753   0.55258   0.00000  Uiso   1.00
H1038  H     0.76266   0.66746   0.54181   0.00000  Uiso   1.00
H1039  H     0.77340   0.67562   0.59694   0.00000  Uiso   1.00
O1040  O     0.93217   0.85094   0.90918   0.00000  Uiso   1.00
C1041  C     0.93147   0.80114   0.88759   0.00000  Uiso   1.00
H1042  H     0.88876   0.78710   0.87507   0.00000  Uiso   1.00
H1043  H     0.93410   0.76968   0.90879   0.00000  Uiso   1.00
H1044  H     0.97166   0.80572   0.85798   0.00000  Uiso   1.00
loop_
_geom_bond_atom_site_label_1
_geom_bond_atom_site_label_2
_geom_bond_distance
_geom_bond_site_symmetry_2
_ccdc_geom_bond_type
C1     C7      1.428   .     S
C1     O41     1.295   .     A
C1     O43     1.291   .     A
C2     O42     1.295   .     A
C2     C8      1.428   .     S
C2     O44     1.291   .     A
C3     O49     1.383   .     S
C3     C5      1.396   .     A
C3     C24     1.429   .     A
C4     C6      1.396   .     A
C4     C23     1.428   .     A
C4     O54     1.386   .     S
C5     H27     1.084   .     S
C5     C543    1.391   1_554 S
C6     C544    1.394   .     S
C6     H86     1.085   .     S
C7     C182    1.329   .     S
C7     H209    1.088   .     S
C8     C355    1.329   1_545 S
C8     H384    1.088   1_545 S
C9     C11     1.465   .     S
C9     O45     1.304   .     A
C9     O47     1.301   .     A
C10    O46     1.308   .     A
C10    C12     1.475   .     S
C10    O48     1.302   .     A
C11    C15     1.399   .     A
C11    C17     1.396   .     A
C12    C18     1.402   .     A
C12    C16     1.401   .     A
C13    C15     1.394   .     A
C13    C21     1.400   .     A
C13    H149    1.084   1_455 S
C14    C22     1.406   .     A
C14    C16     1.397   .     A
C14    H92     1.084   .     S
C15    H32     1.083   .     S
C16    H31     1.083   .     S
C17    H30     1.081   .     S
C17    C19     1.407   .     A
C18    H29     1.078   .     S
C18    C20     1.404   .     A
C19    C23     1.420   .     A
C19    C21     1.412   .     A
C20    C22     1.415   .     A
C20    C24     1.423   .     A
C21    C527    1.391   .     S
C22    C528    1.394   1_554 S
C23    C546    1.424   .     S
C24    C545    1.424   1_554 S
Cu25   O48     1.901   .     S
Cu25   O44     1.950   .     S
Cu25   N40     2.031   .     S
Cu25   O41     1.953   .     S
Cu25   O45     1.920   .     S
Cu25   Cu26    2.703   .     S
Cu26   O47     1.901   .     S
Cu26   O43     1.950   .     S
Cu26   N39     2.031   .     S
Cu26   O46     1.920   .     S
Cu26   O42     1.953   .     S
H28    C122    1.085   1_455 S
H33    C71     1.084   .     S
H34    C130    1.084   1_455 S
H35    C355    1.088   1_545 S
H36    C182    1.088   .     S
H37    N155    1.029   1_455 S
H38    N98     1.029   .     S
N39    H95     1.029   .     S
N39    N98     1.286   .     S
N40    H154    1.029   1_455 S
N40    N155    1.286   1_455 S
O49    C50     1.411   .     S
C50    H52     1.113   .     S
C50    H51     1.114   .     S
C50    H53     1.109   .     S
O54    C55     1.416   .     S
C55    H56     1.103   .     S
C55    H57     1.113   .     S
C55    H58     1.106   .     S
C59    C65     1.428   .     S
C59    O99     1.295   .     A
C59    O101    1.291   .     A
C60    O100    1.295   .     A
C60    C66     1.428   .     S
C60    O102    1.291   .     A
C61    O107    1.383   .     S
C61    C63     1.396   .     A
C61    C82     1.429   .     A
C62    C64     1.396   .     A
C62    C81     1.428   .     A
C62    O112    1.386   .     S
C63    H85     1.084   .     S
C63    C601    1.391   1_554 S
C64    C602    1.394   .     S
C64    H144    1.085   .     S
C65    C240    1.329   .     S
C65    H267    1.088   .     S
C66    C413    1.329   1_545 S
C66    H442    1.088   1_545 S
C67    C69     1.465   .     S
C67    O103    1.304   .     A
C67    O105    1.301   .     A
C68    O104    1.308   .     A
C68    C70     1.475   .     S
C68    O106    1.302   .     A
C69    C73     1.399   .     A
C69    C75     1.396   .     A
C70    C76     1.402   .     A
C70    C74     1.401   .     A
C71    C73     1.394   .     A
C71    C79     1.400   .     A
C72    C80     1.406   .     A
C72    C74     1.397   .     A
C72    H150    1.084   .     S
C73    H90     1.083   .     S
C74    H89     1.083   .     S
C75    H88     1.081   .     S
C75    C77     1.407   .     A
C76    H87     1.078   .     S
C76    C78     1.404   .     A
C77    C81     1.420   .     A
C77    C79     1.412   .     A
C78    C80     1.415   .     A
C78    C82     1.423   .     A
C79    C585    1.391   .     S
C80    C586    1.394   1_554 S
C81    C604    1.424   .     S
C82    C603    1.424   1_554 S
Cu83   O106    1.901   .     S
Cu83   O102    1.950   .     S
Cu83   N98     2.031   .     S
Cu83   O99     1.953   .     S
Cu83   O103    1.920   .     S
Cu83   Cu84    2.703   .     S
Cu84   O105    1.901   .     S
Cu84   O101    1.950   .     S
Cu84   N97     2.031   .     S
Cu84   O104    1.920   .     S
Cu84   O100    1.953   .     S
H91    C129    1.084   .     S
H93    C413    1.088   1_545 S
H94    C240    1.088   .     S
H96    N156    1.029   .     S
N97    H153    1.029   .     S
N97    N156    1.286   .     S
O107   C108    1.411   .     S
C108   H110    1.113   .     S
C108   H109    1.114   .     S
C108   H111    1.109   .     S
O112   C113    1.416   .     S
C113   H114    1.103   .     S
C113   H115    1.113   .     S
C113   H116    1.106   .     S
C117   C123    1.428   .     S
C117   O157    1.295   .     A
C117   O159    1.291   .     A
C118   O158    1.295   .     A
C118   C124    1.428   .     S
C118   O160    1.291   .     A
C119   O165    1.383   .     S
C119   C121    1.396   .     A
C119   C140    1.429   .     A
C120   C122    1.396   .     A
C120   C139    1.428   .     A
C120   O170    1.386   .     S
C121   H143    1.084   .     S
C121   C659    1.391   1_554 S
C122   C660    1.394   .     S
C122   H28     1.085   1_655 S
C123   C298    1.329   .     S
C123   H325    1.088   .     S
C124   C471    1.329   1_545 S
C124   H500    1.088   1_545 S
C125   C127    1.465   .     S
C125   O161    1.304   .     A
C125   O163    1.301   .     A
C126   O162    1.308   .     A
C126   C128    1.475   .     S
C126   O164    1.302   .     A
C127   C131    1.399   .     A
C127   C133    1.396   .     A
C128   C134    1.402   .     A
C128   C132    1.401   .     A
C129   C131    1.394   .     A
C129   C137    1.400   .     A
C130   C138    1.406   .     A
C130   C132    1.397   .     A
C130   H34     1.084   1_655 S
C131   H148    1.083   .     S
C132   H147    1.083   .     S
C133   H146    1.081   .     S
C133   C135    1.407   .     A
C134   H145    1.078   .     S
C134   C136    1.404   .     A
C135   C139    1.420   .     A
C135   C137    1.412   .     A
C136   C138    1.415   .     A
C136   C140    1.423   .     A
C137   C643    1.391   .     S
C138   C644    1.394   1_554 S
C139   C662    1.424   .     S
C140   C661    1.424   1_554 S
Cu141  O164    1.901   .     S
Cu141  O160    1.950   .     S
Cu141  N156    2.031   .     S
Cu141  O157    1.953   .     S
Cu141  O161    1.920   .     S
Cu141  Cu142   2.703   .     S
Cu142  O163    1.901   .     S
Cu142  O159    1.950   .     S
Cu142  N155    2.031   .     S
Cu142  O162    1.920   .     S
Cu142  O158    1.953   .     S
H149   C13     1.084   1_655 S
H151   C471    1.088   1_545 S
H152   C298    1.088   .     S
H154   N40     1.029   1_655 S
N155   H37     1.029   1_655 S
N155   N40     1.286   1_655 S
O165   C166    1.411   .     S
C166   H168    1.113   .     S
C166   H167    1.114   .     S
C166   H169    1.109   .     S
O170   C171    1.416   .     S
C171   H172    1.103   .     S
C171   H173    1.113   .     S
C171   H174    1.106   .     S
C175   C181    1.428   .     S
C175   O215    1.295   .     A
C175   O217    1.291   .     A
C176   O216    1.295   .     A
C176   C182    1.428   .     S
C176   O218    1.291   .     A
C177   O223    1.383   .     S
C177   C179    1.396   .     A
C177   C198    1.429   .     A
C178   C180    1.396   .     A
C178   C197    1.428   .     A
C178   O228    1.386   .     S
C179   H201    1.084   .     S
C179   C717    1.391   1_554 S
C180   C718    1.394   .     S
C180   H260    1.085   .     S
C181   C356    1.329   .     S
C181   H383    1.088   .     S
C183   C185    1.465   .     S
C183   O219    1.304   .     A
C183   O221    1.301   .     A
C184   O220    1.308   .     A
C184   C186    1.475   .     S
C184   O222    1.302   .     A
C185   C189    1.399   .     A
C185   C191    1.396   .     A
C186   C192    1.402   .     A
C186   C190    1.401   .     A
C187   C189    1.394   .     A
C187   C195    1.400   .     A
C187   H323    1.084   1_455 S
C188   C196    1.406   .     A
C188   C190    1.397   .     A
C188   H266    1.084   .     S
C189   H206    1.083   .     S
C190   H205    1.083   .     S
C191   H204    1.081   .     S
C191   C193    1.407   .     A
C192   H203    1.078   .     S
C192   C194    1.404   .     A
C193   C197    1.420   .     A
C193   C195    1.412   .     A
C194   C196    1.415   .     A
C194   C198    1.423   .     A
C195   C701    1.391   .     S
C196   C702    1.394   1_554 S
C197   C720    1.424   .     S
C198   C719    1.424   1_554 S
Cu199  O222    1.901   .     S
Cu199  O218    1.950   .     S
Cu199  N214    2.031   .     S
Cu199  O215    1.953   .     S
Cu199  O219    1.920   .     S
Cu199  Cu200   2.703   .     S
Cu200  O221    1.901   .     S
Cu200  O217    1.950   .     S
Cu200  N213    2.031   .     S
Cu200  O220    1.920   .     S
Cu200  O216    1.953   .     S
H202   C296    1.085   1_455 S
H207   C245    1.084   .     S
H208   C304    1.084   1_455 S
H210   C356    1.088   .     S
H211   N329    1.029   1_455 S
H212   N272    1.029   .     S
N213   H269    1.029   .     S
N213   N272    1.286   .     S
N214   H328    1.029   1_455 S
N214   N329    1.286   1_455 S
O223   C224    1.411   .     S
C224   H226    1.113   .     S
C224   H225    1.114   .     S
C224   H227    1.109   .     S
O228   C229    1.416   .     S
C229   H230    1.103   .     S
C229   H231    1.113   .     S
C229   H232    1.106   .     S
C233   C239    1.428   .     S
C233   O273    1.295   .     A
C233   O275    1.291   .     A
C234   O274    1.295   .     A
C234   C240    1.428   .     S
C234   O276    1.291   .     A
C235   O281    1.383   .     S
C235   C237    1.396   .     A
C235   C256    1.429   .     A
C236   C238    1.396   .     A
C236   C255    1.428   .     A
C236   O286    1.386   .     S
C237   H259    1.084   .     S
C237   C775    1.391   1_554 S
C238   C776    1.394   .     S
C238   H318    1.085   .     S
C239   C414    1.329   .     S
C239   H441    1.088   .     S
C241   C243    1.465   .     S
C241   O277    1.304   .     A
C241   O279    1.301   .     A
C242   O278    1.308   .     A
C242   C244    1.475   .     S
C242   O280    1.302   .     A
C243   C247    1.399   .     A
C243   C249    1.396   .     A
C244   C250    1.402   .     A
C244   C248    1.401   .     A
C245   C247    1.394   .     A
C245   C253    1.400   .     A
C246   C254    1.406   .     A
C246   C248    1.397   .     A
C246   H324    1.084   .     S
C247   H264    1.083   .     S
C248   H263    1.083   .     S
C249   H262    1.081   .     S
C249   C251    1.407   .     A
C250   H261    1.078   .     S
C250   C252    1.404   .     A
C251   C255    1.420   .     A
C251   C253    1.412   .     A
C252   C254    1.415   .     A
C252   C256    1.423   .     A
C253   C759    1.391   .     S
C254   C760    1.394   1_554 S
C255   C778    1.424   .     S
C256   C777    1.424   1_554 S
Cu257  O280    1.901   .     S
Cu257  O276    1.950   .     S
Cu257  N272    2.031   .     S
Cu257  O273    1.953   .     S
Cu257  O277    1.920   .     S
Cu257  Cu258   2.703   .     S
Cu258  O279    1.901   .     S
Cu258  O275    1.950   .     S
Cu258  N271    2.031   .     S
Cu258  O278    1.920   .     S
Cu258  O274    1.953   .     S
H265   C303    1.084   .     S
H268   C414    1.088   .     S
H270   N330    1.029   .     S
N271   H327    1.029   .     S
N271   N330    1.286   .     S
O281   C282    1.411   .     S
C282   H284    1.113   .     S
C282   H283    1.114   .     S
C282   H285    1.109   .     S
O286   C287    1.416   .     S
C287   H288    1.103   .     S
C287   H289    1.113   .     S
C287   H290    1.106   .     S
C291   C297    1.428   .     S
C291   O331    1.295   .     A
C291   O333    1.291   .     A
C292   O332    1.295   .     A
C292   C298    1.428   .     S
C292   O334    1.291   .     A
C293   O339    1.383   .     S
C293   C295    1.396   .     A
C293   C314    1.429   .     A
C294   C296    1.396   .     A
C294   C313    1.428   .     A
C294   O344    1.386   .     S
C295   H317    1.084   .     S
C295   C833    1.391   1_554 S
C296   C834    1.394   .     S
C296   H202    1.085   1_655 S
C297   C472    1.329   .     S
C297   H499    1.088   .     S
C299   C301    1.465   .     S
C299   O335    1.304   .     A
C299   O337    1.301   .     A
C300   O336    1.308   .     A
C300   C302    1.475   .     S
C300   O338    1.302   .     A
C301   C305    1.399   .     A
C301   C307    1.396   .     A
C302   C308    1.402   .     A
C302   C306    1.401   .     A
C303   C305    1.394   .     A
C303   C311    1.400   .     A
C304   C312    1.406   .     A
C304   C306    1.397   .     A
C304   H208    1.084   1_655 S
C305   H322    1.083   .     S
C306   H321    1.083   .     S
C307   H320    1.081   .     S
C307   C309    1.407   .     A
C308   H319    1.078   .     S
C308   C310    1.404   .     A
C309   C313    1.420   .     A
C309   C311    1.412   .     A
C310   C312    1.415   .     A
C310   C314    1.423   .     A
C311   C817    1.391   .     S
C312   C818    1.394   1_554 S
C313   C836    1.424   .     S
C314   C835    1.424   1_554 S
Cu315  O338    1.901   .     S
Cu315  O334    1.950   .     S
Cu315  N330    2.031   .     S
Cu315  O331    1.953   .     S
Cu315  O335    1.920   .     S
Cu315  Cu316   2.703   .     S
Cu316  O337    1.901   .     S
Cu316  O333    1.950   .     S
Cu316  N329    2.031   .     S
Cu316  O336    1.920   .     S
Cu316  O332    1.953   .     S
H323   C187    1.084   1_655 S
H326   C472    1.088   .     S
H328   N214    1.029   1_655 S
N329   H211    1.029   1_655 S
N329   N214    1.286   1_655 S
O339   C340    1.411   .     S
C340   H342    1.113   .     S
C340   H341    1.114   .     S
C340   H343    1.109   .     S
O344   C345    1.416   .     S
C345   H346    1.103   .     S
C345   H347    1.113   .     S
C345   H348    1.106   .     S
C349   C355    1.428   .     S
C349   O389    1.295   .     A
C349   O391    1.291   .     A
C350   O390    1.295   .     A
C350   C356    1.428   .     S
C350   O392    1.291   .     A
C351   O397    1.383   .     S
C351   C353    1.396   .     A
C351   C372    1.429   .     A
C352   C354    1.396   .     A
C352   C371    1.428   .     A
C352   O402    1.386   .     S
C353   H375    1.084   .     S
C353   C891    1.391   1_554 S
C354   C892    1.394   .     S
C354   H434    1.085   .     S
C355   C8      1.329   1_565 S
C355   H35     1.088   1_565 S
C357   C359    1.465   .     S
C357   O393    1.304   .     A
C357   O395    1.301   .     A
C358   O394    1.308   .     A
C358   C360    1.475   .     S
C358   O396    1.302   .     A
C359   C363    1.399   .     A
C359   C365    1.396   .     A
C360   C366    1.402   .     A
C360   C364    1.401   .     A
C361   C363    1.394   .     A
C361   C369    1.400   .     A
C361   H497    1.084   1_455 S
C362   C370    1.406   .     A
C362   C364    1.397   .     A
C362   H440    1.084   .     S
C363   H380    1.083   .     S
C364   H379    1.083   .     S
C365   H378    1.081   .     S
C365   C367    1.407   .     A
C366   H377    1.078   .     S
C366   C368    1.404   .     A
C367   C371    1.420   .     A
C367   C369    1.412   .     A
C368   C370    1.415   .     A
C368   C372    1.423   .     A
C369   C875    1.391   .     S
C370   C876    1.394   1_554 S
C371   C894    1.424   .     S
C372   C893    1.424   1_554 S
Cu373  O396    1.901   .     S
Cu373  O392    1.950   .     S
Cu373  N388    2.031   .     S
Cu373  O389    1.953   .     S
Cu373  O393    1.920   .     S
Cu373  Cu374   2.703   .     S
Cu374  O395    1.901   .     S
Cu374  O391    1.950   .     S
Cu374  N387    2.031   .     S
Cu374  O394    1.920   .     S
Cu374  O390    1.953   .     S
H376   C470    1.085   1_455 S
H381   C419    1.084   .     S
H382   C478    1.084   1_455 S
H384   C8      1.088   1_565 S
H385   N503    1.029   1_455 S
H386   N446    1.029   .     S
N387   H443    1.029   .     S
N387   N446    1.286   .     S
N388   H502    1.029   1_455 S
N388   N503    1.286   1_455 S
O397   C398    1.411   .     S
C398   H400    1.113   .     S
C398   H399    1.114   .     S
C398   H401    1.109   .     S
O402   C403    1.416   .     S
C403   H404    1.103   .     S
C403   H405    1.113   .     S
C403   H406    1.106   .     S
C407   C413    1.428   .     S
C407   O447    1.295   .     A
C407   O449    1.291   .     A
C408   O448    1.295   .     A
C408   C414    1.428   .     S
C408   O450    1.291   .     A
C409   O455    1.383   .     S
C409   C411    1.396   .     A
C409   C430    1.429   .     A
C410   C412    1.396   .     A
C410   C429    1.428   .     A
C410   O460    1.386   .     S
C411   H433    1.084   .     S
C411   C949    1.391   1_554 S
C412   C950    1.394   .     S
C412   H492    1.085   .     S
C413   C66     1.329   1_565 S
C413   H93     1.088   1_565 S
C415   C417    1.465   .     S
C415   O451    1.304   .     A
C415   O453    1.301   .     A
C416   O452    1.308   .     A
C416   C418    1.475   .     S
C416   O454    1.302   .     A
C417   C421    1.399   .     A
C417   C423    1.396   .     A
C418   C424    1.402   .     A
C418   C422    1.401   .     A
C419   C421    1.394   .     A
C419   C427    1.400   .     A
C420   C428    1.406   .     A
C420   C422    1.397   .     A
C420   H498    1.084   .     S
C421   H438    1.083   .     S
C422   H437    1.083   .     S
C423   H436    1.081   .     S
C423   C425    1.407   .     A
C424   H435    1.078   .     S
C424   C426    1.404   .     A
C425   C429    1.420   .     A
C425   C427    1.412   .     A
C426   C428    1.415   .     A
C426   C430    1.423   .     A
C427   C933    1.391   .     S
C428   C934    1.394   1_554 S
C429   C952    1.424   .     S
C430   C951    1.424   1_554 S
Cu431  O454    1.901   .     S
Cu431  O450    1.950   .     S
Cu431  N446    2.031   .     S
Cu431  O447    1.953   .     S
Cu431  O451    1.920   .     S
Cu431  Cu432   2.703   .     S
Cu432  O453    1.901   .     S
Cu432  O449    1.950   .     S
Cu432  N445    2.031   .     S
Cu432  O452    1.920   .     S
Cu432  O448    1.953   .     S
H439   C477    1.084   .     S
H442   C66     1.088   1_565 S
H444   N504    1.029   .     S
N445   H501    1.029   .     S
N445   N504    1.286   .     S
O455   C456    1.411   .     S
C456   H458    1.113   .     S
C456   H457    1.114   .     S
C456   H459    1.109   .     S
O460   C461    1.416   .     S
C461   H462    1.103   .     S
C461   H463    1.113   .     S
C461   H464    1.106   .     S
C465   C471    1.428   .     S
C465   O505    1.295   .     A
C465   O507    1.291   .     A
C466   O506    1.295   .     A
C466   C472    1.428   .     S
C466   O508    1.291   .     A
C467   O513    1.383   .     S
C467   C469    1.396   .     A
C467   C488    1.429   .     A
C468   C470    1.396   .     A
C468   C487    1.428   .     A
C468   O518    1.386   .     S
C469   H491    1.084   .     S
C469   C1007   1.391   1_554 S
C470   C1008   1.394   .     S
C470   H376    1.085   1_655 S
C471   C124    1.329   1_565 S
C471   H151    1.088   1_565 S
C473   C475    1.465   .     S
C473   O509    1.304   .     A
C473   O511    1.301   .     A
C474   O510    1.308   .     A
C474   C476    1.475   .     S
C474   O512    1.302   .     A
C475   C479    1.399   .     A
C475   C481    1.396   .     A
C476   C482    1.402   .     A
C476   C480    1.401   .     A
C477   C479    1.394   .     A
C477   C485    1.400   .     A
C478   C486    1.406   .     A
C478   C480    1.397   .     A
C478   H382    1.084   1_655 S
C479   H496    1.083   .     S
C480   H495    1.083   .     S
C481   H494    1.081   .     S
C481   C483    1.407   .     A
C482   H493    1.078   .     S
C482   C484    1.404   .     A
C483   C487    1.420   .     A
C483   C485    1.412   .     A
C484   C486    1.415   .     A
C484   C488    1.423   .     A
C485   C991    1.391   .     S
C486   C992    1.394   1_554 S
C487   C1010   1.424   .     S
C488   C1009   1.424   1_554 S
Cu489  O512    1.901   .     S
Cu489  O508    1.950   .     S
Cu489  N504    2.031   .     S
Cu489  O505    1.953   .     S
Cu489  O509    1.920   .     S
Cu489  Cu490   2.703   .     S
Cu490  O511    1.901   .     S
Cu490  O507    1.950   .     S
Cu490  N503    2.031   .     S
Cu490  O510    1.920   .     S
Cu490  O506    1.953   .     S
H497   C361    1.084   1_655 S
H500   C124    1.088   1_565 S
H502   N388    1.029   1_655 S
N503   H385    1.029   1_655 S
N503   N388    1.286   1_655 S
O513   C514    1.411   .     S
C514   H516    1.113   .     S
C514   H515    1.114   .     S
C514   H517    1.109   .     S
O518   C519    1.416   .     S
C519   H520    1.103   .     S
C519   H521    1.113   .     S
C519   H522    1.106   .     S
C523   C529    1.428   .     S
C523   O563    1.295   .     A
C523   O565    1.291   .     A
C524   O564    1.295   .     A
C524   C530    1.428   .     S
C524   O566    1.291   .     A
C525   O571    1.383   .     S
C525   C527    1.396   .     A
C525   C546    1.429   .     A
C526   C528    1.396   .     A
C526   C545    1.428   .     A
C526   O576    1.386   .     S
C527   H549    1.084   .     S
C528   C22     1.394   1_556 S
C528   H608    1.085   .     S
C529   C704    1.329   .     S
C529   H731    1.088   .     S
C530   C877    1.329   1_545 S
C530   H906    1.088   1_545 S
C531   C533    1.465   .     S
C531   O567    1.304   .     A
C531   O569    1.301   .     A
C532   O568    1.308   .     A
C532   C534    1.475   .     S
C532   O570    1.302   .     A
C533   C537    1.399   .     A
C533   C539    1.396   .     A
C534   C540    1.402   .     A
C534   C538    1.401   .     A
C535   C537    1.394   .     A
C535   C543    1.400   .     A
C535   H671    1.084   1_455 S
C536   C544    1.406   .     A
C536   C538    1.397   .     A
C536   H614    1.084   .     S
C537   H554    1.083   .     S
C538   H553    1.083   .     S
C539   H552    1.081   .     S
C539   C541    1.407   .     A
C540   H551    1.078   .     S
C540   C542    1.404   .     A
C541   C545    1.420   .     A
C541   C543    1.412   .     A
C542   C544    1.415   .     A
C542   C546    1.423   .     A
C543   C5      1.391   1_556 S
C545   C24     1.424   1_556 S
Cu547  O570    1.901   .     S
Cu547  O566    1.950   .     S
Cu547  N562    2.031   .     S
Cu547  O563    1.953   .     S
Cu547  O567    1.920   .     S
Cu547  Cu548   2.703   .     S
Cu548  O569    1.901   .     S
Cu548  O565    1.950   .     S
Cu548  N561    2.031   .     S
Cu548  O568    1.920   .     S
Cu548  O564    1.953   .     S
H550   C644    1.085   1_455 S
H555   C593    1.084   .     S
H556   C652    1.084   1_455 S
H557   C877    1.088   1_545 S
H558   C704    1.088   .     S
H559   N677    1.029   1_455 S
H560   N620    1.029   .     S
N561   H617    1.029   .     S
N561   N620    1.286   .     S
N562   H676    1.029   1_455 S
N562   N677    1.286   1_455 S
O571   C572    1.411   .     S
C572   H574    1.113   .     S
C572   H573    1.114   .     S
C572   H575    1.109   .     S
O576   C577    1.416   .     S
C577   H578    1.103   .     S
C577   H579    1.113   .     S
C577   H580    1.106   .     S
C581   C587    1.428   .     S
C581   O621    1.295   .     A
C581   O623    1.291   .     A
C582   O622    1.295   .     A
C582   C588    1.428   .     S
C582   O624    1.291   .     A
C583   O629    1.383   .     S
C583   C585    1.396   .     A
C583   C604    1.429   .     A
C584   C586    1.396   .     A
C584   C603    1.428   .     A
C584   O634    1.386   .     S
C585   H607    1.084   .     S
C586   C80     1.394   1_556 S
C586   H666    1.085   .     S
C587   C762    1.329   .     S
C587   H789    1.088   .     S
C588   C935    1.329   1_545 S
C588   H964    1.088   1_545 S
C589   C591    1.465   .     S
C589   O625    1.304   .     A
C589   O627    1.301   .     A
C590   O626    1.308   .     A
C590   C592    1.475   .     S
C590   O628    1.302   .     A
C591   C595    1.399   .     A
C591   C597    1.396   .     A
C592   C598    1.402   .     A
C592   C596    1.401   .     A
C593   C595    1.394   .     A
C593   C601    1.400   .     A
C594   C602    1.406   .     A
C594   C596    1.397   .     A
C594   H672    1.084   .     S
C595   H612    1.083   .     S
C596   H611    1.083   .     S
C597   H610    1.081   .     S
C597   C599    1.407   .     A
C598   H609    1.078   .     S
C598   C600    1.404   .     A
C599   C603    1.420   .     A
C599   C601    1.412   .     A
C600   C602    1.415   .     A
C600   C604    1.423   .     A
C601   C63     1.391   1_556 S
C603   C82     1.424   1_556 S
Cu605  O628    1.901   .     S
Cu605  O624    1.950   .     S
Cu605  N620    2.031   .     S
Cu605  O621    1.953   .     S
Cu605  O625    1.920   .     S
Cu605  Cu606   2.703   .     S
Cu606  O627    1.901   .     S
Cu606  O623    1.950   .     S
Cu606  N619    2.031   .     S
Cu606  O626    1.920   .     S
Cu606  O622    1.953   .     S
H613   C651    1.084   .     S
H615   C935    1.088   1_545 S
H616   C762    1.088   .     S
H618   N678    1.029   .     S
N619   H675    1.029   .     S
N619   N678    1.286   .     S
O629   C630    1.411   .     S
C630   H632    1.113   .     S
C630   H631    1.114   .     S
C630   H633    1.109   .     S
O634   C635    1.416   .     S
C635   H636    1.103   .     S
C635   H637    1.113   .     S
C635   H638    1.106   .     S
C639   C645    1.428   .     S
C639   O679    1.295   .     A
C639   O681    1.291   .     A
C640   O680    1.295   .     A
C640   C646    1.428   .     S
C640   O682    1.291   .     A
C641   O687    1.383   .     S
C641   C643    1.396   .     A
C641   C662    1.429   .     A
C642   C644    1.396   .     A
C642   C661    1.428   .     A
C642   O692    1.386   .     S
C643   H665    1.084   .     S
C644   C138    1.394   1_556 S
C644   H550    1.085   1_655 S
C645   C820    1.329   .     S
C645   H847    1.088   .     S
C646   C993    1.329   1_545 S
C646   H1022   1.088   1_545 S
C647   C649    1.465   .     S
C647   O683    1.304   .     A
C647   O685    1.301   .     A
C648   O684    1.308   .     A
C648   C650    1.475   .     S
C648   O686    1.302   .     A
C649   C653    1.399   .     A
C649   C655    1.396   .     A
C650   C656    1.402   .     A
C650   C654    1.401   .     A
C651   C653    1.394   .     A
C651   C659    1.400   .     A
C652   C660    1.406   .     A
C652   C654    1.397   .     A
C652   H556    1.084   1_655 S
C653   H670    1.083   .     S
C654   H669    1.083   .     S
C655   H668    1.081   .     S
C655   C657    1.407   .     A
C656   H667    1.078   .     S
C656   C658    1.404   .     A
C657   C661    1.420   .     A
C657   C659    1.412   .     A
C658   C660    1.415   .     A
C658   C662    1.423   .     A
C659   C121    1.391   1_556 S
C661   C140    1.424   1_556 S
Cu663  O686    1.901   .     S
Cu663  O682    1.950   .     S
Cu663  N678    2.031   .     S
Cu663  O679    1.953   .     S
Cu663  O683    1.920   .     S
Cu663  Cu664   2.703   .     S
Cu664  O685    1.901   .     S
Cu664  O681    1.950   .     S
Cu664  N677    2.031   .     S
Cu664  O684    1.920   .     S
Cu664  O680    1.953   .     S
H671   C535    1.084   1_655 S
H673   C993    1.088   1_545 S
H674   C820    1.088   .     S
H676   N562    1.029   1_655 S
N677   H559    1.029   1_655 S
N677   N562    1.286   1_655 S
O687   C688    1.411   .     S
C688   H690    1.113   .     S
C688   H689    1.114   .     S
C688   H691    1.109   .     S
O692   C693    1.416   .     S
C693   H694    1.103   .     S
C693   H695    1.113   .     S
C693   H696    1.106   .     S
C697   C703    1.428   .     S
C697   O737    1.295   .     A
C697   O739    1.291   .     A
C698   O738    1.295   .     A
C698   C704    1.428   .     S
C698   O740    1.291   .     A
C699   O745    1.383   .     S
C699   C701    1.396   .     A
C699   C720    1.429   .     A
C700   C702    1.396   .     A
C700   C719    1.428   .     A
C700   O750    1.386   .     S
C701   H723    1.084   .     S
C702   C196    1.394   1_556 S
C702   H782    1.085   .     S
C703   C878    1.329   .     S
C703   H905    1.088   .     S
C705   C707    1.465   .     S
C705   O741    1.304   .     A
C705   O743    1.301   .     A
C706   O742    1.308   .     A
C706   C708    1.475   .     S
C706   O744    1.302   .     A
C707   C711    1.399   .     A
C707   C713    1.396   .     A
C708   C714    1.402   .     A
C708   C712    1.401   .     A
C709   C711    1.394   .     A
C709   C717    1.400   .     A
C709   H845    1.084   1_455 S
C710   C718    1.406   .     A
C710   C712    1.397   .     A
C710   H788    1.084   .     S
C711   H728    1.083   .     S
C712   H727    1.083   .     S
C713   H726    1.081   .     S
C713   C715    1.407   .     A
C714   H725    1.078   .     S
C714   C716    1.404   .     A
C715   C719    1.420   .     A
C715   C717    1.412   .     A
C716   C718    1.415   .     A
C716   C720    1.423   .     A
C717   C179    1.391   1_556 S
C719   C198    1.424   1_556 S
Cu721  O744    1.901   .     S
Cu721  O740    1.950   .     S
Cu721  N736    2.031   .     S
Cu721  O737    1.953   .     S
Cu721  O741    1.920   .     S
Cu721  Cu722   2.703   .     S
Cu722  O743    1.901   .     S
Cu722  O739    1.950   .     S
Cu722  N735    2.031   .     S
Cu722  O742    1.920   .     S
Cu722  O738    1.953   .     S
H724   C818    1.085   1_455 S
H729   C767    1.084   .     S
H730   C826    1.084   1_455 S
H732   C878    1.088   .     S
H733   N851    1.029   1_455 S
H734   N794    1.029   .     S
N735   H791    1.029   .     S
N735   N794    1.286   .     S
N736   H850    1.029   1_455 S
N736   N851    1.286   1_455 S
O745   C746    1.411   .     S
C746   H748    1.113   .     S
C746   H747    1.114   .     S
C746   H749    1.109   .     S
O750   C751    1.416   .     S
C751   H752    1.103   .     S
C751   H753    1.113   .     S
C751   H754    1.106   .     S
C755   C761    1.428   .     S
C755   O795    1.295   .     A
C755   O797    1.291   .     A
C756   O796    1.295   .     A
C756   C762    1.428   .     S
C756   O798    1.291   .     A
C757   O803    1.383   .     S
C757   C759    1.396   .     A
C757   C778    1.429   .     A
C758   C760    1.396   .     A
C758   C777    1.428   .     A
C758   O808    1.386   .     S
C759   H781    1.084   .     S
C760   C254    1.394   1_556 S
C760   H840    1.085   .     S
C761   C936    1.329   .     S
C761   H963    1.088   .     S
C763   C765    1.465   .     S
C763   O799    1.304   .     A
C763   O801    1.301   .     A
C764   O800    1.308   .     A
C764   C766    1.475   .     S
C764   O802    1.302   .     A
C765   C769    1.399   .     A
C765   C771    1.396   .     A
C766   C772    1.402   .     A
C766   C770    1.401   .     A
C767   C769    1.394   .     A
C767   C775    1.400   .     A
C768   C776    1.406   .     A
C768   C770    1.397   .     A
C768   H846    1.084   .     S
C769   H786    1.083   .     S
C770   H785    1.083   .     S
C771   H784    1.081   .     S
C771   C773    1.407   .     A
C772   H783    1.078   .     S
C772   C774    1.404   .     A
C773   C777    1.420   .     A
C773   C775    1.412   .     A
C774   C776    1.415   .     A
C774   C778    1.423   .     A
C775   C237    1.391   1_556 S
C777   C256    1.424   1_556 S
Cu779  O802    1.901   .     S
Cu779  O798    1.950   .     S
Cu779  N794    2.031   .     S
Cu779  O795    1.953   .     S
Cu779  O799    1.920   .     S
Cu779  Cu780   2.703   .     S
Cu780  O801    1.901   .     S
Cu780  O797    1.950   .     S
Cu780  N793    2.031   .     S
Cu780  O800    1.920   .     S
Cu780  O796    1.953   .     S
H787   C825    1.084   .     S
H790   C936    1.088   .     S
H792   N852    1.029   .     S
N793   H849    1.029   .     S
N793   N852    1.286   .     S
O803   C804    1.411   .     S
C804   H806    1.113   .     S
C804   H805    1.114   .     S
C804   H807    1.109   .     S
O808   C809    1.416   .     S
C809   H810    1.103   .     S
C809   H811    1.113   .     S
C809   H812    1.106   .     S
C813   C819    1.428   .     S
C813   O853    1.295   .     A
C813   O855    1.291   .     A
C814   O854    1.295   .     A
C814   C820    1.428   .     S
C814   O856    1.291   .     A
C815   O861    1.383   .     S
C815   C817    1.396   .     A
C815   C836    1.429   .     A
C816   C818    1.396   .     A
C816   C835    1.428   .     A
C816   O866    1.386   .     S
C817   H839    1.084   .     S
C818   C312    1.394   1_556 S
C818   H724    1.085   1_655 S
C819   C994    1.329   .     S
C819   H1021   1.088   .     S
C821   C823    1.465   .     S
C821   O857    1.304   .     A
C821   O859    1.301   .     A
C822   O858    1.308   .     A
C822   C824    1.475   .     S
C822   O860    1.302   .     A
C823   C827    1.399   .     A
C823   C829    1.396   .     A
C824   C830    1.402   .     A
C824   C828    1.401   .     A
C825   C827    1.394   .     A
C825   C833    1.400   .     A
C826   C834    1.406   .     A
C826   C828    1.397   .     A
C826   H730    1.084   1_655 S
C827   H844    1.083   .     S
C828   H843    1.083   .     S
C829   H842    1.081   .     S
C829   C831    1.407   .     A
C830   H841    1.078   .     S
C830   C832    1.404   .     A
C831   C835    1.420   .     A
C831   C833    1.412   .     A
C832   C834    1.415   .     A
C832   C836    1.423   .     A
C833   C295    1.391   1_556 S
C835   C314    1.424   1_556 S
Cu837  O860    1.901   .     S
Cu837  O856    1.950   .     S
Cu837  N852    2.031   .     S
Cu837  O853    1.953   .     S
Cu837  O857    1.920   .     S
Cu837  Cu838   2.703   .     S
Cu838  O859    1.901   .     S
Cu838  O855    1.950   .     S
Cu838  N851    2.031   .     S
Cu838  O858    1.920   .     S
Cu838  O854    1.953   .     S
H845   C709    1.084   1_655 S
H848   C994    1.088   .     S
H850   N736    1.029   1_655 S
N851   H733    1.029   1_655 S
N851   N736    1.286   1_655 S
O861   C862    1.411   .     S
C862   H864    1.113   .     S
C862   H863    1.114   .     S
C862   H865    1.109   .     S
O866   C867    1.416   .     S
C867   H868    1.103   .     S
C867   H869    1.113   .     S
C867   H870    1.106   .     S
C871   C877    1.428   .     S
C871   O911    1.295   .     A
C871   O913    1.291   .     A
C872   O912    1.295   .     A
C872   C878    1.428   .     S
C872   O914    1.291   .     A
C873   O919    1.383   .     S
C873   C875    1.396   .     A
C873   C894    1.429   .     A
C874   C876    1.396   .     A
C874   C893    1.428   .     A
C874   O924    1.386   .     S
C875   H897    1.084   .     S
C876   C370    1.394   1_556 S
C876   H956    1.085   .     S
C877   C530    1.329   1_565 S
C877   H557    1.088   1_565 S
C879   C881    1.465   .     S
C879   O915    1.304   .     A
C879   O917    1.301   .     A
C880   O916    1.308   .     A
C880   C882    1.475   .     S
C880   O918    1.302   .     A
C881   C885    1.399   .     A
C881   C887    1.396   .     A
C882   C888    1.402   .     A
C882   C886    1.401   .     A
C883   C885    1.394   .     A
C883   C891    1.400   .     A
C883   H1019   1.084   1_455 S
C884   C892    1.406   .     A
C884   C886    1.397   .     A
C884   H962    1.084   .     S
C885   H902    1.083   .     S
C886   H901    1.083   .     S
C887   H900    1.081   .     S
C887   C889    1.407   .     A
C888   H899    1.078   .     S
C888   C890    1.404   .     A
C889   C893    1.420   .     A
C889   C891    1.412   .     A
C890   C892    1.415   .     A
C890   C894    1.423   .     A
C891   C353    1.391   1_556 S
C893   C372    1.424   1_556 S
Cu895  O918    1.901   .     S
Cu895  O914    1.950   .     S
Cu895  N910    2.031   .     S
Cu895  O911    1.953   .     S
Cu895  O915    1.920   .     S
Cu895  Cu896   2.703   .     S
Cu896  O917    1.901   .     S
Cu896  O913    1.950   .     S
Cu896  N909    2.031   .     S
Cu896  O916    1.920   .     S
Cu896  O912    1.953   .     S
H898   C992    1.085   1_455 S
H903   C941    1.084   .     S
H904   C1000   1.084   1_455 S
H906   C530    1.088   1_565 S
H907   N1025   1.029   1_455 S
H908   N968    1.029   .     S
N909   H965    1.029   .     S
N909   N968    1.286   .     S
N910   H1024   1.029   1_455 S
N910   N1025   1.286   1_455 S
O919   C920    1.411   .     S
C920   H922    1.113   .     S
C920   H921    1.114   .     S
C920   H923    1.109   .     S
O924   C925    1.416   .     S
C925   H926    1.103   .     S
C925   H927    1.113   .     S
C925   H928    1.106   .     S
C929   C935    1.428   .     S
C929   O969    1.295   .     A
C929   O971    1.291   .     A
C930   O970    1.295   .     A
C930   C936    1.428   .     S
C930   O972    1.291   .     A
C931   O977    1.383   .     S
C931   C933    1.396   .     A
C931   C952    1.429   .     A
C932   C934    1.396   .     A
C932   C951    1.428   .     A
C932   O982    1.386   .     S
C933   H955    1.084   .     S
C934   C428    1.394   1_556 S
C934   H1014   1.085   .     S
C935   C588    1.329   1_565 S
C935   H615    1.088   1_565 S
C937   C939    1.465   .     S
C937   O973    1.304   .     A
C937   O975    1.301   .     A
C938   O974    1.308   .     A
C938   C940    1.475   .     S
C938   O976    1.302   .     A
C939   C943    1.399   .     A
C939   C945    1.396   .     A
C940   C946    1.402   .     A
C940   C944    1.401   .     A
C941   C943    1.394   .     A
C941   C949    1.400   .     A
C942   C950    1.406   .     A
C942   C944    1.397   .     A
C942   H1020   1.084   .     S
C943   H960    1.083   .     S
C944   H959    1.083   .     S
C945   H958    1.081   .     S
C945   C947    1.407   .     A
C946   H957    1.078   .     S
C946   C948    1.404   .     A
C947   C951    1.420   .     A
C947   C949    1.412   .     A
C948   C950    1.415   .     A
C948   C952    1.423   .     A
C949   C411    1.391   1_556 S
C951   C430    1.424   1_556 S
Cu953  O976    1.901   .     S
Cu953  O972    1.950   .     S
Cu953  N968    2.031   .     S
Cu953  O969    1.953   .     S
Cu953  O973    1.920   .     S
Cu953  Cu954   2.703   .     S
Cu954  O975    1.901   .     S
Cu954  O971    1.950   .     S
Cu954  N967    2.031   .     S
Cu954  O974    1.920   .     S
Cu954  O970    1.953   .     S
H961   C999    1.084   .     S
H964   C588    1.088   1_565 S
H966   N1026   1.029   .     S
N967   H1023   1.029   .     S
N967   N1026   1.286   .     S
O977   C978    1.411   .     S
C978   H980    1.113   .     S
C978   H979    1.114   .     S
C978   H981    1.109   .     S
O982   C983    1.416   .     S
C983   H984    1.103   .     S
C983   H985    1.113   .     S
C983   H986    1.106   .     S
C987   C993    1.428   .     S
C987   O1027   1.295   .     A
C987   O1029   1.291   .     A
C988   O1028   1.295   .     A
C988   C994    1.428   .     S
C988   O1030   1.291   .     A
C989   O1035   1.383   .     S
C989   C991    1.396   .     A
C989   C1010   1.429   .     A
C990   C992    1.396   .     A
C990   C1009   1.428   .     A
C990   O1040   1.386   .     S
C991   H1013   1.084   .     S
C992   C486    1.394   1_556 S
C992   H898    1.085   1_655 S
C993   C646    1.329   1_565 S
C993   H673    1.088   1_565 S
C995   C997    1.465   .     S
C995   O1031   1.304   .     A
C995   O1033   1.301   .     A
C996   O1032   1.308   .     A
C996   C998    1.475   .     S
C996   O1034   1.302   .     A
C997   C1001   1.399   .     A
C997   C1003   1.396   .     A
C998   C1004   1.402   .     A
C998   C1002   1.401   .     A
C999   C1001   1.394   .     A
C999   C1007   1.400   .     A
C1000  C1008   1.406   .     A
C1000  C1002   1.397   .     A
C1000  H904    1.084   1_655 S
C1001  H1018   1.083   .     S
C1002  H1017   1.083   .     S
C1003  H1016   1.081   .     S
C1003  C1005   1.407   .     A
C1004  H1015   1.078   .     S
C1004  C1006   1.404   .     A
C1005  C1009   1.420   .     A
C1005  C1007   1.412   .     A
C1006  C1008   1.415   .     A
C1006  C1010   1.423   .     A
C1007  C469    1.391   1_556 S
C1009  C488    1.424   1_556 S
Cu1011 O1034   1.901   .     S
Cu1011 O1030   1.950   .     S
Cu1011 N1026   2.031   .     S
Cu1011 O1027   1.953   .     S
Cu1011 O1031   1.920   .     S
Cu1011 Cu1012  2.703   .     S
Cu1012 O1033   1.901   .     S
Cu1012 O1029   1.950   .     S
Cu1012 N1025   2.031   .     S
Cu1012 O1032   1.920   .     S
Cu1012 O1028   1.953   .     S
H1019  C883    1.084   1_655 S
H1022  C646    1.088   1_565 S
H1024  N910    1.029   1_655 S
N1025  H907    1.029   1_655 S
N1025  N910    1.286   1_655 S
O1035  C1036   1.411   .     S
C1036  H1038   1.113   .     S
C1036  H1037   1.114   .     S
C1036  H1039   1.109   .     S
O1040  C1041   1.416   .     S
C1041  H1042   1.103   .     S
C1041  H1043   1.113   .     S
C1041  H1044   1.106   .     S
