data_str_m2_o1_o10_pcu_sym.19
_audit_creation_date              2020-01-03
_audit_creation_method            'Materials Studio'
_symmetry_space_group_name_H-M    'P1'
_symmetry_Int_Tables_number       1
_symmetry_cell_setting            triclinic
loop_
_symmetry_equiv_pos_as_xyz
  x,y,z
_cell_length_a                    26.5078
_cell_length_b                    32.5451
_cell_length_c                    28.5228
_cell_angle_alpha                 90.5288
_cell_angle_beta                  97.7996
_cell_angle_gamma                 89.9768
loop_
_atom_site_label
_atom_site_type_symbol
_atom_site_fract_x
_atom_site_fract_y
_atom_site_fract_z
_atom_site_U_iso_or_equiv
_atom_site_adp_type
_atom_site_occupancy
C1     C     0.16755   0.08740   0.16648   0.00000  Uiso   1.00
C2     C     0.14689   0.02253   0.20188   0.00000  Uiso   1.00
C3     C     0.16549   0.29056   0.16737   0.00000  Uiso   1.00
C4     C     0.16784   0.04277   0.16597   0.00000  Uiso   1.00
C5     C     0.13397   0.14200   0.02043   0.00000  Uiso   1.00
C6     C     0.19936   0.19133   0.31290   0.00000  Uiso   1.00
C7     C     0.13399   0.14200   0.30413   0.00000  Uiso   1.00
C8     C     0.19934   0.19133   0.02920   0.00000  Uiso   1.00
C9     C     0.32460   0.14486   0.10327   0.00000  Uiso   1.00
C10    C     0.00873   0.18847   0.23006   0.00000  Uiso   1.00
C11    C     0.21168   0.03900   0.09333   0.00000  Uiso   1.00
C12    C     0.16578   0.24593   0.16686   0.00000  Uiso   1.00
C13    C     0.12165   0.29433   0.24000   0.00000  Uiso   1.00
C14    C     0.06815   0.16632   0.15477   0.00000  Uiso   1.00
C15    C     0.26518   0.16701   0.17857   0.00000  Uiso   1.00
C16    C     0.01358   0.16219   0.14863   0.00000  Uiso   1.00
C17    C     0.31976   0.17114   0.18471   0.00000  Uiso   1.00
C18    C     0.18796   0.02001   0.13044   0.00000  Uiso   1.00
C19    C     0.14537   0.31333   0.20290   0.00000  Uiso   1.00
C20    C     0.18644   0.31080   0.13145   0.00000  Uiso   1.00
Cu21   Cu    0.16667   0.16667   0.21355   0.00000  Uiso   1.00
Cu22   Cu    0.16667   0.16666   0.11978   0.00000  Uiso   1.00
H23    H     0.20250   0.29335   0.10444   0.00000  Uiso   1.00
H24    H     0.13083   0.03998   0.22890   0.00000  Uiso   1.00
H25    H     0.10784   0.12222   0.03566   0.00000  Uiso   1.00
H26    H     0.22549   0.21112   0.29767   0.00000  Uiso   1.00
H27    H     0.10784   0.12224   0.28189   0.00000  Uiso   1.00
H28    H     0.22549   0.21109   0.05145   0.00000  Uiso   1.00
N29    N     0.16668   0.16668   0.28403   0.00000  Uiso   1.00
N30    N     0.16665   0.16666   0.04931   0.00000  Uiso   1.00
N31    N     0.30720   0.13111   0.06710   0.00000  Uiso   1.00
N32    N     0.02613   0.20222   0.26623   0.00000  Uiso   1.00
N33    N     0.23062   0.05410   0.06354   0.00000  Uiso   1.00
N34    N     0.10271   0.27923   0.26980   0.00000  Uiso   1.00
O35    O     0.16666   0.10655   0.20625   0.00000  Uiso   1.00
O36    O     0.16667   0.22678   0.12709   0.00000  Uiso   1.00
O37    O     0.16666   0.10654   0.12706   0.00000  Uiso   1.00
O38    O     0.16667   0.22679   0.20628   0.00000  Uiso   1.00
O39    O     0.09161   0.16667   0.19712   0.00000  Uiso   1.00
O40    O     0.24172   0.16666   0.13621   0.00000  Uiso   1.00
O41    O     0.09161   0.16666   0.11793   0.00000  Uiso   1.00
O42    O     0.24172   0.16667   0.21540   0.00000  Uiso   1.00
C43    C     0.50089   0.08740   0.16648   0.00000  Uiso   1.00
C44    C     0.48022   0.02253   0.20188   0.00000  Uiso   1.00
C45    C     0.49882   0.29056   0.16737   0.00000  Uiso   1.00
C46    C     0.50118   0.04277   0.16597   0.00000  Uiso   1.00
C47    C     0.46730   0.14200   0.02043   0.00000  Uiso   1.00
C48    C     0.53269   0.19133   0.31290   0.00000  Uiso   1.00
C49    C     0.46732   0.14200   0.30413   0.00000  Uiso   1.00
C50    C     0.53267   0.19133   0.02920   0.00000  Uiso   1.00
C51    C     0.65794   0.14486   0.10327   0.00000  Uiso   1.00
C52    C     0.34206   0.18847   0.23006   0.00000  Uiso   1.00
C53    C     0.54502   0.03900   0.09333   0.00000  Uiso   1.00
C54    C     0.49911   0.24593   0.16686   0.00000  Uiso   1.00
C55    C     0.45498   0.29433   0.24000   0.00000  Uiso   1.00
C56    C     0.40148   0.16632   0.15477   0.00000  Uiso   1.00
C57    C     0.59851   0.16701   0.17857   0.00000  Uiso   1.00
C58    C     0.34691   0.16219   0.14863   0.00000  Uiso   1.00
C59    C     0.65309   0.17114   0.18471   0.00000  Uiso   1.00
C60    C     0.52130   0.02001   0.13044   0.00000  Uiso   1.00
C61    C     0.47870   0.31333   0.20290   0.00000  Uiso   1.00
C62    C     0.51978   0.31080   0.13145   0.00000  Uiso   1.00
Cu63   Cu    0.50000   0.16667   0.21355   0.00000  Uiso   1.00
Cu64   Cu    0.50000   0.16666   0.11978   0.00000  Uiso   1.00
H65    H     0.53584   0.29335   0.10444   0.00000  Uiso   1.00
H66    H     0.46416   0.03998   0.22890   0.00000  Uiso   1.00
H67    H     0.44117   0.12222   0.03566   0.00000  Uiso   1.00
H68    H     0.55883   0.21112   0.29767   0.00000  Uiso   1.00
H69    H     0.44118   0.12224   0.28189   0.00000  Uiso   1.00
H70    H     0.55882   0.21109   0.05145   0.00000  Uiso   1.00
N71    N     0.50001   0.16668   0.28403   0.00000  Uiso   1.00
N72    N     0.49999   0.16666   0.04931   0.00000  Uiso   1.00
N73    N     0.64053   0.13111   0.06710   0.00000  Uiso   1.00
N74    N     0.35947   0.20222   0.26623   0.00000  Uiso   1.00
N75    N     0.56395   0.05410   0.06354   0.00000  Uiso   1.00
N76    N     0.43605   0.27923   0.26980   0.00000  Uiso   1.00
O77    O     0.50000   0.10655   0.20625   0.00000  Uiso   1.00
O78    O     0.50000   0.22678   0.12709   0.00000  Uiso   1.00
O79    O     0.50000   0.10654   0.12706   0.00000  Uiso   1.00
O80    O     0.50000   0.22679   0.20628   0.00000  Uiso   1.00
O81    O     0.42495   0.16667   0.19712   0.00000  Uiso   1.00
O82    O     0.57505   0.16666   0.13621   0.00000  Uiso   1.00
O83    O     0.42494   0.16666   0.11793   0.00000  Uiso   1.00
O84    O     0.57506   0.16667   0.21540   0.00000  Uiso   1.00
C85    C     0.83422   0.08740   0.16648   0.00000  Uiso   1.00
C86    C     0.81356   0.02253   0.20188   0.00000  Uiso   1.00
C87    C     0.83216   0.29056   0.16737   0.00000  Uiso   1.00
C88    C     0.83451   0.04277   0.16597   0.00000  Uiso   1.00
C89    C     0.80064   0.14200   0.02043   0.00000  Uiso   1.00
C90    C     0.86603   0.19133   0.31290   0.00000  Uiso   1.00
C91    C     0.80066   0.14200   0.30413   0.00000  Uiso   1.00
C92    C     0.86601   0.19133   0.02920   0.00000  Uiso   1.00
C93    C     0.99127   0.14486   0.10327   0.00000  Uiso   1.00
C94    C     0.67540   0.18847   0.23006   0.00000  Uiso   1.00
C95    C     0.87835   0.03900   0.09333   0.00000  Uiso   1.00
C96    C     0.83245   0.24593   0.16686   0.00000  Uiso   1.00
C97    C     0.78832   0.29433   0.24000   0.00000  Uiso   1.00
C98    C     0.73482   0.16632   0.15477   0.00000  Uiso   1.00
C99    C     0.93185   0.16701   0.17857   0.00000  Uiso   1.00
C100   C     0.68024   0.16219   0.14863   0.00000  Uiso   1.00
C101   C     0.98642   0.17114   0.18471   0.00000  Uiso   1.00
C102   C     0.85463   0.02001   0.13044   0.00000  Uiso   1.00
C103   C     0.81204   0.31333   0.20290   0.00000  Uiso   1.00
C104   C     0.85311   0.31080   0.13145   0.00000  Uiso   1.00
Cu105  Cu    0.83333   0.16667   0.21355   0.00000  Uiso   1.00
Cu106  Cu    0.83333   0.16666   0.11978   0.00000  Uiso   1.00
H107   H     0.86917   0.29335   0.10444   0.00000  Uiso   1.00
H108   H     0.79750   0.03998   0.22890   0.00000  Uiso   1.00
H109   H     0.77451   0.12222   0.03566   0.00000  Uiso   1.00
H110   H     0.89216   0.21112   0.29767   0.00000  Uiso   1.00
H111   H     0.77451   0.12224   0.28189   0.00000  Uiso   1.00
H112   H     0.89216   0.21109   0.05145   0.00000  Uiso   1.00
N113   N     0.83335   0.16668   0.28403   0.00000  Uiso   1.00
N114   N     0.83332   0.16666   0.04931   0.00000  Uiso   1.00
N115   N     0.97387   0.13111   0.06710   0.00000  Uiso   1.00
N116   N     0.69280   0.20222   0.26623   0.00000  Uiso   1.00
N117   N     0.89729   0.05410   0.06354   0.00000  Uiso   1.00
N118   N     0.76938   0.27923   0.26980   0.00000  Uiso   1.00
O119   O     0.83333   0.10655   0.20625   0.00000  Uiso   1.00
O120   O     0.83334   0.22678   0.12709   0.00000  Uiso   1.00
O121   O     0.83333   0.10654   0.12706   0.00000  Uiso   1.00
O122   O     0.83334   0.22679   0.20628   0.00000  Uiso   1.00
O123   O     0.75828   0.16667   0.19712   0.00000  Uiso   1.00
O124   O     0.90839   0.16666   0.13621   0.00000  Uiso   1.00
O125   O     0.75828   0.16666   0.11793   0.00000  Uiso   1.00
O126   O     0.90839   0.16667   0.21540   0.00000  Uiso   1.00
C127   C     0.16755   0.42073   0.16648   0.00000  Uiso   1.00
C128   C     0.14689   0.35587   0.20188   0.00000  Uiso   1.00
C129   C     0.16549   0.62390   0.16737   0.00000  Uiso   1.00
C130   C     0.16784   0.37610   0.16597   0.00000  Uiso   1.00
C131   C     0.13397   0.47533   0.02043   0.00000  Uiso   1.00
C132   C     0.19936   0.52467   0.31290   0.00000  Uiso   1.00
C133   C     0.13399   0.47534   0.30413   0.00000  Uiso   1.00
C134   C     0.19934   0.52466   0.02920   0.00000  Uiso   1.00
C135   C     0.32460   0.47819   0.10327   0.00000  Uiso   1.00
C136   C     0.00873   0.52181   0.23006   0.00000  Uiso   1.00
C137   C     0.21168   0.37234   0.09333   0.00000  Uiso   1.00
C138   C     0.16578   0.57926   0.16686   0.00000  Uiso   1.00
C139   C     0.12165   0.62766   0.24000   0.00000  Uiso   1.00
C140   C     0.06815   0.49965   0.15477   0.00000  Uiso   1.00
C141   C     0.26518   0.50035   0.17857   0.00000  Uiso   1.00
C142   C     0.01358   0.49552   0.14863   0.00000  Uiso   1.00
C143   C     0.31976   0.50448   0.18471   0.00000  Uiso   1.00
C144   C     0.18796   0.35334   0.13044   0.00000  Uiso   1.00
C145   C     0.14537   0.64666   0.20290   0.00000  Uiso   1.00
C146   C     0.18644   0.64413   0.13145   0.00000  Uiso   1.00
Cu147  Cu    0.16667   0.50001   0.21355   0.00000  Uiso   1.00
Cu148  Cu    0.16667   0.49999   0.11978   0.00000  Uiso   1.00
H149   H     0.20250   0.62669   0.10444   0.00000  Uiso   1.00
H150   H     0.13083   0.37331   0.22890   0.00000  Uiso   1.00
H151   H     0.10784   0.45555   0.03566   0.00000  Uiso   1.00
H152   H     0.22549   0.54445   0.29767   0.00000  Uiso   1.00
H153   H     0.10784   0.45557   0.28189   0.00000  Uiso   1.00
H154   H     0.22549   0.54443   0.05145   0.00000  Uiso   1.00
N155   N     0.16668   0.50001   0.28403   0.00000  Uiso   1.00
N156   N     0.16665   0.49999   0.04931   0.00000  Uiso   1.00
N157   N     0.30720   0.46444   0.06710   0.00000  Uiso   1.00
N158   N     0.02613   0.53556   0.26623   0.00000  Uiso   1.00
N159   N     0.23062   0.38743   0.06354   0.00000  Uiso   1.00
N160   N     0.10271   0.61257   0.26980   0.00000  Uiso   1.00
O161   O     0.16666   0.43989   0.20625   0.00000  Uiso   1.00
O162   O     0.16667   0.56011   0.12709   0.00000  Uiso   1.00
O163   O     0.16666   0.43988   0.12706   0.00000  Uiso   1.00
O164   O     0.16667   0.56012   0.20628   0.00000  Uiso   1.00
O165   O     0.09161   0.50000   0.19712   0.00000  Uiso   1.00
O166   O     0.24172   0.50000   0.13621   0.00000  Uiso   1.00
O167   O     0.09161   0.49999   0.11793   0.00000  Uiso   1.00
O168   O     0.24172   0.50001   0.21540   0.00000  Uiso   1.00
C169   C     0.50089   0.42073   0.16648   0.00000  Uiso   1.00
C170   C     0.48022   0.35587   0.20188   0.00000  Uiso   1.00
C171   C     0.49882   0.62390   0.16737   0.00000  Uiso   1.00
C172   C     0.50118   0.37610   0.16597   0.00000  Uiso   1.00
C173   C     0.46730   0.47533   0.02043   0.00000  Uiso   1.00
C174   C     0.53269   0.52467   0.31290   0.00000  Uiso   1.00
C175   C     0.46732   0.47534   0.30413   0.00000  Uiso   1.00
C176   C     0.53267   0.52466   0.02920   0.00000  Uiso   1.00
C177   C     0.65794   0.47819   0.10327   0.00000  Uiso   1.00
C178   C     0.34206   0.52181   0.23006   0.00000  Uiso   1.00
C179   C     0.54502   0.37234   0.09333   0.00000  Uiso   1.00
C180   C     0.49911   0.57926   0.16686   0.00000  Uiso   1.00
C181   C     0.45498   0.62766   0.24000   0.00000  Uiso   1.00
C182   C     0.40148   0.49965   0.15477   0.00000  Uiso   1.00
C183   C     0.59851   0.50035   0.17857   0.00000  Uiso   1.00
C184   C     0.34691   0.49552   0.14863   0.00000  Uiso   1.00
C185   C     0.65309   0.50448   0.18471   0.00000  Uiso   1.00
C186   C     0.52130   0.35334   0.13044   0.00000  Uiso   1.00
C187   C     0.47870   0.64666   0.20290   0.00000  Uiso   1.00
C188   C     0.51978   0.64413   0.13145   0.00000  Uiso   1.00
Cu189  Cu    0.50000   0.50001   0.21355   0.00000  Uiso   1.00
Cu190  Cu    0.50000   0.49999   0.11978   0.00000  Uiso   1.00
H191   H     0.53584   0.62669   0.10444   0.00000  Uiso   1.00
H192   H     0.46416   0.37331   0.22890   0.00000  Uiso   1.00
H193   H     0.44117   0.45555   0.03566   0.00000  Uiso   1.00
H194   H     0.55883   0.54445   0.29767   0.00000  Uiso   1.00
H195   H     0.44118   0.45557   0.28189   0.00000  Uiso   1.00
H196   H     0.55882   0.54443   0.05145   0.00000  Uiso   1.00
N197   N     0.50001   0.50001   0.28403   0.00000  Uiso   1.00
N198   N     0.49999   0.49999   0.04931   0.00000  Uiso   1.00
N199   N     0.64053   0.46444   0.06710   0.00000  Uiso   1.00
N200   N     0.35947   0.53556   0.26623   0.00000  Uiso   1.00
N201   N     0.56395   0.38743   0.06354   0.00000  Uiso   1.00
N202   N     0.43605   0.61257   0.26980   0.00000  Uiso   1.00
O203   O     0.50000   0.43989   0.20625   0.00000  Uiso   1.00
O204   O     0.50000   0.56011   0.12709   0.00000  Uiso   1.00
O205   O     0.50000   0.43988   0.12706   0.00000  Uiso   1.00
O206   O     0.50000   0.56012   0.20628   0.00000  Uiso   1.00
O207   O     0.42495   0.50000   0.19712   0.00000  Uiso   1.00
O208   O     0.57505   0.50000   0.13621   0.00000  Uiso   1.00
O209   O     0.42494   0.49999   0.11793   0.00000  Uiso   1.00
O210   O     0.57506   0.50001   0.21540   0.00000  Uiso   1.00
C211   C     0.83422   0.42073   0.16648   0.00000  Uiso   1.00
C212   C     0.81356   0.35587   0.20188   0.00000  Uiso   1.00
C213   C     0.83216   0.62390   0.16737   0.00000  Uiso   1.00
C214   C     0.83451   0.37610   0.16597   0.00000  Uiso   1.00
C215   C     0.80064   0.47533   0.02043   0.00000  Uiso   1.00
C216   C     0.86603   0.52467   0.31290   0.00000  Uiso   1.00
C217   C     0.80066   0.47534   0.30413   0.00000  Uiso   1.00
C218   C     0.86601   0.52466   0.02920   0.00000  Uiso   1.00
C219   C     0.99127   0.47819   0.10327   0.00000  Uiso   1.00
C220   C     0.67540   0.52181   0.23006   0.00000  Uiso   1.00
C221   C     0.87835   0.37234   0.09333   0.00000  Uiso   1.00
C222   C     0.83245   0.57926   0.16686   0.00000  Uiso   1.00
C223   C     0.78832   0.62766   0.24000   0.00000  Uiso   1.00
C224   C     0.73482   0.49965   0.15477   0.00000  Uiso   1.00
C225   C     0.93185   0.50035   0.17857   0.00000  Uiso   1.00
C226   C     0.68024   0.49552   0.14863   0.00000  Uiso   1.00
C227   C     0.98642   0.50448   0.18471   0.00000  Uiso   1.00
C228   C     0.85463   0.35334   0.13044   0.00000  Uiso   1.00
C229   C     0.81204   0.64666   0.20290   0.00000  Uiso   1.00
C230   C     0.85311   0.64413   0.13145   0.00000  Uiso   1.00
Cu231  Cu    0.83333   0.50001   0.21355   0.00000  Uiso   1.00
Cu232  Cu    0.83333   0.49999   0.11978   0.00000  Uiso   1.00
H233   H     0.86917   0.62669   0.10444   0.00000  Uiso   1.00
H234   H     0.79750   0.37331   0.22890   0.00000  Uiso   1.00
H235   H     0.77451   0.45555   0.03566   0.00000  Uiso   1.00
H236   H     0.89216   0.54445   0.29767   0.00000  Uiso   1.00
H237   H     0.77451   0.45557   0.28189   0.00000  Uiso   1.00
H238   H     0.89216   0.54443   0.05145   0.00000  Uiso   1.00
N239   N     0.83335   0.50001   0.28403   0.00000  Uiso   1.00
N240   N     0.83332   0.49999   0.04931   0.00000  Uiso   1.00
N241   N     0.97387   0.46444   0.06710   0.00000  Uiso   1.00
N242   N     0.69280   0.53556   0.26623   0.00000  Uiso   1.00
N243   N     0.89729   0.38743   0.06354   0.00000  Uiso   1.00
N244   N     0.76938   0.61257   0.26980   0.00000  Uiso   1.00
O245   O     0.83333   0.43989   0.20625   0.00000  Uiso   1.00
O246   O     0.83334   0.56011   0.12709   0.00000  Uiso   1.00
O247   O     0.83333   0.43988   0.12706   0.00000  Uiso   1.00
O248   O     0.83334   0.56012   0.20628   0.00000  Uiso   1.00
O249   O     0.75828   0.50000   0.19712   0.00000  Uiso   1.00
O250   O     0.90839   0.50000   0.13621   0.00000  Uiso   1.00
O251   O     0.75828   0.49999   0.11793   0.00000  Uiso   1.00
O252   O     0.90839   0.50001   0.21540   0.00000  Uiso   1.00
C253   C     0.16755   0.75407   0.16648   0.00000  Uiso   1.00
C254   C     0.14689   0.68920   0.20188   0.00000  Uiso   1.00
C255   C     0.16549   0.95723   0.16737   0.00000  Uiso   1.00
C256   C     0.16784   0.70944   0.16597   0.00000  Uiso   1.00
C257   C     0.13397   0.80867   0.02043   0.00000  Uiso   1.00
C258   C     0.19936   0.85800   0.31290   0.00000  Uiso   1.00
C259   C     0.13399   0.80867   0.30413   0.00000  Uiso   1.00
C260   C     0.19934   0.85800   0.02920   0.00000  Uiso   1.00
C261   C     0.32460   0.81153   0.10327   0.00000  Uiso   1.00
C262   C     0.00873   0.85514   0.23006   0.00000  Uiso   1.00
C263   C     0.21168   0.70567   0.09333   0.00000  Uiso   1.00
C264   C     0.16578   0.91260   0.16686   0.00000  Uiso   1.00
C265   C     0.12165   0.96100   0.24000   0.00000  Uiso   1.00
C266   C     0.06815   0.83298   0.15477   0.00000  Uiso   1.00
C267   C     0.26518   0.83368   0.17857   0.00000  Uiso   1.00
C268   C     0.01358   0.82886   0.14863   0.00000  Uiso   1.00
C269   C     0.31976   0.83781   0.18471   0.00000  Uiso   1.00
C270   C     0.18796   0.68667   0.13044   0.00000  Uiso   1.00
C271   C     0.14537   0.97999   0.20290   0.00000  Uiso   1.00
C272   C     0.18644   0.97747   0.13145   0.00000  Uiso   1.00
Cu273  Cu    0.16667   0.83334   0.21355   0.00000  Uiso   1.00
Cu274  Cu    0.16667   0.83333   0.11978   0.00000  Uiso   1.00
H275   H     0.20250   0.96002   0.10444   0.00000  Uiso   1.00
H276   H     0.13083   0.70665   0.22890   0.00000  Uiso   1.00
H277   H     0.10784   0.78888   0.03566   0.00000  Uiso   1.00
H278   H     0.22549   0.87778   0.29767   0.00000  Uiso   1.00
H279   H     0.10784   0.78891   0.28189   0.00000  Uiso   1.00
H280   H     0.22549   0.87776   0.05145   0.00000  Uiso   1.00
N281   N     0.16668   0.83334   0.28403   0.00000  Uiso   1.00
N282   N     0.16665   0.83332   0.04931   0.00000  Uiso   1.00
N283   N     0.30720   0.79778   0.06710   0.00000  Uiso   1.00
N284   N     0.02613   0.86889   0.26623   0.00000  Uiso   1.00
N285   N     0.23062   0.72077   0.06354   0.00000  Uiso   1.00
N286   N     0.10271   0.94590   0.26980   0.00000  Uiso   1.00
O287   O     0.16666   0.77322   0.20625   0.00000  Uiso   1.00
O288   O     0.16667   0.89345   0.12709   0.00000  Uiso   1.00
O289   O     0.16666   0.77321   0.12706   0.00000  Uiso   1.00
O290   O     0.16667   0.89346   0.20628   0.00000  Uiso   1.00
O291   O     0.09161   0.83334   0.19712   0.00000  Uiso   1.00
O292   O     0.24172   0.83333   0.13621   0.00000  Uiso   1.00
O293   O     0.09161   0.83333   0.11793   0.00000  Uiso   1.00
O294   O     0.24172   0.83334   0.21540   0.00000  Uiso   1.00
C295   C     0.50089   0.75407   0.16648   0.00000  Uiso   1.00
C296   C     0.48022   0.68920   0.20188   0.00000  Uiso   1.00
C297   C     0.49882   0.95723   0.16737   0.00000  Uiso   1.00
C298   C     0.50118   0.70944   0.16597   0.00000  Uiso   1.00
C299   C     0.46730   0.80867   0.02043   0.00000  Uiso   1.00
C300   C     0.53269   0.85800   0.31290   0.00000  Uiso   1.00
C301   C     0.46732   0.80867   0.30413   0.00000  Uiso   1.00
C302   C     0.53267   0.85800   0.02920   0.00000  Uiso   1.00
C303   C     0.65794   0.81153   0.10327   0.00000  Uiso   1.00
C304   C     0.34206   0.85514   0.23006   0.00000  Uiso   1.00
C305   C     0.54502   0.70567   0.09333   0.00000  Uiso   1.00
C306   C     0.49911   0.91260   0.16686   0.00000  Uiso   1.00
C307   C     0.45498   0.96100   0.24000   0.00000  Uiso   1.00
C308   C     0.40148   0.83298   0.15477   0.00000  Uiso   1.00
C309   C     0.59851   0.83368   0.17857   0.00000  Uiso   1.00
C310   C     0.34691   0.82886   0.14863   0.00000  Uiso   1.00
C311   C     0.65309   0.83781   0.18471   0.00000  Uiso   1.00
C312   C     0.52130   0.68667   0.13044   0.00000  Uiso   1.00
C313   C     0.47870   0.97999   0.20290   0.00000  Uiso   1.00
C314   C     0.51978   0.97747   0.13145   0.00000  Uiso   1.00
Cu315  Cu    0.50000   0.83334   0.21355   0.00000  Uiso   1.00
Cu316  Cu    0.50000   0.83333   0.11978   0.00000  Uiso   1.00
H317   H     0.53584   0.96002   0.10444   0.00000  Uiso   1.00
H318   H     0.46416   0.70665   0.22890   0.00000  Uiso   1.00
H319   H     0.44117   0.78888   0.03566   0.00000  Uiso   1.00
H320   H     0.55883   0.87778   0.29767   0.00000  Uiso   1.00
H321   H     0.44118   0.78891   0.28189   0.00000  Uiso   1.00
H322   H     0.55882   0.87776   0.05145   0.00000  Uiso   1.00
N323   N     0.50001   0.83334   0.28403   0.00000  Uiso   1.00
N324   N     0.49999   0.83332   0.04931   0.00000  Uiso   1.00
N325   N     0.64053   0.79778   0.06710   0.00000  Uiso   1.00
N326   N     0.35947   0.86889   0.26623   0.00000  Uiso   1.00
N327   N     0.56395   0.72077   0.06354   0.00000  Uiso   1.00
N328   N     0.43605   0.94590   0.26980   0.00000  Uiso   1.00
O329   O     0.50000   0.77322   0.20625   0.00000  Uiso   1.00
O330   O     0.50000   0.89345   0.12709   0.00000  Uiso   1.00
O331   O     0.50000   0.77321   0.12706   0.00000  Uiso   1.00
O332   O     0.50000   0.89346   0.20628   0.00000  Uiso   1.00
O333   O     0.42495   0.83334   0.19712   0.00000  Uiso   1.00
O334   O     0.57505   0.83333   0.13621   0.00000  Uiso   1.00
O335   O     0.42494   0.83333   0.11793   0.00000  Uiso   1.00
O336   O     0.57506   0.83334   0.21540   0.00000  Uiso   1.00
C337   C     0.83422   0.75407   0.16648   0.00000  Uiso   1.00
C338   C     0.81356   0.68920   0.20188   0.00000  Uiso   1.00
C339   C     0.83216   0.95723   0.16737   0.00000  Uiso   1.00
C340   C     0.83451   0.70944   0.16597   0.00000  Uiso   1.00
C341   C     0.80064   0.80867   0.02043   0.00000  Uiso   1.00
C342   C     0.86603   0.85800   0.31290   0.00000  Uiso   1.00
C343   C     0.80066   0.80867   0.30413   0.00000  Uiso   1.00
C344   C     0.86601   0.85800   0.02920   0.00000  Uiso   1.00
C345   C     0.99127   0.81153   0.10327   0.00000  Uiso   1.00
C346   C     0.67540   0.85514   0.23006   0.00000  Uiso   1.00
C347   C     0.87835   0.70567   0.09333   0.00000  Uiso   1.00
C348   C     0.83245   0.91260   0.16686   0.00000  Uiso   1.00
C349   C     0.78832   0.96100   0.24000   0.00000  Uiso   1.00
C350   C     0.73482   0.83298   0.15477   0.00000  Uiso   1.00
C351   C     0.93185   0.83368   0.17857   0.00000  Uiso   1.00
C352   C     0.68024   0.82886   0.14863   0.00000  Uiso   1.00
C353   C     0.98642   0.83781   0.18471   0.00000  Uiso   1.00
C354   C     0.85463   0.68667   0.13044   0.00000  Uiso   1.00
C355   C     0.81204   0.97999   0.20290   0.00000  Uiso   1.00
C356   C     0.85311   0.97747   0.13145   0.00000  Uiso   1.00
Cu357  Cu    0.83333   0.83334   0.21355   0.00000  Uiso   1.00
Cu358  Cu    0.83333   0.83333   0.11978   0.00000  Uiso   1.00
H359   H     0.86917   0.96002   0.10444   0.00000  Uiso   1.00
H360   H     0.79750   0.70665   0.22890   0.00000  Uiso   1.00
H361   H     0.77451   0.78888   0.03566   0.00000  Uiso   1.00
H362   H     0.89216   0.87778   0.29767   0.00000  Uiso   1.00
H363   H     0.77451   0.78891   0.28189   0.00000  Uiso   1.00
H364   H     0.89216   0.87776   0.05145   0.00000  Uiso   1.00
N365   N     0.83335   0.83334   0.28403   0.00000  Uiso   1.00
N366   N     0.83332   0.83332   0.04931   0.00000  Uiso   1.00
N367   N     0.97387   0.79778   0.06710   0.00000  Uiso   1.00
N368   N     0.69280   0.86889   0.26623   0.00000  Uiso   1.00
N369   N     0.89729   0.72077   0.06354   0.00000  Uiso   1.00
N370   N     0.76938   0.94590   0.26980   0.00000  Uiso   1.00
O371   O     0.83333   0.77322   0.20625   0.00000  Uiso   1.00
O372   O     0.83334   0.89345   0.12709   0.00000  Uiso   1.00
O373   O     0.83333   0.77321   0.12706   0.00000  Uiso   1.00
O374   O     0.83334   0.89346   0.20628   0.00000  Uiso   1.00
O375   O     0.75828   0.83334   0.19712   0.00000  Uiso   1.00
O376   O     0.90839   0.83333   0.13621   0.00000  Uiso   1.00
O377   O     0.75828   0.83333   0.11793   0.00000  Uiso   1.00
O378   O     0.90839   0.83334   0.21540   0.00000  Uiso   1.00
C379   C     0.16755   0.08740   0.49981   0.00000  Uiso   1.00
C380   C     0.14689   0.02253   0.53522   0.00000  Uiso   1.00
C381   C     0.16549   0.29056   0.50070   0.00000  Uiso   1.00
C382   C     0.16784   0.04277   0.49930   0.00000  Uiso   1.00
C383   C     0.13397   0.14200   0.35376   0.00000  Uiso   1.00
C384   C     0.19936   0.19133   0.64624   0.00000  Uiso   1.00
C385   C     0.13399   0.14200   0.63746   0.00000  Uiso   1.00
C386   C     0.19934   0.19133   0.36254   0.00000  Uiso   1.00
C387   C     0.32460   0.14486   0.43661   0.00000  Uiso   1.00
C388   C     0.00873   0.18847   0.56339   0.00000  Uiso   1.00
C389   C     0.21168   0.03900   0.42667   0.00000  Uiso   1.00
C390   C     0.16578   0.24593   0.50019   0.00000  Uiso   1.00
C391   C     0.12165   0.29433   0.57333   0.00000  Uiso   1.00
C392   C     0.06815   0.16632   0.48810   0.00000  Uiso   1.00
C393   C     0.26518   0.16701   0.51190   0.00000  Uiso   1.00
C394   C     0.01358   0.16219   0.48196   0.00000  Uiso   1.00
C395   C     0.31976   0.17114   0.51804   0.00000  Uiso   1.00
C396   C     0.18796   0.02001   0.46377   0.00000  Uiso   1.00
C397   C     0.14537   0.31333   0.53623   0.00000  Uiso   1.00
C398   C     0.18644   0.31080   0.46478   0.00000  Uiso   1.00
Cu399  Cu    0.16667   0.16667   0.54689   0.00000  Uiso   1.00
Cu400  Cu    0.16667   0.16666   0.45311   0.00000  Uiso   1.00
H401   H     0.20250   0.29335   0.43777   0.00000  Uiso   1.00
H402   H     0.13083   0.03998   0.56223   0.00000  Uiso   1.00
H403   H     0.10784   0.12222   0.36899   0.00000  Uiso   1.00
H404   H     0.22549   0.21112   0.63101   0.00000  Uiso   1.00
H405   H     0.10784   0.12224   0.61522   0.00000  Uiso   1.00
H406   H     0.22549   0.21109   0.38478   0.00000  Uiso   1.00
N407   N     0.16668   0.16668   0.61736   0.00000  Uiso   1.00
N408   N     0.16665   0.16666   0.38264   0.00000  Uiso   1.00
N409   N     0.30720   0.13111   0.40044   0.00000  Uiso   1.00
N410   N     0.02613   0.20222   0.59956   0.00000  Uiso   1.00
N411   N     0.23062   0.05410   0.39687   0.00000  Uiso   1.00
N412   N     0.10271   0.27923   0.60313   0.00000  Uiso   1.00
O413   O     0.16666   0.10655   0.53958   0.00000  Uiso   1.00
O414   O     0.16667   0.22678   0.46042   0.00000  Uiso   1.00
O415   O     0.16666   0.10654   0.46039   0.00000  Uiso   1.00
O416   O     0.16667   0.22679   0.53961   0.00000  Uiso   1.00
O417   O     0.09161   0.16667   0.53046   0.00000  Uiso   1.00
O418   O     0.24172   0.16666   0.46954   0.00000  Uiso   1.00
O419   O     0.09161   0.16666   0.45127   0.00000  Uiso   1.00
O420   O     0.24172   0.16667   0.54873   0.00000  Uiso   1.00
C421   C     0.50089   0.08740   0.49981   0.00000  Uiso   1.00
C422   C     0.48022   0.02253   0.53522   0.00000  Uiso   1.00
C423   C     0.49882   0.29056   0.50070   0.00000  Uiso   1.00
C424   C     0.50118   0.04277   0.49930   0.00000  Uiso   1.00
C425   C     0.46730   0.14200   0.35376   0.00000  Uiso   1.00
C426   C     0.53269   0.19133   0.64624   0.00000  Uiso   1.00
C427   C     0.46732   0.14200   0.63746   0.00000  Uiso   1.00
C428   C     0.53267   0.19133   0.36254   0.00000  Uiso   1.00
C429   C     0.65794   0.14486   0.43661   0.00000  Uiso   1.00
C430   C     0.34206   0.18847   0.56339   0.00000  Uiso   1.00
C431   C     0.54502   0.03900   0.42667   0.00000  Uiso   1.00
C432   C     0.49911   0.24593   0.50019   0.00000  Uiso   1.00
C433   C     0.45498   0.29433   0.57333   0.00000  Uiso   1.00
C434   C     0.40148   0.16632   0.48810   0.00000  Uiso   1.00
C435   C     0.59851   0.16701   0.51190   0.00000  Uiso   1.00
C436   C     0.34691   0.16219   0.48196   0.00000  Uiso   1.00
C437   C     0.65309   0.17114   0.51804   0.00000  Uiso   1.00
C438   C     0.52130   0.02001   0.46377   0.00000  Uiso   1.00
C439   C     0.47870   0.31333   0.53623   0.00000  Uiso   1.00
C440   C     0.51978   0.31080   0.46478   0.00000  Uiso   1.00
Cu441  Cu    0.50000   0.16667   0.54689   0.00000  Uiso   1.00
Cu442  Cu    0.50000   0.16666   0.45311   0.00000  Uiso   1.00
H443   H     0.53584   0.29335   0.43777   0.00000  Uiso   1.00
H444   H     0.46416   0.03998   0.56223   0.00000  Uiso   1.00
H445   H     0.44117   0.12222   0.36899   0.00000  Uiso   1.00
H446   H     0.55883   0.21112   0.63101   0.00000  Uiso   1.00
H447   H     0.44118   0.12224   0.61522   0.00000  Uiso   1.00
H448   H     0.55882   0.21109   0.38478   0.00000  Uiso   1.00
N449   N     0.50001   0.16668   0.61736   0.00000  Uiso   1.00
N450   N     0.49999   0.16666   0.38264   0.00000  Uiso   1.00
N451   N     0.64053   0.13111   0.40044   0.00000  Uiso   1.00
N452   N     0.35947   0.20222   0.59956   0.00000  Uiso   1.00
N453   N     0.56395   0.05410   0.39687   0.00000  Uiso   1.00
N454   N     0.43605   0.27923   0.60313   0.00000  Uiso   1.00
O455   O     0.50000   0.10655   0.53958   0.00000  Uiso   1.00
O456   O     0.50000   0.22678   0.46042   0.00000  Uiso   1.00
O457   O     0.50000   0.10654   0.46039   0.00000  Uiso   1.00
O458   O     0.50000   0.22679   0.53961   0.00000  Uiso   1.00
O459   O     0.42495   0.16667   0.53046   0.00000  Uiso   1.00
O460   O     0.57505   0.16666   0.46954   0.00000  Uiso   1.00
O461   O     0.42494   0.16666   0.45127   0.00000  Uiso   1.00
O462   O     0.57506   0.16667   0.54873   0.00000  Uiso   1.00
C463   C     0.83422   0.08740   0.49981   0.00000  Uiso   1.00
C464   C     0.81356   0.02253   0.53522   0.00000  Uiso   1.00
C465   C     0.83216   0.29056   0.50070   0.00000  Uiso   1.00
C466   C     0.83451   0.04277   0.49930   0.00000  Uiso   1.00
C467   C     0.80064   0.14200   0.35376   0.00000  Uiso   1.00
C468   C     0.86603   0.19133   0.64624   0.00000  Uiso   1.00
C469   C     0.80066   0.14200   0.63746   0.00000  Uiso   1.00
C470   C     0.86601   0.19133   0.36254   0.00000  Uiso   1.00
C471   C     0.99127   0.14486   0.43661   0.00000  Uiso   1.00
C472   C     0.67540   0.18847   0.56339   0.00000  Uiso   1.00
C473   C     0.87835   0.03900   0.42667   0.00000  Uiso   1.00
C474   C     0.83245   0.24593   0.50019   0.00000  Uiso   1.00
C475   C     0.78832   0.29433   0.57333   0.00000  Uiso   1.00
C476   C     0.73482   0.16632   0.48810   0.00000  Uiso   1.00
C477   C     0.93185   0.16701   0.51190   0.00000  Uiso   1.00
C478   C     0.68024   0.16219   0.48196   0.00000  Uiso   1.00
C479   C     0.98642   0.17114   0.51804   0.00000  Uiso   1.00
C480   C     0.85463   0.02001   0.46377   0.00000  Uiso   1.00
C481   C     0.81204   0.31333   0.53623   0.00000  Uiso   1.00
C482   C     0.85311   0.31080   0.46478   0.00000  Uiso   1.00
Cu483  Cu    0.83333   0.16667   0.54689   0.00000  Uiso   1.00
Cu484  Cu    0.83333   0.16666   0.45311   0.00000  Uiso   1.00
H485   H     0.86917   0.29335   0.43777   0.00000  Uiso   1.00
H486   H     0.79750   0.03998   0.56223   0.00000  Uiso   1.00
H487   H     0.77451   0.12222   0.36899   0.00000  Uiso   1.00
H488   H     0.89216   0.21112   0.63101   0.00000  Uiso   1.00
H489   H     0.77451   0.12224   0.61522   0.00000  Uiso   1.00
H490   H     0.89216   0.21109   0.38478   0.00000  Uiso   1.00
N491   N     0.83335   0.16668   0.61736   0.00000  Uiso   1.00
N492   N     0.83332   0.16666   0.38264   0.00000  Uiso   1.00
N493   N     0.97387   0.13111   0.40044   0.00000  Uiso   1.00
N494   N     0.69280   0.20222   0.59956   0.00000  Uiso   1.00
N495   N     0.89729   0.05410   0.39687   0.00000  Uiso   1.00
N496   N     0.76938   0.27923   0.60313   0.00000  Uiso   1.00
O497   O     0.83333   0.10655   0.53958   0.00000  Uiso   1.00
O498   O     0.83334   0.22678   0.46042   0.00000  Uiso   1.00
O499   O     0.83333   0.10654   0.46039   0.00000  Uiso   1.00
O500   O     0.83334   0.22679   0.53961   0.00000  Uiso   1.00
O501   O     0.75828   0.16667   0.53046   0.00000  Uiso   1.00
O502   O     0.90839   0.16666   0.46954   0.00000  Uiso   1.00
O503   O     0.75828   0.16666   0.45127   0.00000  Uiso   1.00
O504   O     0.90839   0.16667   0.54873   0.00000  Uiso   1.00
C505   C     0.16755   0.42073   0.49981   0.00000  Uiso   1.00
C506   C     0.14689   0.35587   0.53522   0.00000  Uiso   1.00
C507   C     0.16549   0.62390   0.50070   0.00000  Uiso   1.00
C508   C     0.16784   0.37610   0.49930   0.00000  Uiso   1.00
C509   C     0.13397   0.47533   0.35376   0.00000  Uiso   1.00
C510   C     0.19936   0.52467   0.64624   0.00000  Uiso   1.00
C511   C     0.13399   0.47534   0.63746   0.00000  Uiso   1.00
C512   C     0.19934   0.52466   0.36254   0.00000  Uiso   1.00
C513   C     0.32460   0.47819   0.43661   0.00000  Uiso   1.00
C514   C     0.00873   0.52181   0.56339   0.00000  Uiso   1.00
C515   C     0.21168   0.37234   0.42667   0.00000  Uiso   1.00
C516   C     0.16578   0.57926   0.50019   0.00000  Uiso   1.00
C517   C     0.12165   0.62766   0.57333   0.00000  Uiso   1.00
C518   C     0.06815   0.49965   0.48810   0.00000  Uiso   1.00
C519   C     0.26518   0.50035   0.51190   0.00000  Uiso   1.00
C520   C     0.01358   0.49552   0.48196   0.00000  Uiso   1.00
C521   C     0.31976   0.50448   0.51804   0.00000  Uiso   1.00
C522   C     0.18796   0.35334   0.46377   0.00000  Uiso   1.00
C523   C     0.14537   0.64666   0.53623   0.00000  Uiso   1.00
C524   C     0.18644   0.64413   0.46478   0.00000  Uiso   1.00
Cu525  Cu    0.16667   0.50001   0.54689   0.00000  Uiso   1.00
Cu526  Cu    0.16667   0.49999   0.45311   0.00000  Uiso   1.00
H527   H     0.20250   0.62669   0.43777   0.00000  Uiso   1.00
H528   H     0.13083   0.37331   0.56223   0.00000  Uiso   1.00
H529   H     0.10784   0.45555   0.36899   0.00000  Uiso   1.00
H530   H     0.22549   0.54445   0.63101   0.00000  Uiso   1.00
H531   H     0.10784   0.45557   0.61522   0.00000  Uiso   1.00
H532   H     0.22549   0.54443   0.38478   0.00000  Uiso   1.00
N533   N     0.16668   0.50001   0.61736   0.00000  Uiso   1.00
N534   N     0.16665   0.49999   0.38264   0.00000  Uiso   1.00
N535   N     0.30720   0.46444   0.40044   0.00000  Uiso   1.00
N536   N     0.02613   0.53556   0.59956   0.00000  Uiso   1.00
N537   N     0.23062   0.38743   0.39687   0.00000  Uiso   1.00
N538   N     0.10271   0.61257   0.60313   0.00000  Uiso   1.00
O539   O     0.16666   0.43989   0.53958   0.00000  Uiso   1.00
O540   O     0.16667   0.56011   0.46042   0.00000  Uiso   1.00
O541   O     0.16666   0.43988   0.46039   0.00000  Uiso   1.00
O542   O     0.16667   0.56012   0.53961   0.00000  Uiso   1.00
O543   O     0.09161   0.50000   0.53046   0.00000  Uiso   1.00
O544   O     0.24172   0.50000   0.46954   0.00000  Uiso   1.00
O545   O     0.09161   0.49999   0.45127   0.00000  Uiso   1.00
O546   O     0.24172   0.50001   0.54873   0.00000  Uiso   1.00
C547   C     0.50089   0.42073   0.49981   0.00000  Uiso   1.00
C548   C     0.48022   0.35587   0.53522   0.00000  Uiso   1.00
C549   C     0.49882   0.62390   0.50070   0.00000  Uiso   1.00
C550   C     0.50118   0.37610   0.49930   0.00000  Uiso   1.00
C551   C     0.46730   0.47533   0.35376   0.00000  Uiso   1.00
C552   C     0.53269   0.52467   0.64624   0.00000  Uiso   1.00
C553   C     0.46732   0.47534   0.63746   0.00000  Uiso   1.00
C554   C     0.53267   0.52466   0.36254   0.00000  Uiso   1.00
C555   C     0.65794   0.47819   0.43661   0.00000  Uiso   1.00
C556   C     0.34206   0.52181   0.56339   0.00000  Uiso   1.00
C557   C     0.54502   0.37234   0.42667   0.00000  Uiso   1.00
C558   C     0.49911   0.57926   0.50019   0.00000  Uiso   1.00
C559   C     0.45498   0.62766   0.57333   0.00000  Uiso   1.00
C560   C     0.40148   0.49965   0.48810   0.00000  Uiso   1.00
C561   C     0.59851   0.50035   0.51190   0.00000  Uiso   1.00
C562   C     0.34691   0.49552   0.48196   0.00000  Uiso   1.00
C563   C     0.65309   0.50448   0.51804   0.00000  Uiso   1.00
C564   C     0.52130   0.35334   0.46377   0.00000  Uiso   1.00
C565   C     0.47870   0.64666   0.53623   0.00000  Uiso   1.00
C566   C     0.51978   0.64413   0.46478   0.00000  Uiso   1.00
Cu567  Cu    0.50000   0.50001   0.54689   0.00000  Uiso   1.00
Cu568  Cu    0.50000   0.49999   0.45311   0.00000  Uiso   1.00
H569   H     0.53584   0.62669   0.43777   0.00000  Uiso   1.00
H570   H     0.46416   0.37331   0.56223   0.00000  Uiso   1.00
H571   H     0.44117   0.45555   0.36899   0.00000  Uiso   1.00
H572   H     0.55883   0.54445   0.63101   0.00000  Uiso   1.00
H573   H     0.44118   0.45557   0.61522   0.00000  Uiso   1.00
H574   H     0.55882   0.54443   0.38478   0.00000  Uiso   1.00
N575   N     0.50001   0.50001   0.61736   0.00000  Uiso   1.00
N576   N     0.49999   0.49999   0.38264   0.00000  Uiso   1.00
N577   N     0.64053   0.46444   0.40044   0.00000  Uiso   1.00
N578   N     0.35947   0.53556   0.59956   0.00000  Uiso   1.00
N579   N     0.56395   0.38743   0.39687   0.00000  Uiso   1.00
N580   N     0.43605   0.61257   0.60313   0.00000  Uiso   1.00
O581   O     0.50000   0.43989   0.53958   0.00000  Uiso   1.00
O582   O     0.50000   0.56011   0.46042   0.00000  Uiso   1.00
O583   O     0.50000   0.43988   0.46039   0.00000  Uiso   1.00
O584   O     0.50000   0.56012   0.53961   0.00000  Uiso   1.00
O585   O     0.42495   0.50000   0.53046   0.00000  Uiso   1.00
O586   O     0.57505   0.50000   0.46954   0.00000  Uiso   1.00
O587   O     0.42494   0.49999   0.45127   0.00000  Uiso   1.00
O588   O     0.57506   0.50001   0.54873   0.00000  Uiso   1.00
C589   C     0.83422   0.42073   0.49981   0.00000  Uiso   1.00
C590   C     0.81356   0.35587   0.53522   0.00000  Uiso   1.00
C591   C     0.83216   0.62390   0.50070   0.00000  Uiso   1.00
C592   C     0.83451   0.37610   0.49930   0.00000  Uiso   1.00
C593   C     0.80064   0.47533   0.35376   0.00000  Uiso   1.00
C594   C     0.86603   0.52467   0.64624   0.00000  Uiso   1.00
C595   C     0.80066   0.47534   0.63746   0.00000  Uiso   1.00
C596   C     0.86601   0.52466   0.36254   0.00000  Uiso   1.00
C597   C     0.99127   0.47819   0.43661   0.00000  Uiso   1.00
C598   C     0.67540   0.52181   0.56339   0.00000  Uiso   1.00
C599   C     0.87835   0.37234   0.42667   0.00000  Uiso   1.00
C600   C     0.83245   0.57926   0.50019   0.00000  Uiso   1.00
C601   C     0.78832   0.62766   0.57333   0.00000  Uiso   1.00
C602   C     0.73482   0.49965   0.48810   0.00000  Uiso   1.00
C603   C     0.93185   0.50035   0.51190   0.00000  Uiso   1.00
C604   C     0.68024   0.49552   0.48196   0.00000  Uiso   1.00
C605   C     0.98642   0.50448   0.51804   0.00000  Uiso   1.00
C606   C     0.85463   0.35334   0.46377   0.00000  Uiso   1.00
C607   C     0.81204   0.64666   0.53623   0.00000  Uiso   1.00
C608   C     0.85311   0.64413   0.46478   0.00000  Uiso   1.00
Cu609  Cu    0.83333   0.50001   0.54689   0.00000  Uiso   1.00
Cu610  Cu    0.83333   0.49999   0.45311   0.00000  Uiso   1.00
H611   H     0.86917   0.62669   0.43777   0.00000  Uiso   1.00
H612   H     0.79750   0.37331   0.56223   0.00000  Uiso   1.00
H613   H     0.77451   0.45555   0.36899   0.00000  Uiso   1.00
H614   H     0.89216   0.54445   0.63101   0.00000  Uiso   1.00
H615   H     0.77451   0.45557   0.61522   0.00000  Uiso   1.00
H616   H     0.89216   0.54443   0.38478   0.00000  Uiso   1.00
N617   N     0.83335   0.50001   0.61736   0.00000  Uiso   1.00
N618   N     0.83332   0.49999   0.38264   0.00000  Uiso   1.00
N619   N     0.97387   0.46444   0.40044   0.00000  Uiso   1.00
N620   N     0.69280   0.53556   0.59956   0.00000  Uiso   1.00
N621   N     0.89729   0.38743   0.39687   0.00000  Uiso   1.00
N622   N     0.76938   0.61257   0.60313   0.00000  Uiso   1.00
O623   O     0.83333   0.43989   0.53958   0.00000  Uiso   1.00
O624   O     0.83334   0.56011   0.46042   0.00000  Uiso   1.00
O625   O     0.83333   0.43988   0.46039   0.00000  Uiso   1.00
O626   O     0.83334   0.56012   0.53961   0.00000  Uiso   1.00
O627   O     0.75828   0.50000   0.53046   0.00000  Uiso   1.00
O628   O     0.90839   0.50000   0.46954   0.00000  Uiso   1.00
O629   O     0.75828   0.49999   0.45127   0.00000  Uiso   1.00
O630   O     0.90839   0.50001   0.54873   0.00000  Uiso   1.00
C631   C     0.16755   0.75407   0.49981   0.00000  Uiso   1.00
C632   C     0.14689   0.68920   0.53522   0.00000  Uiso   1.00
C633   C     0.16549   0.95723   0.50070   0.00000  Uiso   1.00
C634   C     0.16784   0.70944   0.49930   0.00000  Uiso   1.00
C635   C     0.13397   0.80867   0.35376   0.00000  Uiso   1.00
C636   C     0.19936   0.85800   0.64624   0.00000  Uiso   1.00
C637   C     0.13399   0.80867   0.63746   0.00000  Uiso   1.00
C638   C     0.19934   0.85800   0.36254   0.00000  Uiso   1.00
C639   C     0.32460   0.81153   0.43661   0.00000  Uiso   1.00
C640   C     0.00873   0.85514   0.56339   0.00000  Uiso   1.00
C641   C     0.21168   0.70567   0.42667   0.00000  Uiso   1.00
C642   C     0.16578   0.91260   0.50019   0.00000  Uiso   1.00
C643   C     0.12165   0.96100   0.57333   0.00000  Uiso   1.00
C644   C     0.06815   0.83298   0.48810   0.00000  Uiso   1.00
C645   C     0.26518   0.83368   0.51190   0.00000  Uiso   1.00
C646   C     0.01358   0.82886   0.48196   0.00000  Uiso   1.00
C647   C     0.31976   0.83781   0.51804   0.00000  Uiso   1.00
C648   C     0.18796   0.68667   0.46377   0.00000  Uiso   1.00
C649   C     0.14537   0.97999   0.53623   0.00000  Uiso   1.00
C650   C     0.18644   0.97747   0.46478   0.00000  Uiso   1.00
Cu651  Cu    0.16667   0.83334   0.54689   0.00000  Uiso   1.00
Cu652  Cu    0.16667   0.83333   0.45311   0.00000  Uiso   1.00
H653   H     0.20250   0.96002   0.43777   0.00000  Uiso   1.00
H654   H     0.13083   0.70665   0.56223   0.00000  Uiso   1.00
H655   H     0.10784   0.78888   0.36899   0.00000  Uiso   1.00
H656   H     0.22549   0.87778   0.63101   0.00000  Uiso   1.00
H657   H     0.10784   0.78891   0.61522   0.00000  Uiso   1.00
H658   H     0.22549   0.87776   0.38478   0.00000  Uiso   1.00
N659   N     0.16668   0.83334   0.61736   0.00000  Uiso   1.00
N660   N     0.16665   0.83332   0.38264   0.00000  Uiso   1.00
N661   N     0.30720   0.79778   0.40044   0.00000  Uiso   1.00
N662   N     0.02613   0.86889   0.59956   0.00000  Uiso   1.00
N663   N     0.23062   0.72077   0.39687   0.00000  Uiso   1.00
N664   N     0.10271   0.94590   0.60313   0.00000  Uiso   1.00
O665   O     0.16666   0.77322   0.53958   0.00000  Uiso   1.00
O666   O     0.16667   0.89345   0.46042   0.00000  Uiso   1.00
O667   O     0.16666   0.77321   0.46039   0.00000  Uiso   1.00
O668   O     0.16667   0.89346   0.53961   0.00000  Uiso   1.00
O669   O     0.09161   0.83334   0.53046   0.00000  Uiso   1.00
O670   O     0.24172   0.83333   0.46954   0.00000  Uiso   1.00
O671   O     0.09161   0.83333   0.45127   0.00000  Uiso   1.00
O672   O     0.24172   0.83334   0.54873   0.00000  Uiso   1.00
C673   C     0.50089   0.75407   0.49981   0.00000  Uiso   1.00
C674   C     0.48022   0.68920   0.53522   0.00000  Uiso   1.00
C675   C     0.49882   0.95723   0.50070   0.00000  Uiso   1.00
C676   C     0.50118   0.70944   0.49930   0.00000  Uiso   1.00
C677   C     0.46730   0.80867   0.35376   0.00000  Uiso   1.00
C678   C     0.53269   0.85800   0.64624   0.00000  Uiso   1.00
C679   C     0.46732   0.80867   0.63746   0.00000  Uiso   1.00
C680   C     0.53267   0.85800   0.36254   0.00000  Uiso   1.00
C681   C     0.65794   0.81153   0.43661   0.00000  Uiso   1.00
C682   C     0.34206   0.85514   0.56339   0.00000  Uiso   1.00
C683   C     0.54502   0.70567   0.42667   0.00000  Uiso   1.00
C684   C     0.49911   0.91260   0.50019   0.00000  Uiso   1.00
C685   C     0.45498   0.96100   0.57333   0.00000  Uiso   1.00
C686   C     0.40148   0.83298   0.48810   0.00000  Uiso   1.00
C687   C     0.59851   0.83368   0.51190   0.00000  Uiso   1.00
C688   C     0.34691   0.82886   0.48196   0.00000  Uiso   1.00
C689   C     0.65309   0.83781   0.51804   0.00000  Uiso   1.00
C690   C     0.52130   0.68667   0.46377   0.00000  Uiso   1.00
C691   C     0.47870   0.97999   0.53623   0.00000  Uiso   1.00
C692   C     0.51978   0.97747   0.46478   0.00000  Uiso   1.00
Cu693  Cu    0.50000   0.83334   0.54689   0.00000  Uiso   1.00
Cu694  Cu    0.50000   0.83333   0.45311   0.00000  Uiso   1.00
H695   H     0.53584   0.96002   0.43777   0.00000  Uiso   1.00
H696   H     0.46416   0.70665   0.56223   0.00000  Uiso   1.00
H697   H     0.44117   0.78888   0.36899   0.00000  Uiso   1.00
H698   H     0.55883   0.87778   0.63101   0.00000  Uiso   1.00
H699   H     0.44118   0.78891   0.61522   0.00000  Uiso   1.00
H700   H     0.55882   0.87776   0.38478   0.00000  Uiso   1.00
N701   N     0.50001   0.83334   0.61736   0.00000  Uiso   1.00
N702   N     0.49999   0.83332   0.38264   0.00000  Uiso   1.00
N703   N     0.64053   0.79778   0.40044   0.00000  Uiso   1.00
N704   N     0.35947   0.86889   0.59956   0.00000  Uiso   1.00
N705   N     0.56395   0.72077   0.39687   0.00000  Uiso   1.00
N706   N     0.43605   0.94590   0.60313   0.00000  Uiso   1.00
O707   O     0.50000   0.77322   0.53958   0.00000  Uiso   1.00
O708   O     0.50000   0.89345   0.46042   0.00000  Uiso   1.00
O709   O     0.50000   0.77321   0.46039   0.00000  Uiso   1.00
O710   O     0.50000   0.89346   0.53961   0.00000  Uiso   1.00
O711   O     0.42495   0.83334   0.53046   0.00000  Uiso   1.00
O712   O     0.57505   0.83333   0.46954   0.00000  Uiso   1.00
O713   O     0.42494   0.83333   0.45127   0.00000  Uiso   1.00
O714   O     0.57506   0.83334   0.54873   0.00000  Uiso   1.00
C715   C     0.83422   0.75407   0.49981   0.00000  Uiso   1.00
C716   C     0.81356   0.68920   0.53522   0.00000  Uiso   1.00
C717   C     0.83216   0.95723   0.50070   0.00000  Uiso   1.00
C718   C     0.83451   0.70944   0.49930   0.00000  Uiso   1.00
C719   C     0.80064   0.80867   0.35376   0.00000  Uiso   1.00
C720   C     0.86603   0.85800   0.64624   0.00000  Uiso   1.00
C721   C     0.80066   0.80867   0.63746   0.00000  Uiso   1.00
C722   C     0.86601   0.85800   0.36254   0.00000  Uiso   1.00
C723   C     0.99127   0.81153   0.43661   0.00000  Uiso   1.00
C724   C     0.67540   0.85514   0.56339   0.00000  Uiso   1.00
C725   C     0.87835   0.70567   0.42667   0.00000  Uiso   1.00
C726   C     0.83245   0.91260   0.50019   0.00000  Uiso   1.00
C727   C     0.78832   0.96100   0.57333   0.00000  Uiso   1.00
C728   C     0.73482   0.83298   0.48810   0.00000  Uiso   1.00
C729   C     0.93185   0.83368   0.51190   0.00000  Uiso   1.00
C730   C     0.68024   0.82886   0.48196   0.00000  Uiso   1.00
C731   C     0.98642   0.83781   0.51804   0.00000  Uiso   1.00
C732   C     0.85463   0.68667   0.46377   0.00000  Uiso   1.00
C733   C     0.81204   0.97999   0.53623   0.00000  Uiso   1.00
C734   C     0.85311   0.97747   0.46478   0.00000  Uiso   1.00
Cu735  Cu    0.83333   0.83334   0.54689   0.00000  Uiso   1.00
Cu736  Cu    0.83333   0.83333   0.45311   0.00000  Uiso   1.00
H737   H     0.86917   0.96002   0.43777   0.00000  Uiso   1.00
H738   H     0.79750   0.70665   0.56223   0.00000  Uiso   1.00
H739   H     0.77451   0.78888   0.36899   0.00000  Uiso   1.00
H740   H     0.89216   0.87778   0.63101   0.00000  Uiso   1.00
H741   H     0.77451   0.78891   0.61522   0.00000  Uiso   1.00
H742   H     0.89216   0.87776   0.38478   0.00000  Uiso   1.00
N743   N     0.83335   0.83334   0.61736   0.00000  Uiso   1.00
N744   N     0.83332   0.83332   0.38264   0.00000  Uiso   1.00
N745   N     0.97387   0.79778   0.40044   0.00000  Uiso   1.00
N746   N     0.69280   0.86889   0.59956   0.00000  Uiso   1.00
N747   N     0.89729   0.72077   0.39687   0.00000  Uiso   1.00
N748   N     0.76938   0.94590   0.60313   0.00000  Uiso   1.00
O749   O     0.83333   0.77322   0.53958   0.00000  Uiso   1.00
O750   O     0.83334   0.89345   0.46042   0.00000  Uiso   1.00
O751   O     0.83333   0.77321   0.46039   0.00000  Uiso   1.00
O752   O     0.83334   0.89346   0.53961   0.00000  Uiso   1.00
O753   O     0.75828   0.83334   0.53046   0.00000  Uiso   1.00
O754   O     0.90839   0.83333   0.46954   0.00000  Uiso   1.00
O755   O     0.75828   0.83333   0.45127   0.00000  Uiso   1.00
O756   O     0.90839   0.83334   0.54873   0.00000  Uiso   1.00
C757   C     0.16755   0.08740   0.83314   0.00000  Uiso   1.00
C758   C     0.14689   0.02253   0.86855   0.00000  Uiso   1.00
C759   C     0.16549   0.29056   0.83403   0.00000  Uiso   1.00
C760   C     0.16784   0.04277   0.83263   0.00000  Uiso   1.00
C761   C     0.13397   0.14200   0.68710   0.00000  Uiso   1.00
C762   C     0.19936   0.19133   0.97957   0.00000  Uiso   1.00
C763   C     0.13399   0.14200   0.97080   0.00000  Uiso   1.00
C764   C     0.19934   0.19133   0.69587   0.00000  Uiso   1.00
C765   C     0.32460   0.14486   0.76994   0.00000  Uiso   1.00
C766   C     0.00873   0.18847   0.89673   0.00000  Uiso   1.00
C767   C     0.21168   0.03900   0.76000   0.00000  Uiso   1.00
C768   C     0.16578   0.24593   0.83352   0.00000  Uiso   1.00
C769   C     0.12165   0.29433   0.90667   0.00000  Uiso   1.00
C770   C     0.06815   0.16632   0.82143   0.00000  Uiso   1.00
C771   C     0.26518   0.16701   0.84523   0.00000  Uiso   1.00
C772   C     0.01358   0.16219   0.81529   0.00000  Uiso   1.00
C773   C     0.31976   0.17114   0.85137   0.00000  Uiso   1.00
C774   C     0.18796   0.02001   0.79710   0.00000  Uiso   1.00
C775   C     0.14537   0.31333   0.86956   0.00000  Uiso   1.00
C776   C     0.18644   0.31080   0.79812   0.00000  Uiso   1.00
Cu777  Cu    0.16667   0.16667   0.88022   0.00000  Uiso   1.00
Cu778  Cu    0.16667   0.16666   0.78645   0.00000  Uiso   1.00
H779   H     0.20250   0.29335   0.77110   0.00000  Uiso   1.00
H780   H     0.13083   0.03998   0.89556   0.00000  Uiso   1.00
H781   H     0.10784   0.12222   0.70233   0.00000  Uiso   1.00
H782   H     0.22549   0.21112   0.96434   0.00000  Uiso   1.00
H783   H     0.10784   0.12224   0.94855   0.00000  Uiso   1.00
H784   H     0.22549   0.21109   0.71811   0.00000  Uiso   1.00
N785   N     0.16668   0.16668   0.95069   0.00000  Uiso   1.00
N786   N     0.16665   0.16666   0.71597   0.00000  Uiso   1.00
N787   N     0.30720   0.13111   0.73377   0.00000  Uiso   1.00
N788   N     0.02613   0.20222   0.93290   0.00000  Uiso   1.00
N789   N     0.23062   0.05410   0.73020   0.00000  Uiso   1.00
N790   N     0.10271   0.27923   0.93646   0.00000  Uiso   1.00
O791   O     0.16666   0.10655   0.87291   0.00000  Uiso   1.00
O792   O     0.16667   0.22678   0.79375   0.00000  Uiso   1.00
O793   O     0.16666   0.10654   0.79372   0.00000  Uiso   1.00
O794   O     0.16667   0.22679   0.87294   0.00000  Uiso   1.00
O795   O     0.09161   0.16667   0.86379   0.00000  Uiso   1.00
O796   O     0.24172   0.16666   0.80288   0.00000  Uiso   1.00
O797   O     0.09161   0.16666   0.78460   0.00000  Uiso   1.00
O798   O     0.24172   0.16667   0.88207   0.00000  Uiso   1.00
C799   C     0.50089   0.08740   0.83314   0.00000  Uiso   1.00
C800   C     0.48022   0.02253   0.86855   0.00000  Uiso   1.00
C801   C     0.49882   0.29056   0.83403   0.00000  Uiso   1.00
C802   C     0.50118   0.04277   0.83263   0.00000  Uiso   1.00
C803   C     0.46730   0.14200   0.68710   0.00000  Uiso   1.00
C804   C     0.53269   0.19133   0.97957   0.00000  Uiso   1.00
C805   C     0.46732   0.14200   0.97080   0.00000  Uiso   1.00
C806   C     0.53267   0.19133   0.69587   0.00000  Uiso   1.00
C807   C     0.65794   0.14486   0.76994   0.00000  Uiso   1.00
C808   C     0.34206   0.18847   0.89673   0.00000  Uiso   1.00
C809   C     0.54502   0.03900   0.76000   0.00000  Uiso   1.00
C810   C     0.49911   0.24593   0.83352   0.00000  Uiso   1.00
C811   C     0.45498   0.29433   0.90667   0.00000  Uiso   1.00
C812   C     0.40148   0.16632   0.82143   0.00000  Uiso   1.00
C813   C     0.59851   0.16701   0.84523   0.00000  Uiso   1.00
C814   C     0.34691   0.16219   0.81529   0.00000  Uiso   1.00
C815   C     0.65309   0.17114   0.85137   0.00000  Uiso   1.00
C816   C     0.52130   0.02001   0.79710   0.00000  Uiso   1.00
C817   C     0.47870   0.31333   0.86956   0.00000  Uiso   1.00
C818   C     0.51978   0.31080   0.79812   0.00000  Uiso   1.00
Cu819  Cu    0.50000   0.16667   0.88022   0.00000  Uiso   1.00
Cu820  Cu    0.50000   0.16666   0.78645   0.00000  Uiso   1.00
H821   H     0.53584   0.29335   0.77110   0.00000  Uiso   1.00
H822   H     0.46416   0.03998   0.89556   0.00000  Uiso   1.00
H823   H     0.44117   0.12222   0.70233   0.00000  Uiso   1.00
H824   H     0.55883   0.21112   0.96434   0.00000  Uiso   1.00
H825   H     0.44118   0.12224   0.94855   0.00000  Uiso   1.00
H826   H     0.55882   0.21109   0.71811   0.00000  Uiso   1.00
N827   N     0.50001   0.16668   0.95069   0.00000  Uiso   1.00
N828   N     0.49999   0.16666   0.71597   0.00000  Uiso   1.00
N829   N     0.64053   0.13111   0.73377   0.00000  Uiso   1.00
N830   N     0.35947   0.20222   0.93290   0.00000  Uiso   1.00
N831   N     0.56395   0.05410   0.73020   0.00000  Uiso   1.00
N832   N     0.43605   0.27923   0.93646   0.00000  Uiso   1.00
O833   O     0.50000   0.10655   0.87291   0.00000  Uiso   1.00
O834   O     0.50000   0.22678   0.79375   0.00000  Uiso   1.00
O835   O     0.50000   0.10654   0.79372   0.00000  Uiso   1.00
O836   O     0.50000   0.22679   0.87294   0.00000  Uiso   1.00
O837   O     0.42495   0.16667   0.86379   0.00000  Uiso   1.00
O838   O     0.57505   0.16666   0.80288   0.00000  Uiso   1.00
O839   O     0.42494   0.16666   0.78460   0.00000  Uiso   1.00
O840   O     0.57506   0.16667   0.88207   0.00000  Uiso   1.00
C841   C     0.83422   0.08740   0.83314   0.00000  Uiso   1.00
C842   C     0.81356   0.02253   0.86855   0.00000  Uiso   1.00
C843   C     0.83216   0.29056   0.83403   0.00000  Uiso   1.00
C844   C     0.83451   0.04277   0.83263   0.00000  Uiso   1.00
C845   C     0.80064   0.14200   0.68710   0.00000  Uiso   1.00
C846   C     0.86603   0.19133   0.97957   0.00000  Uiso   1.00
C847   C     0.80066   0.14200   0.97080   0.00000  Uiso   1.00
C848   C     0.86601   0.19133   0.69587   0.00000  Uiso   1.00
C849   C     0.99127   0.14486   0.76994   0.00000  Uiso   1.00
C850   C     0.67540   0.18847   0.89673   0.00000  Uiso   1.00
C851   C     0.87835   0.03900   0.76000   0.00000  Uiso   1.00
C852   C     0.83245   0.24593   0.83352   0.00000  Uiso   1.00
C853   C     0.78832   0.29433   0.90667   0.00000  Uiso   1.00
C854   C     0.73482   0.16632   0.82143   0.00000  Uiso   1.00
C855   C     0.93185   0.16701   0.84523   0.00000  Uiso   1.00
C856   C     0.68024   0.16219   0.81529   0.00000  Uiso   1.00
C857   C     0.98642   0.17114   0.85137   0.00000  Uiso   1.00
C858   C     0.85463   0.02001   0.79710   0.00000  Uiso   1.00
C859   C     0.81204   0.31333   0.86956   0.00000  Uiso   1.00
C860   C     0.85311   0.31080   0.79812   0.00000  Uiso   1.00
Cu861  Cu    0.83333   0.16667   0.88022   0.00000  Uiso   1.00
Cu862  Cu    0.83333   0.16666   0.78645   0.00000  Uiso   1.00
H863   H     0.86917   0.29335   0.77110   0.00000  Uiso   1.00
H864   H     0.79750   0.03998   0.89556   0.00000  Uiso   1.00
H865   H     0.77451   0.12222   0.70233   0.00000  Uiso   1.00
H866   H     0.89216   0.21112   0.96434   0.00000  Uiso   1.00
H867   H     0.77451   0.12224   0.94855   0.00000  Uiso   1.00
H868   H     0.89216   0.21109   0.71811   0.00000  Uiso   1.00
N869   N     0.83335   0.16668   0.95069   0.00000  Uiso   1.00
N870   N     0.83332   0.16666   0.71597   0.00000  Uiso   1.00
N871   N     0.97387   0.13111   0.73377   0.00000  Uiso   1.00
N872   N     0.69280   0.20222   0.93290   0.00000  Uiso   1.00
N873   N     0.89729   0.05410   0.73020   0.00000  Uiso   1.00
N874   N     0.76938   0.27923   0.93646   0.00000  Uiso   1.00
O875   O     0.83333   0.10655   0.87291   0.00000  Uiso   1.00
O876   O     0.83334   0.22678   0.79375   0.00000  Uiso   1.00
O877   O     0.83333   0.10654   0.79372   0.00000  Uiso   1.00
O878   O     0.83334   0.22679   0.87294   0.00000  Uiso   1.00
O879   O     0.75828   0.16667   0.86379   0.00000  Uiso   1.00
O880   O     0.90839   0.16666   0.80288   0.00000  Uiso   1.00
O881   O     0.75828   0.16666   0.78460   0.00000  Uiso   1.00
O882   O     0.90839   0.16667   0.88207   0.00000  Uiso   1.00
C883   C     0.16755   0.42073   0.83314   0.00000  Uiso   1.00
C884   C     0.14689   0.35587   0.86855   0.00000  Uiso   1.00
C885   C     0.16549   0.62390   0.83403   0.00000  Uiso   1.00
C886   C     0.16784   0.37610   0.83263   0.00000  Uiso   1.00
C887   C     0.13397   0.47533   0.68710   0.00000  Uiso   1.00
C888   C     0.19936   0.52467   0.97957   0.00000  Uiso   1.00
C889   C     0.13399   0.47534   0.97080   0.00000  Uiso   1.00
C890   C     0.19934   0.52466   0.69587   0.00000  Uiso   1.00
C891   C     0.32460   0.47819   0.76994   0.00000  Uiso   1.00
C892   C     0.00873   0.52181   0.89673   0.00000  Uiso   1.00
C893   C     0.21168   0.37234   0.76000   0.00000  Uiso   1.00
C894   C     0.16578   0.57926   0.83352   0.00000  Uiso   1.00
C895   C     0.12165   0.62766   0.90667   0.00000  Uiso   1.00
C896   C     0.06815   0.49965   0.82143   0.00000  Uiso   1.00
C897   C     0.26518   0.50035   0.84523   0.00000  Uiso   1.00
C898   C     0.01358   0.49552   0.81529   0.00000  Uiso   1.00
C899   C     0.31976   0.50448   0.85137   0.00000  Uiso   1.00
C900   C     0.18796   0.35334   0.79710   0.00000  Uiso   1.00
C901   C     0.14537   0.64666   0.86956   0.00000  Uiso   1.00
C902   C     0.18644   0.64413   0.79812   0.00000  Uiso   1.00
Cu903  Cu    0.16667   0.50001   0.88022   0.00000  Uiso   1.00
Cu904  Cu    0.16667   0.49999   0.78645   0.00000  Uiso   1.00
H905   H     0.20250   0.62669   0.77110   0.00000  Uiso   1.00
H906   H     0.13083   0.37331   0.89556   0.00000  Uiso   1.00
H907   H     0.10784   0.45555   0.70233   0.00000  Uiso   1.00
H908   H     0.22549   0.54445   0.96434   0.00000  Uiso   1.00
H909   H     0.10784   0.45557   0.94855   0.00000  Uiso   1.00
H910   H     0.22549   0.54443   0.71811   0.00000  Uiso   1.00
N911   N     0.16668   0.50001   0.95069   0.00000  Uiso   1.00
N912   N     0.16665   0.49999   0.71597   0.00000  Uiso   1.00
N913   N     0.30720   0.46444   0.73377   0.00000  Uiso   1.00
N914   N     0.02613   0.53556   0.93290   0.00000  Uiso   1.00
N915   N     0.23062   0.38743   0.73020   0.00000  Uiso   1.00
N916   N     0.10271   0.61257   0.93646   0.00000  Uiso   1.00
O917   O     0.16666   0.43989   0.87291   0.00000  Uiso   1.00
O918   O     0.16667   0.56011   0.79375   0.00000  Uiso   1.00
O919   O     0.16666   0.43988   0.79372   0.00000  Uiso   1.00
O920   O     0.16667   0.56012   0.87294   0.00000  Uiso   1.00
O921   O     0.09161   0.50000   0.86379   0.00000  Uiso   1.00
O922   O     0.24172   0.50000   0.80288   0.00000  Uiso   1.00
O923   O     0.09161   0.49999   0.78460   0.00000  Uiso   1.00
O924   O     0.24172   0.50001   0.88207   0.00000  Uiso   1.00
C925   C     0.50089   0.42073   0.83314   0.00000  Uiso   1.00
C926   C     0.48022   0.35587   0.86855   0.00000  Uiso   1.00
C927   C     0.49882   0.62390   0.83403   0.00000  Uiso   1.00
C928   C     0.50118   0.37610   0.83263   0.00000  Uiso   1.00
C929   C     0.46730   0.47533   0.68710   0.00000  Uiso   1.00
C930   C     0.53269   0.52467   0.97957   0.00000  Uiso   1.00
C931   C     0.46732   0.47534   0.97080   0.00000  Uiso   1.00
C932   C     0.53267   0.52466   0.69587   0.00000  Uiso   1.00
C933   C     0.65794   0.47819   0.76994   0.00000  Uiso   1.00
C934   C     0.34206   0.52181   0.89673   0.00000  Uiso   1.00
C935   C     0.54502   0.37234   0.76000   0.00000  Uiso   1.00
C936   C     0.49911   0.57926   0.83352   0.00000  Uiso   1.00
C937   C     0.45498   0.62766   0.90667   0.00000  Uiso   1.00
C938   C     0.40148   0.49965   0.82143   0.00000  Uiso   1.00
C939   C     0.59851   0.50035   0.84523   0.00000  Uiso   1.00
C940   C     0.34691   0.49552   0.81529   0.00000  Uiso   1.00
C941   C     0.65309   0.50448   0.85137   0.00000  Uiso   1.00
C942   C     0.52130   0.35334   0.79710   0.00000  Uiso   1.00
C943   C     0.47870   0.64666   0.86956   0.00000  Uiso   1.00
C944   C     0.51978   0.64413   0.79812   0.00000  Uiso   1.00
Cu945  Cu    0.50000   0.50001   0.88022   0.00000  Uiso   1.00
Cu946  Cu    0.50000   0.49999   0.78645   0.00000  Uiso   1.00
H947   H     0.53584   0.62669   0.77110   0.00000  Uiso   1.00
H948   H     0.46416   0.37331   0.89556   0.00000  Uiso   1.00
H949   H     0.44117   0.45555   0.70233   0.00000  Uiso   1.00
H950   H     0.55883   0.54445   0.96434   0.00000  Uiso   1.00
H951   H     0.44118   0.45557   0.94855   0.00000  Uiso   1.00
H952   H     0.55882   0.54443   0.71811   0.00000  Uiso   1.00
N953   N     0.50001   0.50001   0.95069   0.00000  Uiso   1.00
N954   N     0.49999   0.49999   0.71597   0.00000  Uiso   1.00
N955   N     0.64053   0.46444   0.73377   0.00000  Uiso   1.00
N956   N     0.35947   0.53556   0.93290   0.00000  Uiso   1.00
N957   N     0.56395   0.38743   0.73020   0.00000  Uiso   1.00
N958   N     0.43605   0.61257   0.93646   0.00000  Uiso   1.00
O959   O     0.50000   0.43989   0.87291   0.00000  Uiso   1.00
O960   O     0.50000   0.56011   0.79375   0.00000  Uiso   1.00
O961   O     0.50000   0.43988   0.79372   0.00000  Uiso   1.00
O962   O     0.50000   0.56012   0.87294   0.00000  Uiso   1.00
O963   O     0.42495   0.50000   0.86379   0.00000  Uiso   1.00
O964   O     0.57505   0.50000   0.80288   0.00000  Uiso   1.00
O965   O     0.42494   0.49999   0.78460   0.00000  Uiso   1.00
O966   O     0.57506   0.50001   0.88207   0.00000  Uiso   1.00
C967   C     0.83422   0.42073   0.83314   0.00000  Uiso   1.00
C968   C     0.81356   0.35587   0.86855   0.00000  Uiso   1.00
C969   C     0.83216   0.62390   0.83403   0.00000  Uiso   1.00
C970   C     0.83451   0.37610   0.83263   0.00000  Uiso   1.00
C971   C     0.80064   0.47533   0.68710   0.00000  Uiso   1.00
C972   C     0.86603   0.52467   0.97957   0.00000  Uiso   1.00
C973   C     0.80066   0.47534   0.97080   0.00000  Uiso   1.00
C974   C     0.86601   0.52466   0.69587   0.00000  Uiso   1.00
C975   C     0.99127   0.47819   0.76994   0.00000  Uiso   1.00
C976   C     0.67540   0.52181   0.89673   0.00000  Uiso   1.00
C977   C     0.87835   0.37234   0.76000   0.00000  Uiso   1.00
C978   C     0.83245   0.57926   0.83352   0.00000  Uiso   1.00
C979   C     0.78832   0.62766   0.90667   0.00000  Uiso   1.00
C980   C     0.73482   0.49965   0.82143   0.00000  Uiso   1.00
C981   C     0.93185   0.50035   0.84523   0.00000  Uiso   1.00
C982   C     0.68024   0.49552   0.81529   0.00000  Uiso   1.00
C983   C     0.98642   0.50448   0.85137   0.00000  Uiso   1.00
C984   C     0.85463   0.35334   0.79710   0.00000  Uiso   1.00
C985   C     0.81204   0.64666   0.86956   0.00000  Uiso   1.00
C986   C     0.85311   0.64413   0.79812   0.00000  Uiso   1.00
Cu987  Cu    0.83333   0.50001   0.88022   0.00000  Uiso   1.00
Cu988  Cu    0.83333   0.49999   0.78645   0.00000  Uiso   1.00
H989   H     0.86917   0.62669   0.77110   0.00000  Uiso   1.00
H990   H     0.79750   0.37331   0.89556   0.00000  Uiso   1.00
H991   H     0.77451   0.45555   0.70233   0.00000  Uiso   1.00
H992   H     0.89216   0.54445   0.96434   0.00000  Uiso   1.00
H993   H     0.77451   0.45557   0.94855   0.00000  Uiso   1.00
H994   H     0.89216   0.54443   0.71811   0.00000  Uiso   1.00
N995   N     0.83335   0.50001   0.95069   0.00000  Uiso   1.00
N996   N     0.83332   0.49999   0.71597   0.00000  Uiso   1.00
N997   N     0.97387   0.46444   0.73377   0.00000  Uiso   1.00
N998   N     0.69280   0.53556   0.93290   0.00000  Uiso   1.00
N999   N     0.89729   0.38743   0.73020   0.00000  Uiso   1.00
N1000  N     0.76938   0.61257   0.93646   0.00000  Uiso   1.00
O1001  O     0.83333   0.43989   0.87291   0.00000  Uiso   1.00
O1002  O     0.83334   0.56011   0.79375   0.00000  Uiso   1.00
O1003  O     0.83333   0.43988   0.79372   0.00000  Uiso   1.00
O1004  O     0.83334   0.56012   0.87294   0.00000  Uiso   1.00
O1005  O     0.75828   0.50000   0.86379   0.00000  Uiso   1.00
O1006  O     0.90839   0.50000   0.80288   0.00000  Uiso   1.00
O1007  O     0.75828   0.49999   0.78460   0.00000  Uiso   1.00
O1008  O     0.90839   0.50001   0.88207   0.00000  Uiso   1.00
C1009  C     0.16755   0.75407   0.83314   0.00000  Uiso   1.00
C1010  C     0.14689   0.68920   0.86855   0.00000  Uiso   1.00
C1011  C     0.16549   0.95723   0.83403   0.00000  Uiso   1.00
C1012  C     0.16784   0.70944   0.83263   0.00000  Uiso   1.00
C1013  C     0.13397   0.80867   0.68710   0.00000  Uiso   1.00
C1014  C     0.19936   0.85800   0.97957   0.00000  Uiso   1.00
C1015  C     0.13399   0.80867   0.97080   0.00000  Uiso   1.00
C1016  C     0.19934   0.85800   0.69587   0.00000  Uiso   1.00
C1017  C     0.32460   0.81153   0.76994   0.00000  Uiso   1.00
C1018  C     0.00873   0.85514   0.89673   0.00000  Uiso   1.00
C1019  C     0.21168   0.70567   0.76000   0.00000  Uiso   1.00
C1020  C     0.16578   0.91260   0.83352   0.00000  Uiso   1.00
C1021  C     0.12165   0.96100   0.90667   0.00000  Uiso   1.00
C1022  C     0.06815   0.83298   0.82143   0.00000  Uiso   1.00
C1023  C     0.26518   0.83368   0.84523   0.00000  Uiso   1.00
C1024  C     0.01358   0.82886   0.81529   0.00000  Uiso   1.00
C1025  C     0.31976   0.83781   0.85137   0.00000  Uiso   1.00
C1026  C     0.18796   0.68667   0.79710   0.00000  Uiso   1.00
C1027  C     0.14537   0.97999   0.86956   0.00000  Uiso   1.00
C1028  C     0.18644   0.97747   0.79812   0.00000  Uiso   1.00
Cu1029 Cu    0.16667   0.83334   0.88022   0.00000  Uiso   1.00
Cu1030 Cu    0.16667   0.83333   0.78645   0.00000  Uiso   1.00
H1031  H     0.20250   0.96002   0.77110   0.00000  Uiso   1.00
H1032  H     0.13083   0.70665   0.89556   0.00000  Uiso   1.00
H1033  H     0.10784   0.78888   0.70233   0.00000  Uiso   1.00
H1034  H     0.22549   0.87778   0.96434   0.00000  Uiso   1.00
H1035  H     0.10784   0.78891   0.94855   0.00000  Uiso   1.00
H1036  H     0.22549   0.87776   0.71811   0.00000  Uiso   1.00
N1037  N     0.16668   0.83334   0.95069   0.00000  Uiso   1.00
N1038  N     0.16665   0.83332   0.71597   0.00000  Uiso   1.00
N1039  N     0.30720   0.79778   0.73377   0.00000  Uiso   1.00
N1040  N     0.02613   0.86889   0.93290   0.00000  Uiso   1.00
N1041  N     0.23062   0.72077   0.73020   0.00000  Uiso   1.00
N1042  N     0.10271   0.94590   0.93646   0.00000  Uiso   1.00
O1043  O     0.16666   0.77322   0.87291   0.00000  Uiso   1.00
O1044  O     0.16667   0.89345   0.79375   0.00000  Uiso   1.00
O1045  O     0.16666   0.77321   0.79372   0.00000  Uiso   1.00
O1046  O     0.16667   0.89346   0.87294   0.00000  Uiso   1.00
O1047  O     0.09161   0.83334   0.86379   0.00000  Uiso   1.00
O1048  O     0.24172   0.83333   0.80288   0.00000  Uiso   1.00
O1049  O     0.09161   0.83333   0.78460   0.00000  Uiso   1.00
O1050  O     0.24172   0.83334   0.88207   0.00000  Uiso   1.00
C1051  C     0.50089   0.75407   0.83314   0.00000  Uiso   1.00
C1052  C     0.48022   0.68920   0.86855   0.00000  Uiso   1.00
C1053  C     0.49882   0.95723   0.83403   0.00000  Uiso   1.00
C1054  C     0.50118   0.70944   0.83263   0.00000  Uiso   1.00
C1055  C     0.46730   0.80867   0.68710   0.00000  Uiso   1.00
C1056  C     0.53269   0.85800   0.97957   0.00000  Uiso   1.00
C1057  C     0.46732   0.80867   0.97080   0.00000  Uiso   1.00
C1058  C     0.53267   0.85800   0.69587   0.00000  Uiso   1.00
C1059  C     0.65794   0.81153   0.76994   0.00000  Uiso   1.00
C1060  C     0.34206   0.85514   0.89673   0.00000  Uiso   1.00
C1061  C     0.54502   0.70567   0.76000   0.00000  Uiso   1.00
C1062  C     0.49911   0.91260   0.83352   0.00000  Uiso   1.00
C1063  C     0.45498   0.96100   0.90667   0.00000  Uiso   1.00
C1064  C     0.40148   0.83298   0.82143   0.00000  Uiso   1.00
C1065  C     0.59851   0.83368   0.84523   0.00000  Uiso   1.00
C1066  C     0.34691   0.82886   0.81529   0.00000  Uiso   1.00
C1067  C     0.65309   0.83781   0.85137   0.00000  Uiso   1.00
C1068  C     0.52130   0.68667   0.79710   0.00000  Uiso   1.00
C1069  C     0.47870   0.97999   0.86956   0.00000  Uiso   1.00
C1070  C     0.51978   0.97747   0.79812   0.00000  Uiso   1.00
Cu1071 Cu    0.50000   0.83334   0.88022   0.00000  Uiso   1.00
Cu1072 Cu    0.50000   0.83333   0.78645   0.00000  Uiso   1.00
H1073  H     0.53584   0.96002   0.77110   0.00000  Uiso   1.00
H1074  H     0.46416   0.70665   0.89556   0.00000  Uiso   1.00
H1075  H     0.44117   0.78888   0.70233   0.00000  Uiso   1.00
H1076  H     0.55883   0.87778   0.96434   0.00000  Uiso   1.00
H1077  H     0.44118   0.78891   0.94855   0.00000  Uiso   1.00
H1078  H     0.55882   0.87776   0.71811   0.00000  Uiso   1.00
N1079  N     0.50001   0.83334   0.95069   0.00000  Uiso   1.00
N1080  N     0.49999   0.83332   0.71597   0.00000  Uiso   1.00
N1081  N     0.64053   0.79778   0.73377   0.00000  Uiso   1.00
N1082  N     0.35947   0.86889   0.93290   0.00000  Uiso   1.00
N1083  N     0.56395   0.72077   0.73020   0.00000  Uiso   1.00
N1084  N     0.43605   0.94590   0.93646   0.00000  Uiso   1.00
O1085  O     0.50000   0.77322   0.87291   0.00000  Uiso   1.00
O1086  O     0.50000   0.89345   0.79375   0.00000  Uiso   1.00
O1087  O     0.50000   0.77321   0.79372   0.00000  Uiso   1.00
O1088  O     0.50000   0.89346   0.87294   0.00000  Uiso   1.00
O1089  O     0.42495   0.83334   0.86379   0.00000  Uiso   1.00
O1090  O     0.57505   0.83333   0.80288   0.00000  Uiso   1.00
O1091  O     0.42494   0.83333   0.78460   0.00000  Uiso   1.00
O1092  O     0.57506   0.83334   0.88207   0.00000  Uiso   1.00
C1093  C     0.83422   0.75407   0.83314   0.00000  Uiso   1.00
C1094  C     0.81356   0.68920   0.86855   0.00000  Uiso   1.00
C1095  C     0.83216   0.95723   0.83403   0.00000  Uiso   1.00
C1096  C     0.83451   0.70944   0.83263   0.00000  Uiso   1.00
C1097  C     0.80064   0.80867   0.68710   0.00000  Uiso   1.00
C1098  C     0.86603   0.85800   0.97957   0.00000  Uiso   1.00
C1099  C     0.80066   0.80867   0.97080   0.00000  Uiso   1.00
C1100  C     0.86601   0.85800   0.69587   0.00000  Uiso   1.00
C1101  C     0.99127   0.81153   0.76994   0.00000  Uiso   1.00
C1102  C     0.67540   0.85514   0.89673   0.00000  Uiso   1.00
C1103  C     0.87835   0.70567   0.76000   0.00000  Uiso   1.00
C1104  C     0.83245   0.91260   0.83352   0.00000  Uiso   1.00
C1105  C     0.78832   0.96100   0.90667   0.00000  Uiso   1.00
C1106  C     0.73482   0.83298   0.82143   0.00000  Uiso   1.00
C1107  C     0.93185   0.83368   0.84523   0.00000  Uiso   1.00
C1108  C     0.68024   0.82886   0.81529   0.00000  Uiso   1.00
C1109  C     0.98642   0.83781   0.85137   0.00000  Uiso   1.00
C1110  C     0.85463   0.68667   0.79710   0.00000  Uiso   1.00
C1111  C     0.81204   0.97999   0.86956   0.00000  Uiso   1.00
C1112  C     0.85311   0.97747   0.79812   0.00000  Uiso   1.00
Cu1113 Cu    0.83333   0.83334   0.88022   0.00000  Uiso   1.00
Cu1114 Cu    0.83333   0.83333   0.78645   0.00000  Uiso   1.00
H1115  H     0.86917   0.96002   0.77110   0.00000  Uiso   1.00
H1116  H     0.79750   0.70665   0.89556   0.00000  Uiso   1.00
H1117  H     0.77451   0.78888   0.70233   0.00000  Uiso   1.00
H1118  H     0.89216   0.87778   0.96434   0.00000  Uiso   1.00
H1119  H     0.77451   0.78891   0.94855   0.00000  Uiso   1.00
H1120  H     0.89216   0.87776   0.71811   0.00000  Uiso   1.00
N1121  N     0.83335   0.83334   0.95069   0.00000  Uiso   1.00
N1122  N     0.83332   0.83332   0.71597   0.00000  Uiso   1.00
N1123  N     0.97387   0.79778   0.73377   0.00000  Uiso   1.00
N1124  N     0.69280   0.86889   0.93290   0.00000  Uiso   1.00
N1125  N     0.89729   0.72077   0.73020   0.00000  Uiso   1.00
N1126  N     0.76938   0.94590   0.93646   0.00000  Uiso   1.00
O1127  O     0.83333   0.77322   0.87291   0.00000  Uiso   1.00
O1128  O     0.83334   0.89345   0.79375   0.00000  Uiso   1.00
O1129  O     0.83333   0.77321   0.79372   0.00000  Uiso   1.00
O1130  O     0.83334   0.89346   0.87294   0.00000  Uiso   1.00
O1131  O     0.75828   0.83334   0.86379   0.00000  Uiso   1.00
O1132  O     0.90839   0.83333   0.80288   0.00000  Uiso   1.00
O1133  O     0.75828   0.83333   0.78460   0.00000  Uiso   1.00
O1134  O     0.90839   0.83334   0.88207   0.00000  Uiso   1.00
loop_
_geom_bond_atom_site_label_1
_geom_bond_atom_site_label_2
_geom_bond_distance
_geom_bond_site_symmetry_2
_ccdc_geom_bond_type
C1     O37     1.288   .     A
C1     C4      1.453   .     S
C1     O35     1.292   .     A
C2     C4      1.400   .     A
C2     H24     1.085   .     S
C2     C271    1.386   1_545 S
C3     C19     1.412   .     A
C3     C20     1.400   .     A
C3     C12     1.453   .     S
C4     C18     1.412   .     A
C5     H25     1.082   .     S
C5     N30     1.367   .     A
C5     C763    1.416   1_554 S
C6     H26     1.082   .     S
C6     N29     1.367   .     A
C6     C386    1.416   .     S
C7     N29     1.367   .     A
C7     H27     1.082   .     S
C7     C383    1.416   .     S
C8     N30     1.367   .     A
C8     H28     1.082   .     S
C8     C762    1.416   1_554 S
C9     N31     1.158   .     T
C9     C58     1.456   .     S
C10    N32     1.158   .     T
C10    C101    1.456   1_455 S
C11    C18     1.446   .     S
C11    N33     1.157   .     T
C12    O36     1.292   .     A
C12    O38     1.288   .     A
C13    N34     1.157   .     T
C13    C19     1.446   .     S
C14    C16     1.440   .     S
C14    O39     1.282   .     A
C14    O41     1.292   .     A
C15    O40     1.281   .     A
C15    C17     1.440   .     S
C15    O42     1.292   .     A
C16    C93     1.456   1_455 S
C16    C101    1.363   1_455 S
C17    C58     1.363   .     S
C17    C52     1.456   .     S
C18    C272    1.386   1_545 S
C19    C128    1.386   .     S
C20    H23     1.085   .     S
C20    C144    1.386   .     S
Cu21   O35     1.966   .     S
Cu21   O39     1.981   .     S
Cu21   Cu22    2.675   .     S
Cu21   O42     1.983   .     S
Cu21   N29     2.010   .     S
Cu21   O38     1.969   .     S
Cu22   O36     1.966   .     S
Cu22   O40     1.981   .     S
Cu22   O41     1.983   .     S
Cu22   N30     2.010   .     S
Cu22   O37     1.969   .     S
C43    O79     1.288   .     A
C43    C46     1.453   .     S
C43    O77     1.292   .     A
C44    C46     1.400   .     A
C44    H66     1.085   .     S
C44    C313    1.386   1_545 S
C45    C61     1.412   .     A
C45    C62     1.400   .     A
C45    C54     1.453   .     S
C46    C60     1.412   .     A
C47    H67     1.082   .     S
C47    N72     1.367   .     A
C47    C805    1.416   1_554 S
C48    H68     1.082   .     S
C48    N71     1.367   .     A
C48    C428    1.416   .     S
C49    N71     1.367   .     A
C49    H69     1.082   .     S
C49    C425    1.416   .     S
C50    N72     1.367   .     A
C50    H70     1.082   .     S
C50    C804    1.416   1_554 S
C51    N73     1.158   .     T
C51    C100    1.456   .     S
C52    N74     1.158   .     T
C53    C60     1.446   .     S
C53    N75     1.157   .     T
C54    O78     1.292   .     A
C54    O80     1.288   .     A
C55    N76     1.157   .     T
C55    C61     1.446   .     S
C56    C58     1.440   .     S
C56    O81     1.282   .     A
C56    O83     1.292   .     A
C57    O82     1.281   .     A
C57    C59     1.440   .     S
C57    O84     1.292   .     A
C59    C100    1.363   .     S
C59    C94     1.456   .     S
C60    C314    1.386   1_545 S
C61    C170    1.386   .     S
C62    H65     1.085   .     S
C62    C186    1.386   .     S
Cu63   O77     1.966   .     S
Cu63   O81     1.981   .     S
Cu63   Cu64    2.675   .     S
Cu63   O84     1.983   .     S
Cu63   N71     2.010   .     S
Cu63   O80     1.969   .     S
Cu64   O78     1.966   .     S
Cu64   O82     1.981   .     S
Cu64   O83     1.983   .     S
Cu64   N72     2.010   .     S
Cu64   O79     1.969   .     S
C85    O121    1.288   .     A
C85    C88     1.453   .     S
C85    O119    1.292   .     A
C86    C88     1.400   .     A
C86    H108    1.085   .     S
C86    C355    1.386   1_545 S
C87    C103    1.412   .     A
C87    C104    1.400   .     A
C87    C96     1.453   .     S
C88    C102    1.412   .     A
C89    H109    1.082   .     S
C89    N114    1.367   .     A
C89    C847    1.416   1_554 S
C90    H110    1.082   .     S
C90    N113    1.367   .     A
C90    C470    1.416   .     S
C91    N113    1.367   .     A
C91    H111    1.082   .     S
C91    C467    1.416   .     S
C92    N114    1.367   .     A
C92    H112    1.082   .     S
C92    C846    1.416   1_554 S
C93    N115    1.158   .     T
C93    C16     1.456   1_655 S
C94    N116    1.158   .     T
C95    C102    1.446   .     S
C95    N117    1.157   .     T
C96    O120    1.292   .     A
C96    O122    1.288   .     A
C97    N118    1.157   .     T
C97    C103    1.446   .     S
C98    C100    1.440   .     S
C98    O123    1.282   .     A
C98    O125    1.292   .     A
C99    O124    1.281   .     A
C99    C101    1.440   .     S
C99    O126    1.292   .     A
C101   C16     1.363   1_655 S
C101   C10     1.456   1_655 S
C102   C356    1.386   1_545 S
C103   C212    1.386   .     S
C104   H107    1.085   .     S
C104   C228    1.386   .     S
Cu105  O119    1.966   .     S
Cu105  O123    1.981   .     S
Cu105  Cu106   2.675   .     S
Cu105  O126    1.983   .     S
Cu105  N113    2.010   .     S
Cu105  O122    1.969   .     S
Cu106  O120    1.966   .     S
Cu106  O124    1.981   .     S
Cu106  O125    1.983   .     S
Cu106  N114    2.010   .     S
Cu106  O121    1.969   .     S
C127   O163    1.288   .     A
C127   C130    1.453   .     S
C127   O161    1.292   .     A
C128   C130    1.400   .     A
C128   H150    1.085   .     S
C129   C145    1.412   .     A
C129   C146    1.400   .     A
C129   C138    1.453   .     S
C130   C144    1.412   .     A
C131   H151    1.082   .     S
C131   N156    1.367   .     A
C131   C889    1.416   1_554 S
C132   H152    1.082   .     S
C132   N155    1.367   .     A
C132   C512    1.416   .     S
C133   N155    1.367   .     A
C133   H153    1.082   .     S
C133   C509    1.416   .     S
C134   N156    1.367   .     A
C134   H154    1.082   .     S
C134   C888    1.416   1_554 S
C135   N157    1.158   .     T
C135   C184    1.456   .     S
C136   N158    1.158   .     T
C136   C227    1.456   1_455 S
C137   C144    1.446   .     S
C137   N159    1.157   .     T
C138   O162    1.292   .     A
C138   O164    1.288   .     A
C139   N160    1.157   .     T
C139   C145    1.446   .     S
C140   C142    1.440   .     S
C140   O165    1.282   .     A
C140   O167    1.292   .     A
C141   O166    1.281   .     A
C141   C143    1.440   .     S
C141   O168    1.292   .     A
C142   C219    1.456   1_455 S
C142   C227    1.363   1_455 S
C143   C184    1.363   .     S
C143   C178    1.456   .     S
C145   C254    1.386   .     S
C146   H149    1.085   .     S
C146   C270    1.386   .     S
Cu147  O161    1.966   .     S
Cu147  O165    1.981   .     S
Cu147  Cu148   2.675   .     S
Cu147  O168    1.983   .     S
Cu147  N155    2.010   .     S
Cu147  O164    1.969   .     S
Cu148  O162    1.966   .     S
Cu148  O166    1.981   .     S
Cu148  O167    1.983   .     S
Cu148  N156    2.010   .     S
Cu148  O163    1.969   .     S
C169   O205    1.288   .     A
C169   C172    1.453   .     S
C169   O203    1.292   .     A
C170   C172    1.400   .     A
C170   H192    1.085   .     S
C171   C187    1.412   .     A
C171   C188    1.400   .     A
C171   C180    1.453   .     S
C172   C186    1.412   .     A
C173   H193    1.082   .     S
C173   N198    1.367   .     A
C173   C931    1.416   1_554 S
C174   H194    1.082   .     S
C174   N197    1.367   .     A
C174   C554    1.416   .     S
C175   N197    1.367   .     A
C175   H195    1.082   .     S
C175   C551    1.416   .     S
C176   N198    1.367   .     A
C176   H196    1.082   .     S
C176   C930    1.416   1_554 S
C177   N199    1.158   .     T
C177   C226    1.456   .     S
C178   N200    1.158   .     T
C179   C186    1.446   .     S
C179   N201    1.157   .     T
C180   O204    1.292   .     A
C180   O206    1.288   .     A
C181   N202    1.157   .     T
C181   C187    1.446   .     S
C182   C184    1.440   .     S
C182   O207    1.282   .     A
C182   O209    1.292   .     A
C183   O208    1.281   .     A
C183   C185    1.440   .     S
C183   O210    1.292   .     A
C185   C226    1.363   .     S
C185   C220    1.456   .     S
C187   C296    1.386   .     S
C188   H191    1.085   .     S
C188   C312    1.386   .     S
Cu189  O203    1.966   .     S
Cu189  O207    1.981   .     S
Cu189  Cu190   2.675   .     S
Cu189  O210    1.983   .     S
Cu189  N197    2.010   .     S
Cu189  O206    1.969   .     S
Cu190  O204    1.966   .     S
Cu190  O208    1.981   .     S
Cu190  O209    1.983   .     S
Cu190  N198    2.010   .     S
Cu190  O205    1.969   .     S
C211   O247    1.288   .     A
C211   C214    1.453   .     S
C211   O245    1.292   .     A
C212   C214    1.400   .     A
C212   H234    1.085   .     S
C213   C229    1.412   .     A
C213   C230    1.400   .     A
C213   C222    1.453   .     S
C214   C228    1.412   .     A
C215   H235    1.082   .     S
C215   N240    1.367   .     A
C215   C973    1.416   1_554 S
C216   H236    1.082   .     S
C216   N239    1.367   .     A
C216   C596    1.416   .     S
C217   N239    1.367   .     A
C217   H237    1.082   .     S
C217   C593    1.416   .     S
C218   N240    1.367   .     A
C218   H238    1.082   .     S
C218   C972    1.416   1_554 S
C219   N241    1.158   .     T
C219   C142    1.456   1_655 S
C220   N242    1.158   .     T
C221   C228    1.446   .     S
C221   N243    1.157   .     T
C222   O246    1.292   .     A
C222   O248    1.288   .     A
C223   N244    1.157   .     T
C223   C229    1.446   .     S
C224   C226    1.440   .     S
C224   O249    1.282   .     A
C224   O251    1.292   .     A
C225   O250    1.281   .     A
C225   C227    1.440   .     S
C225   O252    1.292   .     A
C227   C142    1.363   1_655 S
C227   C136    1.456   1_655 S
C229   C338    1.386   .     S
C230   H233    1.085   .     S
C230   C354    1.386   .     S
Cu231  O245    1.966   .     S
Cu231  O249    1.981   .     S
Cu231  Cu232   2.675   .     S
Cu231  O252    1.983   .     S
Cu231  N239    2.010   .     S
Cu231  O248    1.969   .     S
Cu232  O246    1.966   .     S
Cu232  O250    1.981   .     S
Cu232  O251    1.983   .     S
Cu232  N240    2.010   .     S
Cu232  O247    1.969   .     S
C253   O289    1.288   .     A
C253   C256    1.453   .     S
C253   O287    1.292   .     A
C254   C256    1.400   .     A
C254   H276    1.085   .     S
C255   C271    1.412   .     A
C255   C272    1.400   .     A
C255   C264    1.453   .     S
C256   C270    1.412   .     A
C257   H277    1.082   .     S
C257   N282    1.367   .     A
C257   C1015   1.416   1_554 S
C258   H278    1.082   .     S
C258   N281    1.367   .     A
C258   C638    1.416   .     S
C259   N281    1.367   .     A
C259   H279    1.082   .     S
C259   C635    1.416   .     S
C260   N282    1.367   .     A
C260   H280    1.082   .     S
C260   C1014   1.416   1_554 S
C261   N283    1.158   .     T
C261   C310    1.456   .     S
C262   N284    1.158   .     T
C262   C353    1.456   1_455 S
C263   C270    1.446   .     S
C263   N285    1.157   .     T
C264   O288    1.292   .     A
C264   O290    1.288   .     A
C265   N286    1.157   .     T
C265   C271    1.446   .     S
C266   C268    1.440   .     S
C266   O291    1.282   .     A
C266   O293    1.292   .     A
C267   O292    1.281   .     A
C267   C269    1.440   .     S
C267   O294    1.292   .     A
C268   C345    1.456   1_455 S
C268   C353    1.363   1_455 S
C269   C310    1.363   .     S
C269   C304    1.456   .     S
C271   C2      1.386   1_565 S
C272   H275    1.085   .     S
C272   C18     1.386   1_565 S
Cu273  O287    1.966   .     S
Cu273  O291    1.981   .     S
Cu273  Cu274   2.675   .     S
Cu273  O294    1.983   .     S
Cu273  N281    2.010   .     S
Cu273  O290    1.969   .     S
Cu274  O288    1.966   .     S
Cu274  O292    1.981   .     S
Cu274  O293    1.983   .     S
Cu274  N282    2.010   .     S
Cu274  O289    1.969   .     S
C295   O331    1.288   .     A
C295   C298    1.453   .     S
C295   O329    1.292   .     A
C296   C298    1.400   .     A
C296   H318    1.085   .     S
C297   C313    1.412   .     A
C297   C314    1.400   .     A
C297   C306    1.453   .     S
C298   C312    1.412   .     A
C299   H319    1.082   .     S
C299   N324    1.367   .     A
C299   C1057   1.416   1_554 S
C300   H320    1.082   .     S
C300   N323    1.367   .     A
C300   C680    1.416   .     S
C301   N323    1.367   .     A
C301   H321    1.082   .     S
C301   C677    1.416   .     S
C302   N324    1.367   .     A
C302   H322    1.082   .     S
C302   C1056   1.416   1_554 S
C303   N325    1.158   .     T
C303   C352    1.456   .     S
C304   N326    1.158   .     T
C305   C312    1.446   .     S
C305   N327    1.157   .     T
C306   O330    1.292   .     A
C306   O332    1.288   .     A
C307   N328    1.157   .     T
C307   C313    1.446   .     S
C308   C310    1.440   .     S
C308   O333    1.282   .     A
C308   O335    1.292   .     A
C309   O334    1.281   .     A
C309   C311    1.440   .     S
C309   O336    1.292   .     A
C311   C352    1.363   .     S
C311   C346    1.456   .     S
C313   C44     1.386   1_565 S
C314   H317    1.085   .     S
C314   C60     1.386   1_565 S
Cu315  O329    1.966   .     S
Cu315  O333    1.981   .     S
Cu315  Cu316   2.675   .     S
Cu315  O336    1.983   .     S
Cu315  N323    2.010   .     S
Cu315  O332    1.969   .     S
Cu316  O330    1.966   .     S
Cu316  O334    1.981   .     S
Cu316  O335    1.983   .     S
Cu316  N324    2.010   .     S
Cu316  O331    1.969   .     S
C337   O373    1.288   .     A
C337   C340    1.453   .     S
C337   O371    1.292   .     A
C338   C340    1.400   .     A
C338   H360    1.085   .     S
C339   C355    1.412   .     A
C339   C356    1.400   .     A
C339   C348    1.453   .     S
C340   C354    1.412   .     A
C341   H361    1.082   .     S
C341   N366    1.367   .     A
C341   C1099   1.416   1_554 S
C342   H362    1.082   .     S
C342   N365    1.367   .     A
C342   C722    1.416   .     S
C343   N365    1.367   .     A
C343   H363    1.082   .     S
C343   C719    1.416   .     S
C344   N366    1.367   .     A
C344   H364    1.082   .     S
C344   C1098   1.416   1_554 S
C345   N367    1.158   .     T
C345   C268    1.456   1_655 S
C346   N368    1.158   .     T
C347   C354    1.446   .     S
C347   N369    1.157   .     T
C348   O372    1.292   .     A
C348   O374    1.288   .     A
C349   N370    1.157   .     T
C349   C355    1.446   .     S
C350   C352    1.440   .     S
C350   O375    1.282   .     A
C350   O377    1.292   .     A
C351   O376    1.281   .     A
C351   C353    1.440   .     S
C351   O378    1.292   .     A
C353   C268    1.363   1_655 S
C353   C262    1.456   1_655 S
C355   C86     1.386   1_565 S
C356   H359    1.085   .     S
C356   C102    1.386   1_565 S
Cu357  O371    1.966   .     S
Cu357  O375    1.981   .     S
Cu357  Cu358   2.675   .     S
Cu357  O378    1.983   .     S
Cu357  N365    2.010   .     S
Cu357  O374    1.969   .     S
Cu358  O372    1.966   .     S
Cu358  O376    1.981   .     S
Cu358  O377    1.983   .     S
Cu358  N366    2.010   .     S
Cu358  O373    1.969   .     S
C379   O415    1.288   .     A
C379   C382    1.453   .     S
C379   O413    1.292   .     A
C380   C382    1.400   .     A
C380   H402    1.085   .     S
C380   C649    1.386   1_545 S
C381   C397    1.412   .     A
C381   C398    1.400   .     A
C381   C390    1.453   .     S
C382   C396    1.412   .     A
C383   H403    1.082   .     S
C383   N408    1.367   .     A
C384   H404    1.082   .     S
C384   N407    1.367   .     A
C384   C764    1.416   .     S
C385   N407    1.367   .     A
C385   H405    1.082   .     S
C385   C761    1.416   .     S
C386   N408    1.367   .     A
C386   H406    1.082   .     S
C387   N409    1.158   .     T
C387   C436    1.456   .     S
C388   N410    1.158   .     T
C388   C479    1.456   1_455 S
C389   C396    1.446   .     S
C389   N411    1.157   .     T
C390   O414    1.292   .     A
C390   O416    1.288   .     A
C391   N412    1.157   .     T
C391   C397    1.446   .     S
C392   C394    1.440   .     S
C392   O417    1.282   .     A
C392   O419    1.292   .     A
C393   O418    1.281   .     A
C393   C395    1.440   .     S
C393   O420    1.292   .     A
C394   C471    1.456   1_455 S
C394   C479    1.363   1_455 S
C395   C436    1.363   .     S
C395   C430    1.456   .     S
C396   C650    1.386   1_545 S
C397   C506    1.386   .     S
C398   H401    1.085   .     S
C398   C522    1.386   .     S
Cu399  O413    1.966   .     S
Cu399  O417    1.981   .     S
Cu399  Cu400   2.675   .     S
Cu399  O420    1.983   .     S
Cu399  N407    2.010   .     S
Cu399  O416    1.969   .     S
Cu400  O414    1.966   .     S
Cu400  O418    1.981   .     S
Cu400  O419    1.983   .     S
Cu400  N408    2.010   .     S
Cu400  O415    1.969   .     S
C421   O457    1.288   .     A
C421   C424    1.453   .     S
C421   O455    1.292   .     A
C422   C424    1.400   .     A
C422   H444    1.085   .     S
C422   C691    1.386   1_545 S
C423   C439    1.412   .     A
C423   C440    1.400   .     A
C423   C432    1.453   .     S
C424   C438    1.412   .     A
C425   H445    1.082   .     S
C425   N450    1.367   .     A
C426   H446    1.082   .     S
C426   N449    1.367   .     A
C426   C806    1.416   .     S
C427   N449    1.367   .     A
C427   H447    1.082   .     S
C427   C803    1.416   .     S
C428   N450    1.367   .     A
C428   H448    1.082   .     S
C429   N451    1.158   .     T
C429   C478    1.456   .     S
C430   N452    1.158   .     T
C431   C438    1.446   .     S
C431   N453    1.157   .     T
C432   O456    1.292   .     A
C432   O458    1.288   .     A
C433   N454    1.157   .     T
C433   C439    1.446   .     S
C434   C436    1.440   .     S
C434   O459    1.282   .     A
C434   O461    1.292   .     A
C435   O460    1.281   .     A
C435   C437    1.440   .     S
C435   O462    1.292   .     A
C437   C478    1.363   .     S
C437   C472    1.456   .     S
C438   C692    1.386   1_545 S
C439   C548    1.386   .     S
C440   H443    1.085   .     S
C440   C564    1.386   .     S
Cu441  O455    1.966   .     S
Cu441  O459    1.981   .     S
Cu441  Cu442   2.675   .     S
Cu441  O462    1.983   .     S
Cu441  N449    2.010   .     S
Cu441  O458    1.969   .     S
Cu442  O456    1.966   .     S
Cu442  O460    1.981   .     S
Cu442  O461    1.983   .     S
Cu442  N450    2.010   .     S
Cu442  O457    1.969   .     S
C463   O499    1.288   .     A
C463   C466    1.453   .     S
C463   O497    1.292   .     A
C464   C466    1.400   .     A
C464   H486    1.085   .     S
C464   C733    1.386   1_545 S
C465   C481    1.412   .     A
C465   C482    1.400   .     A
C465   C474    1.453   .     S
C466   C480    1.412   .     A
C467   H487    1.082   .     S
C467   N492    1.367   .     A
C468   H488    1.082   .     S
C468   N491    1.367   .     A
C468   C848    1.416   .     S
C469   N491    1.367   .     A
C469   H489    1.082   .     S
C469   C845    1.416   .     S
C470   N492    1.367   .     A
C470   H490    1.082   .     S
C471   N493    1.158   .     T
C471   C394    1.456   1_655 S
C472   N494    1.158   .     T
C473   C480    1.446   .     S
C473   N495    1.157   .     T
C474   O498    1.292   .     A
C474   O500    1.288   .     A
C475   N496    1.157   .     T
C475   C481    1.446   .     S
C476   C478    1.440   .     S
C476   O501    1.282   .     A
C476   O503    1.292   .     A
C477   O502    1.281   .     A
C477   C479    1.440   .     S
C477   O504    1.292   .     A
C479   C394    1.363   1_655 S
C479   C388    1.456   1_655 S
C480   C734    1.386   1_545 S
C481   C590    1.386   .     S
C482   H485    1.085   .     S
C482   C606    1.386   .     S
Cu483  O497    1.966   .     S
Cu483  O501    1.981   .     S
Cu483  Cu484   2.675   .     S
Cu483  O504    1.983   .     S
Cu483  N491    2.010   .     S
Cu483  O500    1.969   .     S
Cu484  O498    1.966   .     S
Cu484  O502    1.981   .     S
Cu484  O503    1.983   .     S
Cu484  N492    2.010   .     S
Cu484  O499    1.969   .     S
C505   O541    1.288   .     A
C505   C508    1.453   .     S
C505   O539    1.292   .     A
C506   C508    1.400   .     A
C506   H528    1.085   .     S
C507   C523    1.412   .     A
C507   C524    1.400   .     A
C507   C516    1.453   .     S
C508   C522    1.412   .     A
C509   H529    1.082   .     S
C509   N534    1.367   .     A
C510   H530    1.082   .     S
C510   N533    1.367   .     A
C510   C890    1.416   .     S
C511   N533    1.367   .     A
C511   H531    1.082   .     S
C511   C887    1.416   .     S
C512   N534    1.367   .     A
C512   H532    1.082   .     S
C513   N535    1.158   .     T
C513   C562    1.456   .     S
C514   N536    1.158   .     T
C514   C605    1.456   1_455 S
C515   C522    1.446   .     S
C515   N537    1.157   .     T
C516   O540    1.292   .     A
C516   O542    1.288   .     A
C517   N538    1.157   .     T
C517   C523    1.446   .     S
C518   C520    1.440   .     S
C518   O543    1.282   .     A
C518   O545    1.292   .     A
C519   O544    1.281   .     A
C519   C521    1.440   .     S
C519   O546    1.292   .     A
C520   C597    1.456   1_455 S
C520   C605    1.363   1_455 S
C521   C562    1.363   .     S
C521   C556    1.456   .     S
C523   C632    1.386   .     S
C524   H527    1.085   .     S
C524   C648    1.386   .     S
Cu525  O539    1.966   .     S
Cu525  O543    1.981   .     S
Cu525  Cu526   2.675   .     S
Cu525  O546    1.983   .     S
Cu525  N533    2.010   .     S
Cu525  O542    1.969   .     S
Cu526  O540    1.966   .     S
Cu526  O544    1.981   .     S
Cu526  O545    1.983   .     S
Cu526  N534    2.010   .     S
Cu526  O541    1.969   .     S
C547   O583    1.288   .     A
C547   C550    1.453   .     S
C547   O581    1.292   .     A
C548   C550    1.400   .     A
C548   H570    1.085   .     S
C549   C565    1.412   .     A
C549   C566    1.400   .     A
C549   C558    1.453   .     S
C550   C564    1.412   .     A
C551   H571    1.082   .     S
C551   N576    1.367   .     A
C552   H572    1.082   .     S
C552   N575    1.367   .     A
C552   C932    1.416   .     S
C553   N575    1.367   .     A
C553   H573    1.082   .     S
C553   C929    1.416   .     S
C554   N576    1.367   .     A
C554   H574    1.082   .     S
C555   N577    1.158   .     T
C555   C604    1.456   .     S
C556   N578    1.158   .     T
C557   C564    1.446   .     S
C557   N579    1.157   .     T
C558   O582    1.292   .     A
C558   O584    1.288   .     A
C559   N580    1.157   .     T
C559   C565    1.446   .     S
C560   C562    1.440   .     S
C560   O585    1.282   .     A
C560   O587    1.292   .     A
C561   O586    1.281   .     A
C561   C563    1.440   .     S
C561   O588    1.292   .     A
C563   C604    1.363   .     S
C563   C598    1.456   .     S
C565   C674    1.386   .     S
C566   H569    1.085   .     S
C566   C690    1.386   .     S
Cu567  O581    1.966   .     S
Cu567  O585    1.981   .     S
Cu567  Cu568   2.675   .     S
Cu567  O588    1.983   .     S
Cu567  N575    2.010   .     S
Cu567  O584    1.969   .     S
Cu568  O582    1.966   .     S
Cu568  O586    1.981   .     S
Cu568  O587    1.983   .     S
Cu568  N576    2.010   .     S
Cu568  O583    1.969   .     S
C589   O625    1.288   .     A
C589   C592    1.453   .     S
C589   O623    1.292   .     A
C590   C592    1.400   .     A
C590   H612    1.085   .     S
C591   C607    1.412   .     A
C591   C608    1.400   .     A
C591   C600    1.453   .     S
C592   C606    1.412   .     A
C593   H613    1.082   .     S
C593   N618    1.367   .     A
C594   H614    1.082   .     S
C594   N617    1.367   .     A
C594   C974    1.416   .     S
C595   N617    1.367   .     A
C595   H615    1.082   .     S
C595   C971    1.416   .     S
C596   N618    1.367   .     A
C596   H616    1.082   .     S
C597   N619    1.158   .     T
C597   C520    1.456   1_655 S
C598   N620    1.158   .     T
C599   C606    1.446   .     S
C599   N621    1.157   .     T
C600   O624    1.292   .     A
C600   O626    1.288   .     A
C601   N622    1.157   .     T
C601   C607    1.446   .     S
C602   C604    1.440   .     S
C602   O627    1.282   .     A
C602   O629    1.292   .     A
C603   O628    1.281   .     A
C603   C605    1.440   .     S
C603   O630    1.292   .     A
C605   C520    1.363   1_655 S
C605   C514    1.456   1_655 S
C607   C716    1.386   .     S
C608   H611    1.085   .     S
C608   C732    1.386   .     S
Cu609  O623    1.966   .     S
Cu609  O627    1.981   .     S
Cu609  Cu610   2.675   .     S
Cu609  O630    1.983   .     S
Cu609  N617    2.010   .     S
Cu609  O626    1.969   .     S
Cu610  O624    1.966   .     S
Cu610  O628    1.981   .     S
Cu610  O629    1.983   .     S
Cu610  N618    2.010   .     S
Cu610  O625    1.969   .     S
C631   O667    1.288   .     A
C631   C634    1.453   .     S
C631   O665    1.292   .     A
C632   C634    1.400   .     A
C632   H654    1.085   .     S
C633   C649    1.412   .     A
C633   C650    1.400   .     A
C633   C642    1.453   .     S
C634   C648    1.412   .     A
C635   H655    1.082   .     S
C635   N660    1.367   .     A
C636   H656    1.082   .     S
C636   N659    1.367   .     A
C636   C1016   1.416   .     S
C637   N659    1.367   .     A
C637   H657    1.082   .     S
C637   C1013   1.416   .     S
C638   N660    1.367   .     A
C638   H658    1.082   .     S
C639   N661    1.158   .     T
C639   C688    1.456   .     S
C640   N662    1.158   .     T
C640   C731    1.456   1_455 S
C641   C648    1.446   .     S
C641   N663    1.157   .     T
C642   O666    1.292   .     A
C642   O668    1.288   .     A
C643   N664    1.157   .     T
C643   C649    1.446   .     S
C644   C646    1.440   .     S
C644   O669    1.282   .     A
C644   O671    1.292   .     A
C645   O670    1.281   .     A
C645   C647    1.440   .     S
C645   O672    1.292   .     A
C646   C723    1.456   1_455 S
C646   C731    1.363   1_455 S
C647   C688    1.363   .     S
C647   C682    1.456   .     S
C649   C380    1.386   1_565 S
C650   H653    1.085   .     S
C650   C396    1.386   1_565 S
Cu651  O665    1.966   .     S
Cu651  O669    1.981   .     S
Cu651  Cu652   2.675   .     S
Cu651  O672    1.983   .     S
Cu651  N659    2.010   .     S
Cu651  O668    1.969   .     S
Cu652  O666    1.966   .     S
Cu652  O670    1.981   .     S
Cu652  O671    1.983   .     S
Cu652  N660    2.010   .     S
Cu652  O667    1.969   .     S
C673   O709    1.288   .     A
C673   C676    1.453   .     S
C673   O707    1.292   .     A
C674   C676    1.400   .     A
C674   H696    1.085   .     S
C675   C691    1.412   .     A
C675   C692    1.400   .     A
C675   C684    1.453   .     S
C676   C690    1.412   .     A
C677   H697    1.082   .     S
C677   N702    1.367   .     A
C678   H698    1.082   .     S
C678   N701    1.367   .     A
C678   C1058   1.416   .     S
C679   N701    1.367   .     A
C679   H699    1.082   .     S
C679   C1055   1.416   .     S
C680   N702    1.367   .     A
C680   H700    1.082   .     S
C681   N703    1.158   .     T
C681   C730    1.456   .     S
C682   N704    1.158   .     T
C683   C690    1.446   .     S
C683   N705    1.157   .     T
C684   O708    1.292   .     A
C684   O710    1.288   .     A
C685   N706    1.157   .     T
C685   C691    1.446   .     S
C686   C688    1.440   .     S
C686   O711    1.282   .     A
C686   O713    1.292   .     A
C687   O712    1.281   .     A
C687   C689    1.440   .     S
C687   O714    1.292   .     A
C689   C730    1.363   .     S
C689   C724    1.456   .     S
C691   C422    1.386   1_565 S
C692   H695    1.085   .     S
C692   C438    1.386   1_565 S
Cu693  O707    1.966   .     S
Cu693  O711    1.981   .     S
Cu693  Cu694   2.675   .     S
Cu693  O714    1.983   .     S
Cu693  N701    2.010   .     S
Cu693  O710    1.969   .     S
Cu694  O708    1.966   .     S
Cu694  O712    1.981   .     S
Cu694  O713    1.983   .     S
Cu694  N702    2.010   .     S
Cu694  O709    1.969   .     S
C715   O751    1.288   .     A
C715   C718    1.453   .     S
C715   O749    1.292   .     A
C716   C718    1.400   .     A
C716   H738    1.085   .     S
C717   C733    1.412   .     A
C717   C734    1.400   .     A
C717   C726    1.453   .     S
C718   C732    1.412   .     A
C719   H739    1.082   .     S
C719   N744    1.367   .     A
C720   H740    1.082   .     S
C720   N743    1.367   .     A
C720   C1100   1.416   .     S
C721   N743    1.367   .     A
C721   H741    1.082   .     S
C721   C1097   1.416   .     S
C722   N744    1.367   .     A
C722   H742    1.082   .     S
C723   N745    1.158   .     T
C723   C646    1.456   1_655 S
C724   N746    1.158   .     T
C725   C732    1.446   .     S
C725   N747    1.157   .     T
C726   O750    1.292   .     A
C726   O752    1.288   .     A
C727   N748    1.157   .     T
C727   C733    1.446   .     S
C728   C730    1.440   .     S
C728   O753    1.282   .     A
C728   O755    1.292   .     A
C729   O754    1.281   .     A
C729   C731    1.440   .     S
C729   O756    1.292   .     A
C731   C646    1.363   1_655 S
C731   C640    1.456   1_655 S
C733   C464    1.386   1_565 S
C734   H737    1.085   .     S
C734   C480    1.386   1_565 S
Cu735  O749    1.966   .     S
Cu735  O753    1.981   .     S
Cu735  Cu736   2.675   .     S
Cu735  O756    1.983   .     S
Cu735  N743    2.010   .     S
Cu735  O752    1.969   .     S
Cu736  O750    1.966   .     S
Cu736  O754    1.981   .     S
Cu736  O755    1.983   .     S
Cu736  N744    2.010   .     S
Cu736  O751    1.969   .     S
C757   O793    1.288   .     A
C757   C760    1.453   .     S
C757   O791    1.292   .     A
C758   C760    1.400   .     A
C758   H780    1.085   .     S
C758   C1027   1.386   1_545 S
C759   C775    1.412   .     A
C759   C776    1.400   .     A
C759   C768    1.453   .     S
C760   C774    1.412   .     A
C761   H781    1.082   .     S
C761   N786    1.367   .     A
C762   H782    1.082   .     S
C762   N785    1.367   .     A
C762   C8      1.416   1_556 S
C763   N785    1.367   .     A
C763   H783    1.082   .     S
C763   C5      1.416   1_556 S
C764   N786    1.367   .     A
C764   H784    1.082   .     S
C765   N787    1.158   .     T
C765   C814    1.456   .     S
C766   N788    1.158   .     T
C766   C857    1.456   1_455 S
C767   C774    1.446   .     S
C767   N789    1.157   .     T
C768   O792    1.292   .     A
C768   O794    1.288   .     A
C769   N790    1.157   .     T
C769   C775    1.446   .     S
C770   C772    1.440   .     S
C770   O795    1.282   .     A
C770   O797    1.292   .     A
C771   O796    1.281   .     A
C771   C773    1.440   .     S
C771   O798    1.292   .     A
C772   C849    1.456   1_455 S
C772   C857    1.363   1_455 S
C773   C814    1.363   .     S
C773   C808    1.456   .     S
C774   C1028   1.386   1_545 S
C775   C884    1.386   .     S
C776   H779    1.085   .     S
C776   C900    1.386   .     S
Cu777  O791    1.966   .     S
Cu777  O795    1.981   .     S
Cu777  Cu778   2.675   .     S
Cu777  O798    1.983   .     S
Cu777  N785    2.010   .     S
Cu777  O794    1.969   .     S
Cu778  O792    1.966   .     S
Cu778  O796    1.981   .     S
Cu778  O797    1.983   .     S
Cu778  N786    2.010   .     S
Cu778  O793    1.969   .     S
C799   O835    1.288   .     A
C799   C802    1.453   .     S
C799   O833    1.292   .     A
C800   C802    1.400   .     A
C800   H822    1.085   .     S
C800   C1069   1.386   1_545 S
C801   C817    1.412   .     A
C801   C818    1.400   .     A
C801   C810    1.453   .     S
C802   C816    1.412   .     A
C803   H823    1.082   .     S
C803   N828    1.367   .     A
C804   H824    1.082   .     S
C804   N827    1.367   .     A
C804   C50     1.416   1_556 S
C805   N827    1.367   .     A
C805   H825    1.082   .     S
C805   C47     1.416   1_556 S
C806   N828    1.367   .     A
C806   H826    1.082   .     S
C807   N829    1.158   .     T
C807   C856    1.456   .     S
C808   N830    1.158   .     T
C809   C816    1.446   .     S
C809   N831    1.157   .     T
C810   O834    1.292   .     A
C810   O836    1.288   .     A
C811   N832    1.157   .     T
C811   C817    1.446   .     S
C812   C814    1.440   .     S
C812   O837    1.282   .     A
C812   O839    1.292   .     A
C813   O838    1.281   .     A
C813   C815    1.440   .     S
C813   O840    1.292   .     A
C815   C856    1.363   .     S
C815   C850    1.456   .     S
C816   C1070   1.386   1_545 S
C817   C926    1.386   .     S
C818   H821    1.085   .     S
C818   C942    1.386   .     S
Cu819  O833    1.966   .     S
Cu819  O837    1.981   .     S
Cu819  Cu820   2.675   .     S
Cu819  O840    1.983   .     S
Cu819  N827    2.010   .     S
Cu819  O836    1.969   .     S
Cu820  O834    1.966   .     S
Cu820  O838    1.981   .     S
Cu820  O839    1.983   .     S
Cu820  N828    2.010   .     S
Cu820  O835    1.969   .     S
C841   O877    1.288   .     A
C841   C844    1.453   .     S
C841   O875    1.292   .     A
C842   C844    1.400   .     A
C842   H864    1.085   .     S
C842   C1111   1.386   1_545 S
C843   C859    1.412   .     A
C843   C860    1.400   .     A
C843   C852    1.453   .     S
C844   C858    1.412   .     A
C845   H865    1.082   .     S
C845   N870    1.367   .     A
C846   H866    1.082   .     S
C846   N869    1.367   .     A
C846   C92     1.416   1_556 S
C847   N869    1.367   .     A
C847   H867    1.082   .     S
C847   C89     1.416   1_556 S
C848   N870    1.367   .     A
C848   H868    1.082   .     S
C849   N871    1.158   .     T
C849   C772    1.456   1_655 S
C850   N872    1.158   .     T
C851   C858    1.446   .     S
C851   N873    1.157   .     T
C852   O876    1.292   .     A
C852   O878    1.288   .     A
C853   N874    1.157   .     T
C853   C859    1.446   .     S
C854   C856    1.440   .     S
C854   O879    1.282   .     A
C854   O881    1.292   .     A
C855   O880    1.281   .     A
C855   C857    1.440   .     S
C855   O882    1.292   .     A
C857   C772    1.363   1_655 S
C857   C766    1.456   1_655 S
C858   C1112   1.386   1_545 S
C859   C968    1.386   .     S
C860   H863    1.085   .     S
C860   C984    1.386   .     S
Cu861  O875    1.966   .     S
Cu861  O879    1.981   .     S
Cu861  Cu862   2.675   .     S
Cu861  O882    1.983   .     S
Cu861  N869    2.010   .     S
Cu861  O878    1.969   .     S
Cu862  O876    1.966   .     S
Cu862  O880    1.981   .     S
Cu862  O881    1.983   .     S
Cu862  N870    2.010   .     S
Cu862  O877    1.969   .     S
C883   O919    1.288   .     A
C883   C886    1.453   .     S
C883   O917    1.292   .     A
C884   C886    1.400   .     A
C884   H906    1.085   .     S
C885   C901    1.412   .     A
C885   C902    1.400   .     A
C885   C894    1.453   .     S
C886   C900    1.412   .     A
C887   H907    1.082   .     S
C887   N912    1.367   .     A
C888   H908    1.082   .     S
C888   N911    1.367   .     A
C888   C134    1.416   1_556 S
C889   N911    1.367   .     A
C889   H909    1.082   .     S
C889   C131    1.416   1_556 S
C890   N912    1.367   .     A
C890   H910    1.082   .     S
C891   N913    1.158   .     T
C891   C940    1.456   .     S
C892   N914    1.158   .     T
C892   C983    1.456   1_455 S
C893   C900    1.446   .     S
C893   N915    1.157   .     T
C894   O918    1.292   .     A
C894   O920    1.288   .     A
C895   N916    1.157   .     T
C895   C901    1.446   .     S
C896   C898    1.440   .     S
C896   O921    1.282   .     A
C896   O923    1.292   .     A
C897   O922    1.281   .     A
C897   C899    1.440   .     S
C897   O924    1.292   .     A
C898   C975    1.456   1_455 S
C898   C983    1.363   1_455 S
C899   C940    1.363   .     S
C899   C934    1.456   .     S
C901   C1010   1.386   .     S
C902   H905    1.085   .     S
C902   C1026   1.386   .     S
Cu903  O917    1.966   .     S
Cu903  O921    1.981   .     S
Cu903  Cu904   2.675   .     S
Cu903  O924    1.983   .     S
Cu903  N911    2.010   .     S
Cu903  O920    1.969   .     S
Cu904  O918    1.966   .     S
Cu904  O922    1.981   .     S
Cu904  O923    1.983   .     S
Cu904  N912    2.010   .     S
Cu904  O919    1.969   .     S
C925   O961    1.288   .     A
C925   C928    1.453   .     S
C925   O959    1.292   .     A
C926   C928    1.400   .     A
C926   H948    1.085   .     S
C927   C943    1.412   .     A
C927   C944    1.400   .     A
C927   C936    1.453   .     S
C928   C942    1.412   .     A
C929   H949    1.082   .     S
C929   N954    1.367   .     A
C930   H950    1.082   .     S
C930   N953    1.367   .     A
C930   C176    1.416   1_556 S
C931   N953    1.367   .     A
C931   H951    1.082   .     S
C931   C173    1.416   1_556 S
C932   N954    1.367   .     A
C932   H952    1.082   .     S
C933   N955    1.158   .     T
C933   C982    1.456   .     S
C934   N956    1.158   .     T
C935   C942    1.446   .     S
C935   N957    1.157   .     T
C936   O960    1.292   .     A
C936   O962    1.288   .     A
C937   N958    1.157   .     T
C937   C943    1.446   .     S
C938   C940    1.440   .     S
C938   O963    1.282   .     A
C938   O965    1.292   .     A
C939   O964    1.281   .     A
C939   C941    1.440   .     S
C939   O966    1.292   .     A
C941   C982    1.363   .     S
C941   C976    1.456   .     S
C943   C1052   1.386   .     S
C944   H947    1.085   .     S
C944   C1068   1.386   .     S
Cu945  O959    1.966   .     S
Cu945  O963    1.981   .     S
Cu945  Cu946   2.675   .     S
Cu945  O966    1.983   .     S
Cu945  N953    2.010   .     S
Cu945  O962    1.969   .     S
Cu946  O960    1.966   .     S
Cu946  O964    1.981   .     S
Cu946  O965    1.983   .     S
Cu946  N954    2.010   .     S
Cu946  O961    1.969   .     S
C967   O1003   1.288   .     A
C967   C970    1.453   .     S
C967   O1001   1.292   .     A
C968   C970    1.400   .     A
C968   H990    1.085   .     S
C969   C985    1.412   .     A
C969   C986    1.400   .     A
C969   C978    1.453   .     S
C970   C984    1.412   .     A
C971   H991    1.082   .     S
C971   N996    1.367   .     A
C972   H992    1.082   .     S
C972   N995    1.367   .     A
C972   C218    1.416   1_556 S
C973   N995    1.367   .     A
C973   H993    1.082   .     S
C973   C215    1.416   1_556 S
C974   N996    1.367   .     A
C974   H994    1.082   .     S
C975   N997    1.158   .     T
C975   C898    1.456   1_655 S
C976   N998    1.158   .     T
C977   C984    1.446   .     S
C977   N999    1.157   .     T
C978   O1002   1.292   .     A
C978   O1004   1.288   .     A
C979   N1000   1.157   .     T
C979   C985    1.446   .     S
C980   C982    1.440   .     S
C980   O1005   1.282   .     A
C980   O1007   1.292   .     A
C981   O1006   1.281   .     A
C981   C983    1.440   .     S
C981   O1008   1.292   .     A
C983   C898    1.363   1_655 S
C983   C892    1.456   1_655 S
C985   C1094   1.386   .     S
C986   H989    1.085   .     S
C986   C1110   1.386   .     S
Cu987  O1001   1.966   .     S
Cu987  O1005   1.981   .     S
Cu987  Cu988   2.675   .     S
Cu987  O1008   1.983   .     S
Cu987  N995    2.010   .     S
Cu987  O1004   1.969   .     S
Cu988  O1002   1.966   .     S
Cu988  O1006   1.981   .     S
Cu988  O1007   1.983   .     S
Cu988  N996    2.010   .     S
Cu988  O1003   1.969   .     S
C1009  O1045   1.288   .     A
C1009  C1012   1.453   .     S
C1009  O1043   1.292   .     A
C1010  C1012   1.400   .     A
C1010  H1032   1.085   .     S
C1011  C1027   1.412   .     A
C1011  C1028   1.400   .     A
C1011  C1020   1.453   .     S
C1012  C1026   1.412   .     A
C1013  H1033   1.082   .     S
C1013  N1038   1.367   .     A
C1014  H1034   1.082   .     S
C1014  N1037   1.367   .     A
C1014  C260    1.416   1_556 S
C1015  N1037   1.367   .     A
C1015  H1035   1.082   .     S
C1015  C257    1.416   1_556 S
C1016  N1038   1.367   .     A
C1016  H1036   1.082   .     S
C1017  N1039   1.158   .     T
C1017  C1066   1.456   .     S
C1018  N1040   1.158   .     T
C1018  C1109   1.456   1_455 S
C1019  C1026   1.446   .     S
C1019  N1041   1.157   .     T
C1020  O1044   1.292   .     A
C1020  O1046   1.288   .     A
C1021  N1042   1.157   .     T
C1021  C1027   1.446   .     S
C1022  C1024   1.440   .     S
C1022  O1047   1.282   .     A
C1022  O1049   1.292   .     A
C1023  O1048   1.281   .     A
C1023  C1025   1.440   .     S
C1023  O1050   1.292   .     A
C1024  C1101   1.456   1_455 S
C1024  C1109   1.363   1_455 S
C1025  C1066   1.363   .     S
C1025  C1060   1.456   .     S
C1027  C758    1.386   1_565 S
C1028  H1031   1.085   .     S
C1028  C774    1.386   1_565 S
Cu1029 O1043   1.966   .     S
Cu1029 O1047   1.981   .     S
Cu1029 Cu1030  2.675   .     S
Cu1029 O1050   1.983   .     S
Cu1029 N1037   2.010   .     S
Cu1029 O1046   1.969   .     S
Cu1030 O1044   1.966   .     S
Cu1030 O1048   1.981   .     S
Cu1030 O1049   1.983   .     S
Cu1030 N1038   2.010   .     S
Cu1030 O1045   1.969   .     S
C1051  O1087   1.288   .     A
C1051  C1054   1.453   .     S
C1051  O1085   1.292   .     A
C1052  C1054   1.400   .     A
C1052  H1074   1.085   .     S
C1053  C1069   1.412   .     A
C1053  C1070   1.400   .     A
C1053  C1062   1.453   .     S
C1054  C1068   1.412   .     A
C1055  H1075   1.082   .     S
C1055  N1080   1.367   .     A
C1056  H1076   1.082   .     S
C1056  N1079   1.367   .     A
C1056  C302    1.416   1_556 S
C1057  N1079   1.367   .     A
C1057  H1077   1.082   .     S
C1057  C299    1.416   1_556 S
C1058  N1080   1.367   .     A
C1058  H1078   1.082   .     S
C1059  N1081   1.158   .     T
C1059  C1108   1.456   .     S
C1060  N1082   1.158   .     T
C1061  C1068   1.446   .     S
C1061  N1083   1.157   .     T
C1062  O1086   1.292   .     A
C1062  O1088   1.288   .     A
C1063  N1084   1.157   .     T
C1063  C1069   1.446   .     S
C1064  C1066   1.440   .     S
C1064  O1089   1.282   .     A
C1064  O1091   1.292   .     A
C1065  O1090   1.281   .     A
C1065  C1067   1.440   .     S
C1065  O1092   1.292   .     A
C1067  C1108   1.363   .     S
C1067  C1102   1.456   .     S
C1069  C800    1.386   1_565 S
C1070  H1073   1.085   .     S
C1070  C816    1.386   1_565 S
Cu1071 O1085   1.966   .     S
Cu1071 O1089   1.981   .     S
Cu1071 Cu1072  2.675   .     S
Cu1071 O1092   1.983   .     S
Cu1071 N1079   2.010   .     S
Cu1071 O1088   1.969   .     S
Cu1072 O1086   1.966   .     S
Cu1072 O1090   1.981   .     S
Cu1072 O1091   1.983   .     S
Cu1072 N1080   2.010   .     S
Cu1072 O1087   1.969   .     S
C1093  O1129   1.288   .     A
C1093  C1096   1.453   .     S
C1093  O1127   1.292   .     A
C1094  C1096   1.400   .     A
C1094  H1116   1.085   .     S
C1095  C1111   1.412   .     A
C1095  C1112   1.400   .     A
C1095  C1104   1.453   .     S
C1096  C1110   1.412   .     A
C1097  H1117   1.082   .     S
C1097  N1122   1.367   .     A
C1098  H1118   1.082   .     S
C1098  N1121   1.367   .     A
C1098  C344    1.416   1_556 S
C1099  N1121   1.367   .     A
C1099  H1119   1.082   .     S
C1099  C341    1.416   1_556 S
C1100  N1122   1.367   .     A
C1100  H1120   1.082   .     S
C1101  N1123   1.158   .     T
C1101  C1024   1.456   1_655 S
C1102  N1124   1.158   .     T
C1103  C1110   1.446   .     S
C1103  N1125   1.157   .     T
C1104  O1128   1.292   .     A
C1104  O1130   1.288   .     A
C1105  N1126   1.157   .     T
C1105  C1111   1.446   .     S
C1106  C1108   1.440   .     S
C1106  O1131   1.282   .     A
C1106  O1133   1.292   .     A
C1107  O1132   1.281   .     A
C1107  C1109   1.440   .     S
C1107  O1134   1.292   .     A
C1109  C1024   1.363   1_655 S
C1109  C1018   1.456   1_655 S
C1111  C842    1.386   1_565 S
C1112  H1115   1.085   .     S
C1112  C858    1.386   1_565 S
Cu1113 O1127   1.966   .     S
Cu1113 O1131   1.981   .     S
Cu1113 Cu1114  2.675   .     S
Cu1113 O1134   1.983   .     S
Cu1113 N1121   2.010   .     S
Cu1113 O1130   1.969   .     S
Cu1114 O1128   1.966   .     S
Cu1114 O1132   1.981   .     S
Cu1114 O1133   1.983   .     S
Cu1114 N1122   2.010   .     S
Cu1114 O1129   1.969   .     S
