data_str_m2_o1_o2_pcu_sym.105
_audit_creation_date              2020-01-03
_audit_creation_method            'Materials Studio'
_symmetry_space_group_name_H-M    'P1'
_symmetry_Int_Tables_number       1
_symmetry_cell_setting            triclinic
loop_
_symmetry_equiv_pos_as_xyz
  x,y,z
_cell_length_a                    32.6387
_cell_length_b                    28.8308
_cell_length_c                    30.4320
_cell_angle_alpha                 90.0329
_cell_angle_beta                  94.4452
_cell_angle_gamma                 90.0217
loop_
_atom_site_label
_atom_site_type_symbol
_atom_site_fract_x
_atom_site_fract_y
_atom_site_fract_z
_atom_site_U_iso_or_equiv
_atom_site_adp_type
_atom_site_occupancy
C1     C     0.08774   0.16686   0.25362   0.00000  Uiso   1.00
C2     C     0.24554   0.16678   0.24611   0.00000  Uiso   1.00
C3     C     0.17082   0.16649   0.16558   0.00000  Uiso   1.00
C4     C     0.16295   0.16658   0.33452   0.00000  Uiso   1.00
C5     C     0.14154   0.02487   0.21978   0.00000  Uiso   1.00
C6     C     0.18930   0.30863   0.28233   0.00000  Uiso   1.00
C7     C     0.19066   0.02501   0.28114   0.00000  Uiso   1.00
C8     C     0.14257   0.30826   0.21884   0.00000  Uiso   1.00
C9     C     0.02084   0.12602   0.25790   0.00000  Uiso   1.00
C10    C     0.31204   0.20963   0.24237   0.00000  Uiso   1.00
C11    C     0.31249   0.12554   0.24441   0.00000  Uiso   1.00
C12    C     0.02103   0.21010   0.25305   0.00000  Uiso   1.00
C13    C     0.18340   0.20493   0.04799   0.00000  Uiso   1.00
C14    C     0.16520   0.12325   0.45125   0.00000  Uiso   1.00
C15    C     0.15477   0.20601   0.45263   0.00000  Uiso   1.00
C16    C     0.16842   0.12309   0.04882   0.00000  Uiso   1.00
C17    C     0.18683   0.20553   0.09408   0.00000  Uiso   1.00
C18    C     0.15804   0.12349   0.40573   0.00000  Uiso   1.00
C19    C     0.15084   0.20682   0.40654   0.00000  Uiso   1.00
C20    C     0.17496   0.12294   0.09441   0.00000  Uiso   1.00
C21    C     0.17750   0.16527   0.11776   0.00000  Uiso   1.00
C22    C     0.15725   0.16585   0.38253   0.00000  Uiso   1.00
C23    C     0.17126   0.16439   0.02470   0.00000  Uiso   1.00
C24    C     0.16477   0.16467   0.47562   0.00000  Uiso   1.00
C25    C     0.29034   0.16732   0.24230   0.00000  Uiso   1.00
C26    C     0.04288   0.16780   0.25689   0.00000  Uiso   1.00
Cu27   Cu    0.16667   0.21355   0.25000   0.00000  Uiso   1.00
Cu28   Cu    0.16667   0.11978   0.25000   0.00000  Uiso   1.00
H29    H     0.19130   0.23601   0.03055   0.00000  Uiso   1.00
H30    H     0.16994   0.08987   0.46670   0.00000  Uiso   1.00
H31    H     0.14877   0.23759   0.47030   0.00000  Uiso   1.00
H32    H     0.16217   0.09004   0.03316   0.00000  Uiso   1.00
N33    N     0.16667   0.28402   0.25000   0.00000  Uiso   1.00
N34    N     0.16667   0.04931   0.25000   0.00000  Uiso   1.00
O35    O     0.10655   0.20625   0.25000   0.00000  Uiso   1.00
O36    O     0.22679   0.12709   0.25001   0.00000  Uiso   1.00
O37    O     0.22679   0.20625   0.25001   0.00000  Uiso   1.00
O38    O     0.10655   0.12709   0.25000   0.00000  Uiso   1.00
O39    O     0.16666   0.20626   0.18573   0.00000  Uiso   1.00
O40    O     0.16667   0.12707   0.31427   0.00000  Uiso   1.00
O41    O     0.16667   0.20626   0.31427   0.00000  Uiso   1.00
O42    O     0.16666   0.12707   0.18573   0.00000  Uiso   1.00
N43    N     0.11518   0.05000   0.18875   0.00000  Uiso   1.00
H44    H     0.12388   0.04972   0.15706   0.00000  Uiso   1.00
C45    C     0.07121   0.04512   0.19081   0.00000  Uiso   1.00
H46    H     0.05720   0.02764   0.16088   0.00000  Uiso   1.00
H47    H     0.05720   0.08003   0.19168   0.00000  Uiso   1.00
H48    H     0.06353   0.02486   0.21992   0.00000  Uiso   1.00
N49    N     0.20534   0.28515   0.32114   0.00000  Uiso   1.00
H50    H     0.19586   0.29872   0.34996   0.00000  Uiso   1.00
C51    C     0.24821   0.27188   0.32492   0.00000  Uiso   1.00
H52    H     0.26434   0.28407   0.29664   0.00000  Uiso   1.00
H53    H     0.25068   0.23362   0.32760   0.00000  Uiso   1.00
H54    H     0.26391   0.28681   0.35539   0.00000  Uiso   1.00
N55    N     0.21382   0.04992   0.31509   0.00000  Uiso   1.00
H56    H     0.20494   0.04355   0.34616   0.00000  Uiso   1.00
C57    C     0.25813   0.04969   0.31454   0.00000  Uiso   1.00
H58    H     0.27247   0.03391   0.34526   0.00000  Uiso   1.00
H59    H     0.26940   0.08588   0.31347   0.00000  Uiso   1.00
H60    H     0.26833   0.02994   0.28619   0.00000  Uiso   1.00
N61    N     0.11512   0.28289   0.18905   0.00000  Uiso   1.00
H62    H     0.08541   0.28059   0.19788   0.00000  Uiso   1.00
C63    C     0.11835   0.28805   0.14211   0.00000  Uiso   1.00
H64    H     0.09092   0.30585   0.12645   0.00000  Uiso   1.00
H65    H     0.11942   0.25325   0.12681   0.00000  Uiso   1.00
H66    H     0.14602   0.30789   0.13493   0.00000  Uiso   1.00
C67    C     0.20572   0.24545   0.11575   0.00000  Uiso   1.00
N68    N     0.22141   0.27735   0.13285   0.00000  Uiso   1.00
C69    C     0.14396   0.08071   0.38511   0.00000  Uiso   1.00
N70    N     0.13175   0.04667   0.36881   0.00000  Uiso   1.00
C71    C     0.13373   0.24783   0.38516   0.00000  Uiso   1.00
N72    N     0.11921   0.28030   0.36797   0.00000  Uiso   1.00
C73    C     0.18684   0.07941   0.11499   0.00000  Uiso   1.00
N74    N     0.19742   0.04477   0.13132   0.00000  Uiso   1.00
C75    C     0.03861   0.08585   0.28055   0.00000  Uiso   1.00
N76    N     0.05272   0.05421   0.29955   0.00000  Uiso   1.00
C77    C     0.29244   0.25189   0.22594   0.00000  Uiso   1.00
N78    N     0.27695   0.28563   0.21260   0.00000  Uiso   1.00
C79    C     0.29512   0.08418   0.22356   0.00000  Uiso   1.00
N80    N     0.28123   0.05165   0.20585   0.00000  Uiso   1.00
C81    C     0.04035   0.25380   0.26599   0.00000  Uiso   1.00
N82    N     0.05569   0.28848   0.27702   0.00000  Uiso   1.00
C83    C     0.42107   0.16686   0.25362   0.00000  Uiso   1.00
C84    C     0.57887   0.16678   0.24611   0.00000  Uiso   1.00
C85    C     0.50415   0.16649   0.16558   0.00000  Uiso   1.00
C86    C     0.49629   0.16658   0.33452   0.00000  Uiso   1.00
C87    C     0.47488   0.02487   0.21978   0.00000  Uiso   1.00
C88    C     0.52264   0.30863   0.28233   0.00000  Uiso   1.00
C89    C     0.52400   0.02501   0.28114   0.00000  Uiso   1.00
C90    C     0.47591   0.30826   0.21884   0.00000  Uiso   1.00
C91    C     0.35417   0.12602   0.25790   0.00000  Uiso   1.00
C92    C     0.64537   0.20963   0.24237   0.00000  Uiso   1.00
C93    C     0.64582   0.12554   0.24441   0.00000  Uiso   1.00
C94    C     0.35436   0.21010   0.25305   0.00000  Uiso   1.00
C95    C     0.51673   0.20493   0.04799   0.00000  Uiso   1.00
C96    C     0.49853   0.12325   0.45125   0.00000  Uiso   1.00
C97    C     0.48810   0.20601   0.45263   0.00000  Uiso   1.00
C98    C     0.50175   0.12309   0.04882   0.00000  Uiso   1.00
C99    C     0.52017   0.20553   0.09408   0.00000  Uiso   1.00
C100   C     0.49137   0.12349   0.40573   0.00000  Uiso   1.00
C101   C     0.48417   0.20682   0.40654   0.00000  Uiso   1.00
C102   C     0.50830   0.12294   0.09441   0.00000  Uiso   1.00
C103   C     0.51083   0.16527   0.11776   0.00000  Uiso   1.00
C104   C     0.49059   0.16585   0.38253   0.00000  Uiso   1.00
C105   C     0.50459   0.16439   0.02470   0.00000  Uiso   1.00
C106   C     0.49810   0.16467   0.47562   0.00000  Uiso   1.00
C107   C     0.62367   0.16732   0.24230   0.00000  Uiso   1.00
C108   C     0.37621   0.16780   0.25689   0.00000  Uiso   1.00
Cu109  Cu    0.50000   0.21355   0.25000   0.00000  Uiso   1.00
Cu110  Cu    0.50000   0.11978   0.25000   0.00000  Uiso   1.00
H111   H     0.52464   0.23601   0.03055   0.00000  Uiso   1.00
H112   H     0.50328   0.08987   0.46670   0.00000  Uiso   1.00
H113   H     0.48211   0.23759   0.47030   0.00000  Uiso   1.00
H114   H     0.49550   0.09004   0.03316   0.00000  Uiso   1.00
N115   N     0.50000   0.28402   0.25000   0.00000  Uiso   1.00
N116   N     0.50000   0.04931   0.25000   0.00000  Uiso   1.00
O117   O     0.43988   0.20625   0.25000   0.00000  Uiso   1.00
O118   O     0.56012   0.12709   0.25001   0.00000  Uiso   1.00
O119   O     0.56012   0.20625   0.25001   0.00000  Uiso   1.00
O120   O     0.43988   0.12709   0.25000   0.00000  Uiso   1.00
O121   O     0.50000   0.20626   0.18573   0.00000  Uiso   1.00
O122   O     0.50000   0.12707   0.31427   0.00000  Uiso   1.00
O123   O     0.50000   0.20626   0.31427   0.00000  Uiso   1.00
O124   O     0.50000   0.12707   0.18573   0.00000  Uiso   1.00
N125   N     0.44851   0.05000   0.18875   0.00000  Uiso   1.00
H126   H     0.45721   0.04972   0.15706   0.00000  Uiso   1.00
C127   C     0.40454   0.04512   0.19081   0.00000  Uiso   1.00
H128   H     0.39054   0.02764   0.16088   0.00000  Uiso   1.00
H129   H     0.39053   0.08003   0.19168   0.00000  Uiso   1.00
H130   H     0.39686   0.02486   0.21992   0.00000  Uiso   1.00
N131   N     0.53868   0.28515   0.32114   0.00000  Uiso   1.00
H132   H     0.52920   0.29872   0.34996   0.00000  Uiso   1.00
C133   C     0.58154   0.27188   0.32492   0.00000  Uiso   1.00
H134   H     0.59767   0.28407   0.29664   0.00000  Uiso   1.00
H135   H     0.58401   0.23362   0.32760   0.00000  Uiso   1.00
H136   H     0.59724   0.28681   0.35539   0.00000  Uiso   1.00
N137   N     0.54716   0.04992   0.31509   0.00000  Uiso   1.00
H138   H     0.53827   0.04355   0.34616   0.00000  Uiso   1.00
C139   C     0.59146   0.04969   0.31454   0.00000  Uiso   1.00
H140   H     0.60580   0.03391   0.34526   0.00000  Uiso   1.00
H141   H     0.60274   0.08588   0.31347   0.00000  Uiso   1.00
H142   H     0.60166   0.02994   0.28619   0.00000  Uiso   1.00
N143   N     0.44845   0.28289   0.18905   0.00000  Uiso   1.00
H144   H     0.41875   0.28059   0.19788   0.00000  Uiso   1.00
C145   C     0.45168   0.28805   0.14211   0.00000  Uiso   1.00
H146   H     0.42425   0.30585   0.12645   0.00000  Uiso   1.00
H147   H     0.45275   0.25325   0.12681   0.00000  Uiso   1.00
H148   H     0.47936   0.30789   0.13493   0.00000  Uiso   1.00
C149   C     0.53905   0.24545   0.11575   0.00000  Uiso   1.00
N150   N     0.55474   0.27735   0.13285   0.00000  Uiso   1.00
C151   C     0.47730   0.08071   0.38511   0.00000  Uiso   1.00
N152   N     0.46508   0.04667   0.36881   0.00000  Uiso   1.00
C153   C     0.46706   0.24783   0.38516   0.00000  Uiso   1.00
N154   N     0.45254   0.28030   0.36797   0.00000  Uiso   1.00
C155   C     0.52017   0.07941   0.11499   0.00000  Uiso   1.00
N156   N     0.53075   0.04477   0.13132   0.00000  Uiso   1.00
C157   C     0.37194   0.08585   0.28055   0.00000  Uiso   1.00
N158   N     0.38606   0.05421   0.29955   0.00000  Uiso   1.00
C159   C     0.62578   0.25189   0.22594   0.00000  Uiso   1.00
N160   N     0.61029   0.28563   0.21260   0.00000  Uiso   1.00
C161   C     0.62845   0.08418   0.22356   0.00000  Uiso   1.00
N162   N     0.61456   0.05165   0.20585   0.00000  Uiso   1.00
C163   C     0.37368   0.25380   0.26599   0.00000  Uiso   1.00
N164   N     0.38902   0.28848   0.27702   0.00000  Uiso   1.00
C165   C     0.75440   0.16686   0.25362   0.00000  Uiso   1.00
C166   C     0.91221   0.16678   0.24611   0.00000  Uiso   1.00
C167   C     0.83748   0.16649   0.16558   0.00000  Uiso   1.00
C168   C     0.82962   0.16658   0.33452   0.00000  Uiso   1.00
C169   C     0.80821   0.02487   0.21978   0.00000  Uiso   1.00
C170   C     0.85597   0.30863   0.28233   0.00000  Uiso   1.00
C171   C     0.85733   0.02501   0.28114   0.00000  Uiso   1.00
C172   C     0.80924   0.30826   0.21884   0.00000  Uiso   1.00
C173   C     0.68750   0.12602   0.25790   0.00000  Uiso   1.00
C174   C     0.97871   0.20963   0.24237   0.00000  Uiso   1.00
C175   C     0.97916   0.12554   0.24441   0.00000  Uiso   1.00
C176   C     0.68770   0.21010   0.25305   0.00000  Uiso   1.00
C177   C     0.85007   0.20493   0.04799   0.00000  Uiso   1.00
C178   C     0.83186   0.12325   0.45125   0.00000  Uiso   1.00
C179   C     0.82143   0.20601   0.45263   0.00000  Uiso   1.00
C180   C     0.83509   0.12309   0.04882   0.00000  Uiso   1.00
C181   C     0.85350   0.20553   0.09408   0.00000  Uiso   1.00
C182   C     0.82470   0.12349   0.40573   0.00000  Uiso   1.00
C183   C     0.81751   0.20682   0.40654   0.00000  Uiso   1.00
C184   C     0.84163   0.12294   0.09441   0.00000  Uiso   1.00
C185   C     0.84416   0.16527   0.11776   0.00000  Uiso   1.00
C186   C     0.82392   0.16585   0.38253   0.00000  Uiso   1.00
C187   C     0.83793   0.16439   0.02470   0.00000  Uiso   1.00
C188   C     0.83143   0.16467   0.47562   0.00000  Uiso   1.00
C189   C     0.95700   0.16732   0.24230   0.00000  Uiso   1.00
C190   C     0.70954   0.16780   0.25689   0.00000  Uiso   1.00
Cu191  Cu    0.83333   0.21355   0.25000   0.00000  Uiso   1.00
Cu192  Cu    0.83333   0.11978   0.25000   0.00000  Uiso   1.00
H193   H     0.85797   0.23601   0.03055   0.00000  Uiso   1.00
H194   H     0.83661   0.08987   0.46670   0.00000  Uiso   1.00
H195   H     0.81544   0.23759   0.47030   0.00000  Uiso   1.00
H196   H     0.82884   0.09004   0.03316   0.00000  Uiso   1.00
N197   N     0.83333   0.28402   0.25000   0.00000  Uiso   1.00
N198   N     0.83333   0.04931   0.25000   0.00000  Uiso   1.00
O199   O     0.77321   0.20625   0.25000   0.00000  Uiso   1.00
O200   O     0.89345   0.12709   0.25001   0.00000  Uiso   1.00
O201   O     0.89345   0.20625   0.25001   0.00000  Uiso   1.00
O202   O     0.77321   0.12709   0.25000   0.00000  Uiso   1.00
O203   O     0.83333   0.20626   0.18573   0.00000  Uiso   1.00
O204   O     0.83334   0.12707   0.31427   0.00000  Uiso   1.00
O205   O     0.83334   0.20626   0.31427   0.00000  Uiso   1.00
O206   O     0.83333   0.12707   0.18573   0.00000  Uiso   1.00
N207   N     0.78185   0.05000   0.18875   0.00000  Uiso   1.00
H208   H     0.79054   0.04972   0.15706   0.00000  Uiso   1.00
C209   C     0.73788   0.04512   0.19081   0.00000  Uiso   1.00
H210   H     0.72387   0.02764   0.16088   0.00000  Uiso   1.00
H211   H     0.72387   0.08003   0.19168   0.00000  Uiso   1.00
H212   H     0.73020   0.02486   0.21992   0.00000  Uiso   1.00
N213   N     0.87201   0.28515   0.32114   0.00000  Uiso   1.00
H214   H     0.86253   0.29872   0.34996   0.00000  Uiso   1.00
C215   C     0.91487   0.27188   0.32492   0.00000  Uiso   1.00
H216   H     0.93101   0.28407   0.29664   0.00000  Uiso   1.00
H217   H     0.91735   0.23362   0.32760   0.00000  Uiso   1.00
H218   H     0.93058   0.28681   0.35539   0.00000  Uiso   1.00
N219   N     0.88049   0.04992   0.31509   0.00000  Uiso   1.00
H220   H     0.87161   0.04355   0.34616   0.00000  Uiso   1.00
C221   C     0.92479   0.04969   0.31454   0.00000  Uiso   1.00
H222   H     0.93914   0.03391   0.34526   0.00000  Uiso   1.00
H223   H     0.93607   0.08588   0.31347   0.00000  Uiso   1.00
H224   H     0.93500   0.02994   0.28619   0.00000  Uiso   1.00
N225   N     0.78178   0.28289   0.18905   0.00000  Uiso   1.00
H226   H     0.75208   0.28059   0.19788   0.00000  Uiso   1.00
C227   C     0.78501   0.28805   0.14211   0.00000  Uiso   1.00
H228   H     0.75758   0.30585   0.12645   0.00000  Uiso   1.00
H229   H     0.78609   0.25325   0.12681   0.00000  Uiso   1.00
H230   H     0.81269   0.30789   0.13493   0.00000  Uiso   1.00
C231   C     0.87238   0.24545   0.11575   0.00000  Uiso   1.00
N232   N     0.88807   0.27735   0.13285   0.00000  Uiso   1.00
C233   C     0.81063   0.08071   0.38511   0.00000  Uiso   1.00
N234   N     0.79841   0.04667   0.36881   0.00000  Uiso   1.00
C235   C     0.80040   0.24783   0.38516   0.00000  Uiso   1.00
N236   N     0.78587   0.28030   0.36797   0.00000  Uiso   1.00
C237   C     0.85350   0.07941   0.11499   0.00000  Uiso   1.00
N238   N     0.86408   0.04477   0.13132   0.00000  Uiso   1.00
C239   C     0.70528   0.08585   0.28055   0.00000  Uiso   1.00
N240   N     0.71939   0.05421   0.29955   0.00000  Uiso   1.00
C241   C     0.95911   0.25189   0.22594   0.00000  Uiso   1.00
N242   N     0.94362   0.28563   0.21260   0.00000  Uiso   1.00
C243   C     0.96179   0.08418   0.22356   0.00000  Uiso   1.00
N244   N     0.94790   0.05165   0.20585   0.00000  Uiso   1.00
C245   C     0.70702   0.25380   0.26599   0.00000  Uiso   1.00
N246   N     0.72235   0.28848   0.27702   0.00000  Uiso   1.00
C247   C     0.08774   0.50019   0.25362   0.00000  Uiso   1.00
C248   C     0.24554   0.50011   0.24611   0.00000  Uiso   1.00
C249   C     0.17082   0.49982   0.16558   0.00000  Uiso   1.00
C250   C     0.16295   0.49992   0.33452   0.00000  Uiso   1.00
C251   C     0.14154   0.35820   0.21978   0.00000  Uiso   1.00
C252   C     0.18930   0.64196   0.28233   0.00000  Uiso   1.00
C253   C     0.19066   0.35834   0.28114   0.00000  Uiso   1.00
C254   C     0.14257   0.64160   0.21884   0.00000  Uiso   1.00
C255   C     0.02084   0.45935   0.25790   0.00000  Uiso   1.00
C256   C     0.31204   0.54297   0.24237   0.00000  Uiso   1.00
C257   C     0.31249   0.45887   0.24441   0.00000  Uiso   1.00
C258   C     0.02103   0.54343   0.25305   0.00000  Uiso   1.00
C259   C     0.18340   0.53827   0.04799   0.00000  Uiso   1.00
C260   C     0.16520   0.45659   0.45125   0.00000  Uiso   1.00
C261   C     0.15477   0.53935   0.45263   0.00000  Uiso   1.00
C262   C     0.16842   0.45642   0.04882   0.00000  Uiso   1.00
C263   C     0.18683   0.53886   0.09408   0.00000  Uiso   1.00
C264   C     0.15804   0.45682   0.40573   0.00000  Uiso   1.00
C265   C     0.15084   0.54015   0.40654   0.00000  Uiso   1.00
C266   C     0.17496   0.45627   0.09441   0.00000  Uiso   1.00
C267   C     0.17750   0.49860   0.11776   0.00000  Uiso   1.00
C268   C     0.15725   0.49918   0.38253   0.00000  Uiso   1.00
C269   C     0.17126   0.49773   0.02470   0.00000  Uiso   1.00
C270   C     0.16477   0.49800   0.47562   0.00000  Uiso   1.00
C271   C     0.29034   0.50066   0.24230   0.00000  Uiso   1.00
C272   C     0.04288   0.50113   0.25689   0.00000  Uiso   1.00
Cu273  Cu    0.16667   0.54689   0.25000   0.00000  Uiso   1.00
Cu274  Cu    0.16667   0.45311   0.25000   0.00000  Uiso   1.00
H275   H     0.19130   0.56935   0.03055   0.00000  Uiso   1.00
H276   H     0.16994   0.42321   0.46670   0.00000  Uiso   1.00
H277   H     0.14877   0.57092   0.47030   0.00000  Uiso   1.00
H278   H     0.16217   0.42337   0.03316   0.00000  Uiso   1.00
N279   N     0.16667   0.61736   0.25000   0.00000  Uiso   1.00
N280   N     0.16667   0.38264   0.25000   0.00000  Uiso   1.00
O281   O     0.10655   0.53958   0.25000   0.00000  Uiso   1.00
O282   O     0.22679   0.46042   0.25001   0.00000  Uiso   1.00
O283   O     0.22679   0.53958   0.25001   0.00000  Uiso   1.00
O284   O     0.10655   0.46042   0.25000   0.00000  Uiso   1.00
O285   O     0.16666   0.53959   0.18573   0.00000  Uiso   1.00
O286   O     0.16667   0.46041   0.31427   0.00000  Uiso   1.00
O287   O     0.16667   0.53959   0.31427   0.00000  Uiso   1.00
O288   O     0.16666   0.46041   0.18573   0.00000  Uiso   1.00
N289   N     0.11518   0.38333   0.18875   0.00000  Uiso   1.00
H290   H     0.12388   0.38305   0.15706   0.00000  Uiso   1.00
C291   C     0.07121   0.37846   0.19081   0.00000  Uiso   1.00
H292   H     0.05720   0.36097   0.16088   0.00000  Uiso   1.00
H293   H     0.05720   0.41336   0.19168   0.00000  Uiso   1.00
H294   H     0.06353   0.35819   0.21992   0.00000  Uiso   1.00
N295   N     0.20534   0.61848   0.32114   0.00000  Uiso   1.00
H296   H     0.19586   0.63205   0.34996   0.00000  Uiso   1.00
C297   C     0.24821   0.60521   0.32492   0.00000  Uiso   1.00
H298   H     0.26434   0.61740   0.29664   0.00000  Uiso   1.00
H299   H     0.25068   0.56695   0.32760   0.00000  Uiso   1.00
H300   H     0.26391   0.62015   0.35539   0.00000  Uiso   1.00
N301   N     0.21382   0.38325   0.31509   0.00000  Uiso   1.00
H302   H     0.20494   0.37688   0.34616   0.00000  Uiso   1.00
C303   C     0.25813   0.38303   0.31454   0.00000  Uiso   1.00
H304   H     0.27247   0.36725   0.34526   0.00000  Uiso   1.00
H305   H     0.26940   0.41921   0.31347   0.00000  Uiso   1.00
H306   H     0.26833   0.36327   0.28619   0.00000  Uiso   1.00
N307   N     0.11512   0.61623   0.18905   0.00000  Uiso   1.00
H308   H     0.08541   0.61392   0.19788   0.00000  Uiso   1.00
C309   C     0.11835   0.62138   0.14211   0.00000  Uiso   1.00
H310   H     0.09092   0.63918   0.12645   0.00000  Uiso   1.00
H311   H     0.11942   0.58658   0.12681   0.00000  Uiso   1.00
H312   H     0.14602   0.64123   0.13493   0.00000  Uiso   1.00
C313   C     0.20572   0.57878   0.11575   0.00000  Uiso   1.00
N314   N     0.22141   0.61068   0.13285   0.00000  Uiso   1.00
C315   C     0.14396   0.41405   0.38511   0.00000  Uiso   1.00
N316   N     0.13175   0.38000   0.36881   0.00000  Uiso   1.00
C317   C     0.13373   0.58116   0.38516   0.00000  Uiso   1.00
N318   N     0.11921   0.61363   0.36797   0.00000  Uiso   1.00
C319   C     0.18684   0.41274   0.11499   0.00000  Uiso   1.00
N320   N     0.19742   0.37811   0.13132   0.00000  Uiso   1.00
C321   C     0.03861   0.41918   0.28055   0.00000  Uiso   1.00
N322   N     0.05272   0.38755   0.29955   0.00000  Uiso   1.00
C323   C     0.29244   0.58522   0.22594   0.00000  Uiso   1.00
N324   N     0.27695   0.61896   0.21260   0.00000  Uiso   1.00
C325   C     0.29512   0.41751   0.22356   0.00000  Uiso   1.00
N326   N     0.28123   0.38498   0.20585   0.00000  Uiso   1.00
C327   C     0.04035   0.58713   0.26599   0.00000  Uiso   1.00
N328   N     0.05569   0.62182   0.27702   0.00000  Uiso   1.00
C329   C     0.42107   0.50019   0.25362   0.00000  Uiso   1.00
C330   C     0.57887   0.50011   0.24611   0.00000  Uiso   1.00
C331   C     0.50415   0.49982   0.16558   0.00000  Uiso   1.00
C332   C     0.49629   0.49992   0.33452   0.00000  Uiso   1.00
C333   C     0.47488   0.35820   0.21978   0.00000  Uiso   1.00
C334   C     0.52264   0.64196   0.28233   0.00000  Uiso   1.00
C335   C     0.52400   0.35834   0.28114   0.00000  Uiso   1.00
C336   C     0.47591   0.64160   0.21884   0.00000  Uiso   1.00
C337   C     0.35417   0.45935   0.25790   0.00000  Uiso   1.00
C338   C     0.64537   0.54297   0.24237   0.00000  Uiso   1.00
C339   C     0.64582   0.45887   0.24441   0.00000  Uiso   1.00
C340   C     0.35436   0.54343   0.25305   0.00000  Uiso   1.00
C341   C     0.51673   0.53827   0.04799   0.00000  Uiso   1.00
C342   C     0.49853   0.45659   0.45125   0.00000  Uiso   1.00
C343   C     0.48810   0.53935   0.45263   0.00000  Uiso   1.00
C344   C     0.50175   0.45642   0.04882   0.00000  Uiso   1.00
C345   C     0.52017   0.53886   0.09408   0.00000  Uiso   1.00
C346   C     0.49137   0.45682   0.40573   0.00000  Uiso   1.00
C347   C     0.48417   0.54015   0.40654   0.00000  Uiso   1.00
C348   C     0.50830   0.45627   0.09441   0.00000  Uiso   1.00
C349   C     0.51083   0.49860   0.11776   0.00000  Uiso   1.00
C350   C     0.49059   0.49918   0.38253   0.00000  Uiso   1.00
C351   C     0.50459   0.49773   0.02470   0.00000  Uiso   1.00
C352   C     0.49810   0.49800   0.47562   0.00000  Uiso   1.00
C353   C     0.62367   0.50066   0.24230   0.00000  Uiso   1.00
C354   C     0.37621   0.50113   0.25689   0.00000  Uiso   1.00
Cu355  Cu    0.50000   0.54689   0.25000   0.00000  Uiso   1.00
Cu356  Cu    0.50000   0.45311   0.25000   0.00000  Uiso   1.00
H357   H     0.52464   0.56935   0.03055   0.00000  Uiso   1.00
H358   H     0.50328   0.42321   0.46670   0.00000  Uiso   1.00
H359   H     0.48211   0.57092   0.47030   0.00000  Uiso   1.00
H360   H     0.49550   0.42337   0.03316   0.00000  Uiso   1.00
N361   N     0.50000   0.61736   0.25000   0.00000  Uiso   1.00
N362   N     0.50000   0.38264   0.25000   0.00000  Uiso   1.00
O363   O     0.43988   0.53958   0.25000   0.00000  Uiso   1.00
O364   O     0.56012   0.46042   0.25001   0.00000  Uiso   1.00
O365   O     0.56012   0.53958   0.25001   0.00000  Uiso   1.00
O366   O     0.43988   0.46042   0.25000   0.00000  Uiso   1.00
O367   O     0.50000   0.53959   0.18573   0.00000  Uiso   1.00
O368   O     0.50000   0.46041   0.31427   0.00000  Uiso   1.00
O369   O     0.50000   0.53959   0.31427   0.00000  Uiso   1.00
O370   O     0.50000   0.46041   0.18573   0.00000  Uiso   1.00
N371   N     0.44851   0.38333   0.18875   0.00000  Uiso   1.00
H372   H     0.45721   0.38305   0.15706   0.00000  Uiso   1.00
C373   C     0.40454   0.37846   0.19081   0.00000  Uiso   1.00
H374   H     0.39054   0.36097   0.16088   0.00000  Uiso   1.00
H375   H     0.39053   0.41336   0.19168   0.00000  Uiso   1.00
H376   H     0.39686   0.35819   0.21992   0.00000  Uiso   1.00
N377   N     0.53868   0.61848   0.32114   0.00000  Uiso   1.00
H378   H     0.52920   0.63205   0.34996   0.00000  Uiso   1.00
C379   C     0.58154   0.60521   0.32492   0.00000  Uiso   1.00
H380   H     0.59767   0.61740   0.29664   0.00000  Uiso   1.00
H381   H     0.58401   0.56695   0.32760   0.00000  Uiso   1.00
H382   H     0.59724   0.62015   0.35539   0.00000  Uiso   1.00
N383   N     0.54716   0.38325   0.31509   0.00000  Uiso   1.00
H384   H     0.53827   0.37688   0.34616   0.00000  Uiso   1.00
C385   C     0.59146   0.38303   0.31454   0.00000  Uiso   1.00
H386   H     0.60580   0.36725   0.34526   0.00000  Uiso   1.00
H387   H     0.60274   0.41921   0.31347   0.00000  Uiso   1.00
H388   H     0.60166   0.36327   0.28619   0.00000  Uiso   1.00
N389   N     0.44845   0.61623   0.18905   0.00000  Uiso   1.00
H390   H     0.41875   0.61392   0.19788   0.00000  Uiso   1.00
C391   C     0.45168   0.62138   0.14211   0.00000  Uiso   1.00
H392   H     0.42425   0.63918   0.12645   0.00000  Uiso   1.00
H393   H     0.45275   0.58658   0.12681   0.00000  Uiso   1.00
H394   H     0.47936   0.64123   0.13493   0.00000  Uiso   1.00
C395   C     0.53905   0.57878   0.11575   0.00000  Uiso   1.00
N396   N     0.55474   0.61068   0.13285   0.00000  Uiso   1.00
C397   C     0.47730   0.41405   0.38511   0.00000  Uiso   1.00
N398   N     0.46508   0.38000   0.36881   0.00000  Uiso   1.00
C399   C     0.46706   0.58116   0.38516   0.00000  Uiso   1.00
N400   N     0.45254   0.61363   0.36797   0.00000  Uiso   1.00
C401   C     0.52017   0.41274   0.11499   0.00000  Uiso   1.00
N402   N     0.53075   0.37811   0.13132   0.00000  Uiso   1.00
C403   C     0.37194   0.41918   0.28055   0.00000  Uiso   1.00
N404   N     0.38606   0.38755   0.29955   0.00000  Uiso   1.00
C405   C     0.62578   0.58522   0.22594   0.00000  Uiso   1.00
N406   N     0.61029   0.61896   0.21260   0.00000  Uiso   1.00
C407   C     0.62845   0.41751   0.22356   0.00000  Uiso   1.00
N408   N     0.61456   0.38498   0.20585   0.00000  Uiso   1.00
C409   C     0.37368   0.58713   0.26599   0.00000  Uiso   1.00
N410   N     0.38902   0.62182   0.27702   0.00000  Uiso   1.00
C411   C     0.75440   0.50019   0.25362   0.00000  Uiso   1.00
C412   C     0.91221   0.50011   0.24611   0.00000  Uiso   1.00
C413   C     0.83748   0.49982   0.16558   0.00000  Uiso   1.00
C414   C     0.82962   0.49992   0.33452   0.00000  Uiso   1.00
C415   C     0.80821   0.35820   0.21978   0.00000  Uiso   1.00
C416   C     0.85597   0.64196   0.28233   0.00000  Uiso   1.00
C417   C     0.85733   0.35834   0.28114   0.00000  Uiso   1.00
C418   C     0.80924   0.64160   0.21884   0.00000  Uiso   1.00
C419   C     0.68750   0.45935   0.25790   0.00000  Uiso   1.00
C420   C     0.97871   0.54297   0.24237   0.00000  Uiso   1.00
C421   C     0.97916   0.45887   0.24441   0.00000  Uiso   1.00
C422   C     0.68770   0.54343   0.25305   0.00000  Uiso   1.00
C423   C     0.85007   0.53827   0.04799   0.00000  Uiso   1.00
C424   C     0.83186   0.45659   0.45125   0.00000  Uiso   1.00
C425   C     0.82143   0.53935   0.45263   0.00000  Uiso   1.00
C426   C     0.83509   0.45642   0.04882   0.00000  Uiso   1.00
C427   C     0.85350   0.53886   0.09408   0.00000  Uiso   1.00
C428   C     0.82470   0.45682   0.40573   0.00000  Uiso   1.00
C429   C     0.81751   0.54015   0.40654   0.00000  Uiso   1.00
C430   C     0.84163   0.45627   0.09441   0.00000  Uiso   1.00
C431   C     0.84416   0.49860   0.11776   0.00000  Uiso   1.00
C432   C     0.82392   0.49918   0.38253   0.00000  Uiso   1.00
C433   C     0.83793   0.49773   0.02470   0.00000  Uiso   1.00
C434   C     0.83143   0.49800   0.47562   0.00000  Uiso   1.00
C435   C     0.95700   0.50066   0.24230   0.00000  Uiso   1.00
C436   C     0.70954   0.50113   0.25689   0.00000  Uiso   1.00
Cu437  Cu    0.83333   0.54689   0.25000   0.00000  Uiso   1.00
Cu438  Cu    0.83333   0.45311   0.25000   0.00000  Uiso   1.00
H439   H     0.85797   0.56935   0.03055   0.00000  Uiso   1.00
H440   H     0.83661   0.42321   0.46670   0.00000  Uiso   1.00
H441   H     0.81544   0.57092   0.47030   0.00000  Uiso   1.00
H442   H     0.82884   0.42337   0.03316   0.00000  Uiso   1.00
N443   N     0.83333   0.61736   0.25000   0.00000  Uiso   1.00
N444   N     0.83333   0.38264   0.25000   0.00000  Uiso   1.00
O445   O     0.77321   0.53958   0.25000   0.00000  Uiso   1.00
O446   O     0.89345   0.46042   0.25001   0.00000  Uiso   1.00
O447   O     0.89345   0.53958   0.25001   0.00000  Uiso   1.00
O448   O     0.77321   0.46042   0.25000   0.00000  Uiso   1.00
O449   O     0.83333   0.53959   0.18573   0.00000  Uiso   1.00
O450   O     0.83334   0.46041   0.31427   0.00000  Uiso   1.00
O451   O     0.83334   0.53959   0.31427   0.00000  Uiso   1.00
O452   O     0.83333   0.46041   0.18573   0.00000  Uiso   1.00
N453   N     0.78185   0.38333   0.18875   0.00000  Uiso   1.00
H454   H     0.79054   0.38305   0.15706   0.00000  Uiso   1.00
C455   C     0.73788   0.37846   0.19081   0.00000  Uiso   1.00
H456   H     0.72387   0.36097   0.16088   0.00000  Uiso   1.00
H457   H     0.72387   0.41336   0.19168   0.00000  Uiso   1.00
H458   H     0.73020   0.35819   0.21992   0.00000  Uiso   1.00
N459   N     0.87201   0.61848   0.32114   0.00000  Uiso   1.00
H460   H     0.86253   0.63205   0.34996   0.00000  Uiso   1.00
C461   C     0.91487   0.60521   0.32492   0.00000  Uiso   1.00
H462   H     0.93101   0.61740   0.29664   0.00000  Uiso   1.00
H463   H     0.91735   0.56695   0.32760   0.00000  Uiso   1.00
H464   H     0.93058   0.62015   0.35539   0.00000  Uiso   1.00
N465   N     0.88049   0.38325   0.31509   0.00000  Uiso   1.00
H466   H     0.87161   0.37688   0.34616   0.00000  Uiso   1.00
C467   C     0.92479   0.38303   0.31454   0.00000  Uiso   1.00
H468   H     0.93914   0.36725   0.34526   0.00000  Uiso   1.00
H469   H     0.93607   0.41921   0.31347   0.00000  Uiso   1.00
H470   H     0.93500   0.36327   0.28619   0.00000  Uiso   1.00
N471   N     0.78178   0.61623   0.18905   0.00000  Uiso   1.00
H472   H     0.75208   0.61392   0.19788   0.00000  Uiso   1.00
C473   C     0.78501   0.62138   0.14211   0.00000  Uiso   1.00
H474   H     0.75758   0.63918   0.12645   0.00000  Uiso   1.00
H475   H     0.78609   0.58658   0.12681   0.00000  Uiso   1.00
H476   H     0.81269   0.64123   0.13493   0.00000  Uiso   1.00
C477   C     0.87238   0.57878   0.11575   0.00000  Uiso   1.00
N478   N     0.88807   0.61068   0.13285   0.00000  Uiso   1.00
C479   C     0.81063   0.41405   0.38511   0.00000  Uiso   1.00
N480   N     0.79841   0.38000   0.36881   0.00000  Uiso   1.00
C481   C     0.80040   0.58116   0.38516   0.00000  Uiso   1.00
N482   N     0.78587   0.61363   0.36797   0.00000  Uiso   1.00
C483   C     0.85350   0.41274   0.11499   0.00000  Uiso   1.00
N484   N     0.86408   0.37811   0.13132   0.00000  Uiso   1.00
C485   C     0.70528   0.41918   0.28055   0.00000  Uiso   1.00
N486   N     0.71939   0.38755   0.29955   0.00000  Uiso   1.00
C487   C     0.95911   0.58522   0.22594   0.00000  Uiso   1.00
N488   N     0.94362   0.61896   0.21260   0.00000  Uiso   1.00
C489   C     0.96179   0.41751   0.22356   0.00000  Uiso   1.00
N490   N     0.94790   0.38498   0.20585   0.00000  Uiso   1.00
C491   C     0.70702   0.58713   0.26599   0.00000  Uiso   1.00
N492   N     0.72235   0.62182   0.27702   0.00000  Uiso   1.00
C493   C     0.08774   0.83353   0.25362   0.00000  Uiso   1.00
C494   C     0.24554   0.83344   0.24611   0.00000  Uiso   1.00
C495   C     0.17082   0.83315   0.16558   0.00000  Uiso   1.00
C496   C     0.16295   0.83325   0.33452   0.00000  Uiso   1.00
C497   C     0.14154   0.69154   0.21978   0.00000  Uiso   1.00
C498   C     0.18930   0.97530   0.28233   0.00000  Uiso   1.00
C499   C     0.19066   0.69167   0.28114   0.00000  Uiso   1.00
C500   C     0.14257   0.97493   0.21884   0.00000  Uiso   1.00
C501   C     0.02084   0.79268   0.25790   0.00000  Uiso   1.00
C502   C     0.31204   0.87630   0.24237   0.00000  Uiso   1.00
C503   C     0.31249   0.79220   0.24441   0.00000  Uiso   1.00
C504   C     0.02103   0.87677   0.25305   0.00000  Uiso   1.00
C505   C     0.18340   0.87160   0.04799   0.00000  Uiso   1.00
C506   C     0.16520   0.78992   0.45125   0.00000  Uiso   1.00
C507   C     0.15477   0.87268   0.45263   0.00000  Uiso   1.00
C508   C     0.16842   0.78975   0.04882   0.00000  Uiso   1.00
C509   C     0.18683   0.87219   0.09408   0.00000  Uiso   1.00
C510   C     0.15804   0.79016   0.40573   0.00000  Uiso   1.00
C511   C     0.15084   0.87349   0.40654   0.00000  Uiso   1.00
C512   C     0.17496   0.78961   0.09441   0.00000  Uiso   1.00
C513   C     0.17750   0.83193   0.11776   0.00000  Uiso   1.00
C514   C     0.15725   0.83251   0.38253   0.00000  Uiso   1.00
C515   C     0.17126   0.83106   0.02470   0.00000  Uiso   1.00
C516   C     0.16477   0.83134   0.47562   0.00000  Uiso   1.00
C517   C     0.29034   0.83399   0.24230   0.00000  Uiso   1.00
C518   C     0.04288   0.83447   0.25689   0.00000  Uiso   1.00
Cu519  Cu    0.16667   0.88022   0.25000   0.00000  Uiso   1.00
Cu520  Cu    0.16667   0.78645   0.25000   0.00000  Uiso   1.00
H521   H     0.19130   0.90268   0.03055   0.00000  Uiso   1.00
H522   H     0.16994   0.75654   0.46670   0.00000  Uiso   1.00
H523   H     0.14877   0.90426   0.47030   0.00000  Uiso   1.00
H524   H     0.16217   0.75670   0.03316   0.00000  Uiso   1.00
N525   N     0.16667   0.95069   0.25000   0.00000  Uiso   1.00
N526   N     0.16667   0.71598   0.25000   0.00000  Uiso   1.00
O527   O     0.10655   0.87291   0.25000   0.00000  Uiso   1.00
O528   O     0.22679   0.79375   0.25001   0.00000  Uiso   1.00
O529   O     0.22679   0.87291   0.25001   0.00000  Uiso   1.00
O530   O     0.10655   0.79375   0.25000   0.00000  Uiso   1.00
O531   O     0.16666   0.87293   0.18573   0.00000  Uiso   1.00
O532   O     0.16667   0.79374   0.31427   0.00000  Uiso   1.00
O533   O     0.16667   0.87293   0.31427   0.00000  Uiso   1.00
O534   O     0.16666   0.79374   0.18573   0.00000  Uiso   1.00
N535   N     0.11518   0.71666   0.18875   0.00000  Uiso   1.00
H536   H     0.12388   0.71638   0.15706   0.00000  Uiso   1.00
C537   C     0.07121   0.71179   0.19081   0.00000  Uiso   1.00
H538   H     0.05720   0.69430   0.16088   0.00000  Uiso   1.00
H539   H     0.05720   0.74670   0.19168   0.00000  Uiso   1.00
H540   H     0.06353   0.69152   0.21992   0.00000  Uiso   1.00
N541   N     0.20534   0.95181   0.32114   0.00000  Uiso   1.00
H542   H     0.19586   0.96539   0.34996   0.00000  Uiso   1.00
C543   C     0.24821   0.93854   0.32492   0.00000  Uiso   1.00
H544   H     0.26434   0.95073   0.29664   0.00000  Uiso   1.00
H545   H     0.25068   0.90028   0.32760   0.00000  Uiso   1.00
H546   H     0.26391   0.95348   0.35539   0.00000  Uiso   1.00
N547   N     0.21382   0.71659   0.31509   0.00000  Uiso   1.00
H548   H     0.20494   0.71022   0.34616   0.00000  Uiso   1.00
C549   C     0.25813   0.71636   0.31454   0.00000  Uiso   1.00
H550   H     0.27247   0.70058   0.34526   0.00000  Uiso   1.00
H551   H     0.26940   0.75255   0.31347   0.00000  Uiso   1.00
H552   H     0.26833   0.69661   0.28619   0.00000  Uiso   1.00
N553   N     0.11512   0.94956   0.18905   0.00000  Uiso   1.00
H554   H     0.08541   0.94725   0.19788   0.00000  Uiso   1.00
C555   C     0.11835   0.95471   0.14211   0.00000  Uiso   1.00
H556   H     0.09092   0.97252   0.12645   0.00000  Uiso   1.00
H557   H     0.11942   0.91991   0.12681   0.00000  Uiso   1.00
H558   H     0.14602   0.97456   0.13493   0.00000  Uiso   1.00
C559   C     0.20572   0.91212   0.11575   0.00000  Uiso   1.00
N560   N     0.22141   0.94401   0.13285   0.00000  Uiso   1.00
C561   C     0.14396   0.74738   0.38511   0.00000  Uiso   1.00
N562   N     0.13175   0.71333   0.36881   0.00000  Uiso   1.00
C563   C     0.13373   0.91450   0.38516   0.00000  Uiso   1.00
N564   N     0.11921   0.94696   0.36797   0.00000  Uiso   1.00
C565   C     0.18684   0.74607   0.11499   0.00000  Uiso   1.00
N566   N     0.19742   0.71144   0.13132   0.00000  Uiso   1.00
C567   C     0.03861   0.75251   0.28055   0.00000  Uiso   1.00
N568   N     0.05272   0.72088   0.29955   0.00000  Uiso   1.00
C569   C     0.29244   0.91856   0.22594   0.00000  Uiso   1.00
N570   N     0.27695   0.95230   0.21260   0.00000  Uiso   1.00
C571   C     0.29512   0.75085   0.22356   0.00000  Uiso   1.00
N572   N     0.28123   0.71831   0.20585   0.00000  Uiso   1.00
C573   C     0.04035   0.92046   0.26599   0.00000  Uiso   1.00
N574   N     0.05569   0.95515   0.27702   0.00000  Uiso   1.00
C575   C     0.42107   0.83353   0.25362   0.00000  Uiso   1.00
C576   C     0.57887   0.83344   0.24611   0.00000  Uiso   1.00
C577   C     0.50415   0.83315   0.16558   0.00000  Uiso   1.00
C578   C     0.49629   0.83325   0.33452   0.00000  Uiso   1.00
C579   C     0.47488   0.69154   0.21978   0.00000  Uiso   1.00
C580   C     0.52264   0.97530   0.28233   0.00000  Uiso   1.00
C581   C     0.52400   0.69167   0.28114   0.00000  Uiso   1.00
C582   C     0.47591   0.97493   0.21884   0.00000  Uiso   1.00
C583   C     0.35417   0.79268   0.25790   0.00000  Uiso   1.00
C584   C     0.64537   0.87630   0.24237   0.00000  Uiso   1.00
C585   C     0.64582   0.79220   0.24441   0.00000  Uiso   1.00
C586   C     0.35436   0.87677   0.25305   0.00000  Uiso   1.00
C587   C     0.51673   0.87160   0.04799   0.00000  Uiso   1.00
C588   C     0.49853   0.78992   0.45125   0.00000  Uiso   1.00
C589   C     0.48810   0.87268   0.45263   0.00000  Uiso   1.00
C590   C     0.50175   0.78975   0.04882   0.00000  Uiso   1.00
C591   C     0.52017   0.87219   0.09408   0.00000  Uiso   1.00
C592   C     0.49137   0.79016   0.40573   0.00000  Uiso   1.00
C593   C     0.48417   0.87349   0.40654   0.00000  Uiso   1.00
C594   C     0.50830   0.78961   0.09441   0.00000  Uiso   1.00
C595   C     0.51083   0.83193   0.11776   0.00000  Uiso   1.00
C596   C     0.49059   0.83251   0.38253   0.00000  Uiso   1.00
C597   C     0.50459   0.83106   0.02470   0.00000  Uiso   1.00
C598   C     0.49810   0.83134   0.47562   0.00000  Uiso   1.00
C599   C     0.62367   0.83399   0.24230   0.00000  Uiso   1.00
C600   C     0.37621   0.83447   0.25689   0.00000  Uiso   1.00
Cu601  Cu    0.50000   0.88022   0.25000   0.00000  Uiso   1.00
Cu602  Cu    0.50000   0.78645   0.25000   0.00000  Uiso   1.00
H603   H     0.52464   0.90268   0.03055   0.00000  Uiso   1.00
H604   H     0.50328   0.75654   0.46670   0.00000  Uiso   1.00
H605   H     0.48211   0.90426   0.47030   0.00000  Uiso   1.00
H606   H     0.49550   0.75670   0.03316   0.00000  Uiso   1.00
N607   N     0.50000   0.95069   0.25000   0.00000  Uiso   1.00
N608   N     0.50000   0.71598   0.25000   0.00000  Uiso   1.00
O609   O     0.43988   0.87291   0.25000   0.00000  Uiso   1.00
O610   O     0.56012   0.79375   0.25001   0.00000  Uiso   1.00
O611   O     0.56012   0.87291   0.25001   0.00000  Uiso   1.00
O612   O     0.43988   0.79375   0.25000   0.00000  Uiso   1.00
O613   O     0.50000   0.87293   0.18573   0.00000  Uiso   1.00
O614   O     0.50000   0.79374   0.31427   0.00000  Uiso   1.00
O615   O     0.50000   0.87293   0.31427   0.00000  Uiso   1.00
O616   O     0.50000   0.79374   0.18573   0.00000  Uiso   1.00
N617   N     0.44851   0.71666   0.18875   0.00000  Uiso   1.00
H618   H     0.45721   0.71638   0.15706   0.00000  Uiso   1.00
C619   C     0.40454   0.71179   0.19081   0.00000  Uiso   1.00
H620   H     0.39054   0.69430   0.16088   0.00000  Uiso   1.00
H621   H     0.39053   0.74670   0.19168   0.00000  Uiso   1.00
H622   H     0.39686   0.69152   0.21992   0.00000  Uiso   1.00
N623   N     0.53868   0.95181   0.32114   0.00000  Uiso   1.00
H624   H     0.52920   0.96539   0.34996   0.00000  Uiso   1.00
C625   C     0.58154   0.93854   0.32492   0.00000  Uiso   1.00
H626   H     0.59767   0.95073   0.29664   0.00000  Uiso   1.00
H627   H     0.58401   0.90028   0.32760   0.00000  Uiso   1.00
H628   H     0.59724   0.95348   0.35539   0.00000  Uiso   1.00
N629   N     0.54716   0.71659   0.31509   0.00000  Uiso   1.00
H630   H     0.53827   0.71022   0.34616   0.00000  Uiso   1.00
C631   C     0.59146   0.71636   0.31454   0.00000  Uiso   1.00
H632   H     0.60580   0.70058   0.34526   0.00000  Uiso   1.00
H633   H     0.60274   0.75255   0.31347   0.00000  Uiso   1.00
H634   H     0.60166   0.69661   0.28619   0.00000  Uiso   1.00
N635   N     0.44845   0.94956   0.18905   0.00000  Uiso   1.00
H636   H     0.41875   0.94725   0.19788   0.00000  Uiso   1.00
C637   C     0.45168   0.95471   0.14211   0.00000  Uiso   1.00
H638   H     0.42425   0.97252   0.12645   0.00000  Uiso   1.00
H639   H     0.45275   0.91991   0.12681   0.00000  Uiso   1.00
H640   H     0.47936   0.97456   0.13493   0.00000  Uiso   1.00
C641   C     0.53905   0.91212   0.11575   0.00000  Uiso   1.00
N642   N     0.55474   0.94401   0.13285   0.00000  Uiso   1.00
C643   C     0.47730   0.74738   0.38511   0.00000  Uiso   1.00
N644   N     0.46508   0.71333   0.36881   0.00000  Uiso   1.00
C645   C     0.46706   0.91450   0.38516   0.00000  Uiso   1.00
N646   N     0.45254   0.94696   0.36797   0.00000  Uiso   1.00
C647   C     0.52017   0.74607   0.11499   0.00000  Uiso   1.00
N648   N     0.53075   0.71144   0.13132   0.00000  Uiso   1.00
C649   C     0.37194   0.75251   0.28055   0.00000  Uiso   1.00
N650   N     0.38606   0.72088   0.29955   0.00000  Uiso   1.00
C651   C     0.62578   0.91856   0.22594   0.00000  Uiso   1.00
N652   N     0.61029   0.95230   0.21260   0.00000  Uiso   1.00
C653   C     0.62845   0.75085   0.22356   0.00000  Uiso   1.00
N654   N     0.61456   0.71831   0.20585   0.00000  Uiso   1.00
C655   C     0.37368   0.92046   0.26599   0.00000  Uiso   1.00
N656   N     0.38902   0.95515   0.27702   0.00000  Uiso   1.00
C657   C     0.75440   0.83353   0.25362   0.00000  Uiso   1.00
C658   C     0.91221   0.83344   0.24611   0.00000  Uiso   1.00
C659   C     0.83748   0.83315   0.16558   0.00000  Uiso   1.00
C660   C     0.82962   0.83325   0.33452   0.00000  Uiso   1.00
C661   C     0.80821   0.69154   0.21978   0.00000  Uiso   1.00
C662   C     0.85597   0.97530   0.28233   0.00000  Uiso   1.00
C663   C     0.85733   0.69167   0.28114   0.00000  Uiso   1.00
C664   C     0.80924   0.97493   0.21884   0.00000  Uiso   1.00
C665   C     0.68750   0.79268   0.25790   0.00000  Uiso   1.00
C666   C     0.97871   0.87630   0.24237   0.00000  Uiso   1.00
C667   C     0.97916   0.79220   0.24441   0.00000  Uiso   1.00
C668   C     0.68770   0.87677   0.25305   0.00000  Uiso   1.00
C669   C     0.85007   0.87160   0.04799   0.00000  Uiso   1.00
C670   C     0.83186   0.78992   0.45125   0.00000  Uiso   1.00
C671   C     0.82143   0.87268   0.45263   0.00000  Uiso   1.00
C672   C     0.83509   0.78975   0.04882   0.00000  Uiso   1.00
C673   C     0.85350   0.87219   0.09408   0.00000  Uiso   1.00
C674   C     0.82470   0.79016   0.40573   0.00000  Uiso   1.00
C675   C     0.81751   0.87349   0.40654   0.00000  Uiso   1.00
C676   C     0.84163   0.78961   0.09441   0.00000  Uiso   1.00
C677   C     0.84416   0.83193   0.11776   0.00000  Uiso   1.00
C678   C     0.82392   0.83251   0.38253   0.00000  Uiso   1.00
C679   C     0.83793   0.83106   0.02470   0.00000  Uiso   1.00
C680   C     0.83143   0.83134   0.47562   0.00000  Uiso   1.00
C681   C     0.95700   0.83399   0.24230   0.00000  Uiso   1.00
C682   C     0.70954   0.83447   0.25689   0.00000  Uiso   1.00
Cu683  Cu    0.83333   0.88022   0.25000   0.00000  Uiso   1.00
Cu684  Cu    0.83333   0.78645   0.25000   0.00000  Uiso   1.00
H685   H     0.85797   0.90268   0.03055   0.00000  Uiso   1.00
H686   H     0.83661   0.75654   0.46670   0.00000  Uiso   1.00
H687   H     0.81544   0.90426   0.47030   0.00000  Uiso   1.00
H688   H     0.82884   0.75670   0.03316   0.00000  Uiso   1.00
N689   N     0.83333   0.95069   0.25000   0.00000  Uiso   1.00
N690   N     0.83333   0.71598   0.25000   0.00000  Uiso   1.00
O691   O     0.77321   0.87291   0.25000   0.00000  Uiso   1.00
O692   O     0.89345   0.79375   0.25001   0.00000  Uiso   1.00
O693   O     0.89345   0.87291   0.25001   0.00000  Uiso   1.00
O694   O     0.77321   0.79375   0.25000   0.00000  Uiso   1.00
O695   O     0.83333   0.87293   0.18573   0.00000  Uiso   1.00
O696   O     0.83334   0.79374   0.31427   0.00000  Uiso   1.00
O697   O     0.83334   0.87293   0.31427   0.00000  Uiso   1.00
O698   O     0.83333   0.79374   0.18573   0.00000  Uiso   1.00
N699   N     0.78185   0.71666   0.18875   0.00000  Uiso   1.00
H700   H     0.79054   0.71638   0.15706   0.00000  Uiso   1.00
C701   C     0.73788   0.71179   0.19081   0.00000  Uiso   1.00
H702   H     0.72387   0.69430   0.16088   0.00000  Uiso   1.00
H703   H     0.72387   0.74670   0.19168   0.00000  Uiso   1.00
H704   H     0.73020   0.69152   0.21992   0.00000  Uiso   1.00
N705   N     0.87201   0.95181   0.32114   0.00000  Uiso   1.00
H706   H     0.86253   0.96539   0.34996   0.00000  Uiso   1.00
C707   C     0.91487   0.93854   0.32492   0.00000  Uiso   1.00
H708   H     0.93101   0.95073   0.29664   0.00000  Uiso   1.00
H709   H     0.91735   0.90028   0.32760   0.00000  Uiso   1.00
H710   H     0.93058   0.95348   0.35539   0.00000  Uiso   1.00
N711   N     0.88049   0.71659   0.31509   0.00000  Uiso   1.00
H712   H     0.87161   0.71022   0.34616   0.00000  Uiso   1.00
C713   C     0.92479   0.71636   0.31454   0.00000  Uiso   1.00
H714   H     0.93914   0.70058   0.34526   0.00000  Uiso   1.00
H715   H     0.93607   0.75255   0.31347   0.00000  Uiso   1.00
H716   H     0.93500   0.69661   0.28619   0.00000  Uiso   1.00
N717   N     0.78178   0.94956   0.18905   0.00000  Uiso   1.00
H718   H     0.75208   0.94725   0.19788   0.00000  Uiso   1.00
C719   C     0.78501   0.95471   0.14211   0.00000  Uiso   1.00
H720   H     0.75758   0.97252   0.12645   0.00000  Uiso   1.00
H721   H     0.78609   0.91991   0.12681   0.00000  Uiso   1.00
H722   H     0.81269   0.97456   0.13493   0.00000  Uiso   1.00
C723   C     0.87238   0.91212   0.11575   0.00000  Uiso   1.00
N724   N     0.88807   0.94401   0.13285   0.00000  Uiso   1.00
C725   C     0.81063   0.74738   0.38511   0.00000  Uiso   1.00
N726   N     0.79841   0.71333   0.36881   0.00000  Uiso   1.00
C727   C     0.80040   0.91450   0.38516   0.00000  Uiso   1.00
N728   N     0.78587   0.94696   0.36797   0.00000  Uiso   1.00
C729   C     0.85350   0.74607   0.11499   0.00000  Uiso   1.00
N730   N     0.86408   0.71144   0.13132   0.00000  Uiso   1.00
C731   C     0.70528   0.75251   0.28055   0.00000  Uiso   1.00
N732   N     0.71939   0.72088   0.29955   0.00000  Uiso   1.00
C733   C     0.95911   0.91856   0.22594   0.00000  Uiso   1.00
N734   N     0.94362   0.95230   0.21260   0.00000  Uiso   1.00
C735   C     0.96179   0.75085   0.22356   0.00000  Uiso   1.00
N736   N     0.94790   0.71831   0.20585   0.00000  Uiso   1.00
C737   C     0.70702   0.92046   0.26599   0.00000  Uiso   1.00
N738   N     0.72235   0.95515   0.27702   0.00000  Uiso   1.00
C739   C     0.08774   0.16686   0.75362   0.00000  Uiso   1.00
C740   C     0.24554   0.16678   0.74611   0.00000  Uiso   1.00
C741   C     0.17082   0.16649   0.66558   0.00000  Uiso   1.00
C742   C     0.16295   0.16658   0.83452   0.00000  Uiso   1.00
C743   C     0.14154   0.02487   0.71978   0.00000  Uiso   1.00
C744   C     0.18930   0.30863   0.78233   0.00000  Uiso   1.00
C745   C     0.19066   0.02501   0.78114   0.00000  Uiso   1.00
C746   C     0.14257   0.30826   0.71884   0.00000  Uiso   1.00
C747   C     0.02084   0.12602   0.75790   0.00000  Uiso   1.00
C748   C     0.31204   0.20963   0.74237   0.00000  Uiso   1.00
C749   C     0.31249   0.12554   0.74441   0.00000  Uiso   1.00
C750   C     0.02103   0.21010   0.75305   0.00000  Uiso   1.00
C751   C     0.18340   0.20493   0.54799   0.00000  Uiso   1.00
C752   C     0.16520   0.12325   0.95125   0.00000  Uiso   1.00
C753   C     0.15477   0.20601   0.95263   0.00000  Uiso   1.00
C754   C     0.16842   0.12309   0.54882   0.00000  Uiso   1.00
C755   C     0.18683   0.20553   0.59408   0.00000  Uiso   1.00
C756   C     0.15804   0.12349   0.90573   0.00000  Uiso   1.00
C757   C     0.15084   0.20682   0.90654   0.00000  Uiso   1.00
C758   C     0.17496   0.12294   0.59441   0.00000  Uiso   1.00
C759   C     0.17750   0.16527   0.61776   0.00000  Uiso   1.00
C760   C     0.15725   0.16585   0.88253   0.00000  Uiso   1.00
C761   C     0.17126   0.16439   0.52470   0.00000  Uiso   1.00
C762   C     0.16477   0.16467   0.97562   0.00000  Uiso   1.00
C763   C     0.29034   0.16732   0.74230   0.00000  Uiso   1.00
C764   C     0.04288   0.16780   0.75689   0.00000  Uiso   1.00
Cu765  Cu    0.16667   0.21355   0.75000   0.00000  Uiso   1.00
Cu766  Cu    0.16667   0.11978   0.75000   0.00000  Uiso   1.00
H767   H     0.19130   0.23601   0.53055   0.00000  Uiso   1.00
H768   H     0.16994   0.08987   0.96670   0.00000  Uiso   1.00
H769   H     0.14877   0.23759   0.97030   0.00000  Uiso   1.00
H770   H     0.16217   0.09004   0.53316   0.00000  Uiso   1.00
N771   N     0.16667   0.28402   0.75000   0.00000  Uiso   1.00
N772   N     0.16667   0.04931   0.75000   0.00000  Uiso   1.00
O773   O     0.10655   0.20625   0.75000   0.00000  Uiso   1.00
O774   O     0.22679   0.12709   0.75001   0.00000  Uiso   1.00
O775   O     0.22679   0.20625   0.75001   0.00000  Uiso   1.00
O776   O     0.10655   0.12709   0.75000   0.00000  Uiso   1.00
O777   O     0.16666   0.20626   0.68573   0.00000  Uiso   1.00
O778   O     0.16667   0.12707   0.81427   0.00000  Uiso   1.00
O779   O     0.16667   0.20626   0.81427   0.00000  Uiso   1.00
O780   O     0.16666   0.12707   0.68573   0.00000  Uiso   1.00
N781   N     0.11518   0.05000   0.68875   0.00000  Uiso   1.00
H782   H     0.12388   0.04972   0.65706   0.00000  Uiso   1.00
C783   C     0.07121   0.04512   0.69081   0.00000  Uiso   1.00
H784   H     0.05720   0.02764   0.66088   0.00000  Uiso   1.00
H785   H     0.05720   0.08003   0.69168   0.00000  Uiso   1.00
H786   H     0.06353   0.02486   0.71992   0.00000  Uiso   1.00
N787   N     0.20534   0.28515   0.82114   0.00000  Uiso   1.00
H788   H     0.19586   0.29872   0.84996   0.00000  Uiso   1.00
C789   C     0.24821   0.27188   0.82492   0.00000  Uiso   1.00
H790   H     0.26434   0.28407   0.79664   0.00000  Uiso   1.00
H791   H     0.25068   0.23362   0.82760   0.00000  Uiso   1.00
H792   H     0.26391   0.28681   0.85539   0.00000  Uiso   1.00
N793   N     0.21382   0.04992   0.81509   0.00000  Uiso   1.00
H794   H     0.20494   0.04355   0.84616   0.00000  Uiso   1.00
C795   C     0.25813   0.04969   0.81454   0.00000  Uiso   1.00
H796   H     0.27247   0.03391   0.84526   0.00000  Uiso   1.00
H797   H     0.26940   0.08588   0.81347   0.00000  Uiso   1.00
H798   H     0.26833   0.02994   0.78619   0.00000  Uiso   1.00
N799   N     0.11512   0.28289   0.68905   0.00000  Uiso   1.00
H800   H     0.08541   0.28059   0.69788   0.00000  Uiso   1.00
C801   C     0.11835   0.28805   0.64211   0.00000  Uiso   1.00
H802   H     0.09092   0.30585   0.62645   0.00000  Uiso   1.00
H803   H     0.11942   0.25325   0.62681   0.00000  Uiso   1.00
H804   H     0.14602   0.30789   0.63493   0.00000  Uiso   1.00
C805   C     0.20572   0.24545   0.61575   0.00000  Uiso   1.00
N806   N     0.22141   0.27735   0.63285   0.00000  Uiso   1.00
C807   C     0.14396   0.08071   0.88511   0.00000  Uiso   1.00
N808   N     0.13175   0.04667   0.86881   0.00000  Uiso   1.00
C809   C     0.13373   0.24783   0.88516   0.00000  Uiso   1.00
N810   N     0.11921   0.28030   0.86797   0.00000  Uiso   1.00
C811   C     0.18684   0.07941   0.61499   0.00000  Uiso   1.00
N812   N     0.19742   0.04477   0.63132   0.00000  Uiso   1.00
C813   C     0.03861   0.08585   0.78055   0.00000  Uiso   1.00
N814   N     0.05272   0.05421   0.79955   0.00000  Uiso   1.00
C815   C     0.29244   0.25189   0.72594   0.00000  Uiso   1.00
N816   N     0.27695   0.28563   0.71260   0.00000  Uiso   1.00
C817   C     0.29512   0.08418   0.72356   0.00000  Uiso   1.00
N818   N     0.28123   0.05165   0.70585   0.00000  Uiso   1.00
C819   C     0.04035   0.25380   0.76599   0.00000  Uiso   1.00
N820   N     0.05569   0.28848   0.77702   0.00000  Uiso   1.00
C821   C     0.42107   0.16686   0.75362   0.00000  Uiso   1.00
C822   C     0.57887   0.16678   0.74611   0.00000  Uiso   1.00
C823   C     0.50415   0.16649   0.66558   0.00000  Uiso   1.00
C824   C     0.49629   0.16658   0.83452   0.00000  Uiso   1.00
C825   C     0.47488   0.02487   0.71978   0.00000  Uiso   1.00
C826   C     0.52264   0.30863   0.78233   0.00000  Uiso   1.00
C827   C     0.52400   0.02501   0.78114   0.00000  Uiso   1.00
C828   C     0.47591   0.30826   0.71884   0.00000  Uiso   1.00
C829   C     0.35417   0.12602   0.75790   0.00000  Uiso   1.00
C830   C     0.64537   0.20963   0.74237   0.00000  Uiso   1.00
C831   C     0.64582   0.12554   0.74441   0.00000  Uiso   1.00
C832   C     0.35436   0.21010   0.75305   0.00000  Uiso   1.00
C833   C     0.51673   0.20493   0.54799   0.00000  Uiso   1.00
C834   C     0.49853   0.12325   0.95125   0.00000  Uiso   1.00
C835   C     0.48810   0.20601   0.95263   0.00000  Uiso   1.00
C836   C     0.50175   0.12309   0.54882   0.00000  Uiso   1.00
C837   C     0.52017   0.20553   0.59408   0.00000  Uiso   1.00
C838   C     0.49137   0.12349   0.90573   0.00000  Uiso   1.00
C839   C     0.48417   0.20682   0.90654   0.00000  Uiso   1.00
C840   C     0.50830   0.12294   0.59441   0.00000  Uiso   1.00
C841   C     0.51083   0.16527   0.61776   0.00000  Uiso   1.00
C842   C     0.49059   0.16585   0.88253   0.00000  Uiso   1.00
C843   C     0.50459   0.16439   0.52470   0.00000  Uiso   1.00
C844   C     0.49810   0.16467   0.97562   0.00000  Uiso   1.00
C845   C     0.62367   0.16732   0.74230   0.00000  Uiso   1.00
C846   C     0.37621   0.16780   0.75689   0.00000  Uiso   1.00
Cu847  Cu    0.50000   0.21355   0.75000   0.00000  Uiso   1.00
Cu848  Cu    0.50000   0.11978   0.75000   0.00000  Uiso   1.00
H849   H     0.52464   0.23601   0.53055   0.00000  Uiso   1.00
H850   H     0.50328   0.08987   0.96670   0.00000  Uiso   1.00
H851   H     0.48211   0.23759   0.97030   0.00000  Uiso   1.00
H852   H     0.49550   0.09004   0.53316   0.00000  Uiso   1.00
N853   N     0.50000   0.28402   0.75000   0.00000  Uiso   1.00
N854   N     0.50000   0.04931   0.75000   0.00000  Uiso   1.00
O855   O     0.43988   0.20625   0.75000   0.00000  Uiso   1.00
O856   O     0.56012   0.12709   0.75001   0.00000  Uiso   1.00
O857   O     0.56012   0.20625   0.75001   0.00000  Uiso   1.00
O858   O     0.43988   0.12709   0.75000   0.00000  Uiso   1.00
O859   O     0.50000   0.20626   0.68573   0.00000  Uiso   1.00
O860   O     0.50000   0.12707   0.81427   0.00000  Uiso   1.00
O861   O     0.50000   0.20626   0.81427   0.00000  Uiso   1.00
O862   O     0.50000   0.12707   0.68573   0.00000  Uiso   1.00
N863   N     0.44851   0.05000   0.68875   0.00000  Uiso   1.00
H864   H     0.45721   0.04972   0.65706   0.00000  Uiso   1.00
C865   C     0.40454   0.04512   0.69081   0.00000  Uiso   1.00
H866   H     0.39054   0.02764   0.66088   0.00000  Uiso   1.00
H867   H     0.39053   0.08003   0.69168   0.00000  Uiso   1.00
H868   H     0.39686   0.02486   0.71992   0.00000  Uiso   1.00
N869   N     0.53868   0.28515   0.82114   0.00000  Uiso   1.00
H870   H     0.52920   0.29872   0.84996   0.00000  Uiso   1.00
C871   C     0.58154   0.27188   0.82492   0.00000  Uiso   1.00
H872   H     0.59767   0.28407   0.79664   0.00000  Uiso   1.00
H873   H     0.58401   0.23362   0.82760   0.00000  Uiso   1.00
H874   H     0.59724   0.28681   0.85539   0.00000  Uiso   1.00
N875   N     0.54716   0.04992   0.81509   0.00000  Uiso   1.00
H876   H     0.53827   0.04355   0.84616   0.00000  Uiso   1.00
C877   C     0.59146   0.04969   0.81454   0.00000  Uiso   1.00
H878   H     0.60580   0.03391   0.84526   0.00000  Uiso   1.00
H879   H     0.60274   0.08588   0.81347   0.00000  Uiso   1.00
H880   H     0.60166   0.02994   0.78619   0.00000  Uiso   1.00
N881   N     0.44845   0.28289   0.68905   0.00000  Uiso   1.00
H882   H     0.41875   0.28059   0.69788   0.00000  Uiso   1.00
C883   C     0.45168   0.28805   0.64211   0.00000  Uiso   1.00
H884   H     0.42425   0.30585   0.62645   0.00000  Uiso   1.00
H885   H     0.45275   0.25325   0.62681   0.00000  Uiso   1.00
H886   H     0.47936   0.30789   0.63493   0.00000  Uiso   1.00
C887   C     0.53905   0.24545   0.61575   0.00000  Uiso   1.00
N888   N     0.55474   0.27735   0.63285   0.00000  Uiso   1.00
C889   C     0.47730   0.08071   0.88511   0.00000  Uiso   1.00
N890   N     0.46508   0.04667   0.86881   0.00000  Uiso   1.00
C891   C     0.46706   0.24783   0.88516   0.00000  Uiso   1.00
N892   N     0.45254   0.28030   0.86797   0.00000  Uiso   1.00
C893   C     0.52017   0.07941   0.61499   0.00000  Uiso   1.00
N894   N     0.53075   0.04477   0.63132   0.00000  Uiso   1.00
C895   C     0.37194   0.08585   0.78055   0.00000  Uiso   1.00
N896   N     0.38606   0.05421   0.79955   0.00000  Uiso   1.00
C897   C     0.62578   0.25189   0.72594   0.00000  Uiso   1.00
N898   N     0.61029   0.28563   0.71260   0.00000  Uiso   1.00
C899   C     0.62845   0.08418   0.72356   0.00000  Uiso   1.00
N900   N     0.61456   0.05165   0.70585   0.00000  Uiso   1.00
C901   C     0.37368   0.25380   0.76599   0.00000  Uiso   1.00
N902   N     0.38902   0.28848   0.77702   0.00000  Uiso   1.00
C903   C     0.75440   0.16686   0.75362   0.00000  Uiso   1.00
C904   C     0.91221   0.16678   0.74611   0.00000  Uiso   1.00
C905   C     0.83748   0.16649   0.66558   0.00000  Uiso   1.00
C906   C     0.82962   0.16658   0.83452   0.00000  Uiso   1.00
C907   C     0.80821   0.02487   0.71978   0.00000  Uiso   1.00
C908   C     0.85597   0.30863   0.78233   0.00000  Uiso   1.00
C909   C     0.85733   0.02501   0.78114   0.00000  Uiso   1.00
C910   C     0.80924   0.30826   0.71884   0.00000  Uiso   1.00
C911   C     0.68750   0.12602   0.75790   0.00000  Uiso   1.00
C912   C     0.97871   0.20963   0.74237   0.00000  Uiso   1.00
C913   C     0.97916   0.12554   0.74441   0.00000  Uiso   1.00
C914   C     0.68770   0.21010   0.75305   0.00000  Uiso   1.00
C915   C     0.85007   0.20493   0.54799   0.00000  Uiso   1.00
C916   C     0.83186   0.12325   0.95125   0.00000  Uiso   1.00
C917   C     0.82143   0.20601   0.95263   0.00000  Uiso   1.00
C918   C     0.83509   0.12309   0.54882   0.00000  Uiso   1.00
C919   C     0.85350   0.20553   0.59408   0.00000  Uiso   1.00
C920   C     0.82470   0.12349   0.90573   0.00000  Uiso   1.00
C921   C     0.81751   0.20682   0.90654   0.00000  Uiso   1.00
C922   C     0.84163   0.12294   0.59441   0.00000  Uiso   1.00
C923   C     0.84416   0.16527   0.61776   0.00000  Uiso   1.00
C924   C     0.82392   0.16585   0.88253   0.00000  Uiso   1.00
C925   C     0.83793   0.16439   0.52470   0.00000  Uiso   1.00
C926   C     0.83143   0.16467   0.97562   0.00000  Uiso   1.00
C927   C     0.95700   0.16732   0.74230   0.00000  Uiso   1.00
C928   C     0.70954   0.16780   0.75689   0.00000  Uiso   1.00
Cu929  Cu    0.83333   0.21355   0.75000   0.00000  Uiso   1.00
Cu930  Cu    0.83333   0.11978   0.75000   0.00000  Uiso   1.00
H931   H     0.85797   0.23601   0.53055   0.00000  Uiso   1.00
H932   H     0.83661   0.08987   0.96670   0.00000  Uiso   1.00
H933   H     0.81544   0.23759   0.97030   0.00000  Uiso   1.00
H934   H     0.82884   0.09004   0.53316   0.00000  Uiso   1.00
N935   N     0.83333   0.28402   0.75000   0.00000  Uiso   1.00
N936   N     0.83333   0.04931   0.75000   0.00000  Uiso   1.00
O937   O     0.77321   0.20625   0.75000   0.00000  Uiso   1.00
O938   O     0.89345   0.12709   0.75001   0.00000  Uiso   1.00
O939   O     0.89345   0.20625   0.75001   0.00000  Uiso   1.00
O940   O     0.77321   0.12709   0.75000   0.00000  Uiso   1.00
O941   O     0.83333   0.20626   0.68573   0.00000  Uiso   1.00
O942   O     0.83334   0.12707   0.81427   0.00000  Uiso   1.00
O943   O     0.83334   0.20626   0.81427   0.00000  Uiso   1.00
O944   O     0.83333   0.12707   0.68573   0.00000  Uiso   1.00
N945   N     0.78185   0.05000   0.68875   0.00000  Uiso   1.00
H946   H     0.79054   0.04972   0.65706   0.00000  Uiso   1.00
C947   C     0.73788   0.04512   0.69081   0.00000  Uiso   1.00
H948   H     0.72387   0.02764   0.66088   0.00000  Uiso   1.00
H949   H     0.72387   0.08003   0.69168   0.00000  Uiso   1.00
H950   H     0.73020   0.02486   0.71992   0.00000  Uiso   1.00
N951   N     0.87201   0.28515   0.82114   0.00000  Uiso   1.00
H952   H     0.86253   0.29872   0.84996   0.00000  Uiso   1.00
C953   C     0.91487   0.27188   0.82492   0.00000  Uiso   1.00
H954   H     0.93101   0.28407   0.79664   0.00000  Uiso   1.00
H955   H     0.91735   0.23362   0.82760   0.00000  Uiso   1.00
H956   H     0.93058   0.28681   0.85539   0.00000  Uiso   1.00
N957   N     0.88049   0.04992   0.81509   0.00000  Uiso   1.00
H958   H     0.87161   0.04355   0.84616   0.00000  Uiso   1.00
C959   C     0.92479   0.04969   0.81454   0.00000  Uiso   1.00
H960   H     0.93914   0.03391   0.84526   0.00000  Uiso   1.00
H961   H     0.93607   0.08588   0.81347   0.00000  Uiso   1.00
H962   H     0.93500   0.02994   0.78619   0.00000  Uiso   1.00
N963   N     0.78178   0.28289   0.68905   0.00000  Uiso   1.00
H964   H     0.75208   0.28059   0.69788   0.00000  Uiso   1.00
C965   C     0.78501   0.28805   0.64211   0.00000  Uiso   1.00
H966   H     0.75758   0.30585   0.62645   0.00000  Uiso   1.00
H967   H     0.78609   0.25325   0.62681   0.00000  Uiso   1.00
H968   H     0.81269   0.30789   0.63493   0.00000  Uiso   1.00
C969   C     0.87238   0.24545   0.61575   0.00000  Uiso   1.00
N970   N     0.88807   0.27735   0.63285   0.00000  Uiso   1.00
C971   C     0.81063   0.08071   0.88511   0.00000  Uiso   1.00
N972   N     0.79841   0.04667   0.86881   0.00000  Uiso   1.00
C973   C     0.80040   0.24783   0.88516   0.00000  Uiso   1.00
N974   N     0.78587   0.28030   0.86797   0.00000  Uiso   1.00
C975   C     0.85350   0.07941   0.61499   0.00000  Uiso   1.00
N976   N     0.86408   0.04477   0.63132   0.00000  Uiso   1.00
C977   C     0.70528   0.08585   0.78055   0.00000  Uiso   1.00
N978   N     0.71939   0.05421   0.79955   0.00000  Uiso   1.00
C979   C     0.95911   0.25189   0.72594   0.00000  Uiso   1.00
N980   N     0.94362   0.28563   0.71260   0.00000  Uiso   1.00
C981   C     0.96179   0.08418   0.72356   0.00000  Uiso   1.00
N982   N     0.94790   0.05165   0.70585   0.00000  Uiso   1.00
C983   C     0.70702   0.25380   0.76599   0.00000  Uiso   1.00
N984   N     0.72235   0.28848   0.77702   0.00000  Uiso   1.00
C985   C     0.08774   0.50019   0.75362   0.00000  Uiso   1.00
C986   C     0.24554   0.50011   0.74611   0.00000  Uiso   1.00
C987   C     0.17082   0.49982   0.66558   0.00000  Uiso   1.00
C988   C     0.16295   0.49992   0.83452   0.00000  Uiso   1.00
C989   C     0.14154   0.35820   0.71978   0.00000  Uiso   1.00
C990   C     0.18930   0.64196   0.78233   0.00000  Uiso   1.00
C991   C     0.19066   0.35834   0.78114   0.00000  Uiso   1.00
C992   C     0.14257   0.64160   0.71884   0.00000  Uiso   1.00
C993   C     0.02084   0.45935   0.75790   0.00000  Uiso   1.00
C994   C     0.31204   0.54297   0.74237   0.00000  Uiso   1.00
C995   C     0.31249   0.45887   0.74441   0.00000  Uiso   1.00
C996   C     0.02103   0.54343   0.75305   0.00000  Uiso   1.00
C997   C     0.18340   0.53827   0.54799   0.00000  Uiso   1.00
C998   C     0.16520   0.45659   0.95125   0.00000  Uiso   1.00
C999   C     0.15477   0.53935   0.95263   0.00000  Uiso   1.00
C1000  C     0.16842   0.45642   0.54882   0.00000  Uiso   1.00
C1001  C     0.18683   0.53886   0.59408   0.00000  Uiso   1.00
C1002  C     0.15804   0.45682   0.90573   0.00000  Uiso   1.00
C1003  C     0.15084   0.54015   0.90654   0.00000  Uiso   1.00
C1004  C     0.17496   0.45627   0.59441   0.00000  Uiso   1.00
C1005  C     0.17750   0.49860   0.61776   0.00000  Uiso   1.00
C1006  C     0.15725   0.49918   0.88253   0.00000  Uiso   1.00
C1007  C     0.17126   0.49773   0.52470   0.00000  Uiso   1.00
C1008  C     0.16477   0.49800   0.97562   0.00000  Uiso   1.00
C1009  C     0.29034   0.50066   0.74230   0.00000  Uiso   1.00
C1010  C     0.04288   0.50113   0.75689   0.00000  Uiso   1.00
Cu1011 Cu    0.16667   0.54689   0.75000   0.00000  Uiso   1.00
Cu1012 Cu    0.16667   0.45311   0.75000   0.00000  Uiso   1.00
H1013  H     0.19130   0.56935   0.53055   0.00000  Uiso   1.00
H1014  H     0.16994   0.42321   0.96670   0.00000  Uiso   1.00
H1015  H     0.14877   0.57092   0.97030   0.00000  Uiso   1.00
H1016  H     0.16217   0.42337   0.53316   0.00000  Uiso   1.00
N1017  N     0.16667   0.61736   0.75000   0.00000  Uiso   1.00
N1018  N     0.16667   0.38264   0.75000   0.00000  Uiso   1.00
O1019  O     0.10655   0.53958   0.75000   0.00000  Uiso   1.00
O1020  O     0.22679   0.46042   0.75001   0.00000  Uiso   1.00
O1021  O     0.22679   0.53958   0.75001   0.00000  Uiso   1.00
O1022  O     0.10655   0.46042   0.75000   0.00000  Uiso   1.00
O1023  O     0.16666   0.53959   0.68573   0.00000  Uiso   1.00
O1024  O     0.16667   0.46041   0.81427   0.00000  Uiso   1.00
O1025  O     0.16667   0.53959   0.81427   0.00000  Uiso   1.00
O1026  O     0.16666   0.46041   0.68573   0.00000  Uiso   1.00
N1027  N     0.11518   0.38333   0.68875   0.00000  Uiso   1.00
H1028  H     0.12388   0.38305   0.65706   0.00000  Uiso   1.00
C1029  C     0.07121   0.37846   0.69081   0.00000  Uiso   1.00
H1030  H     0.05720   0.36097   0.66088   0.00000  Uiso   1.00
H1031  H     0.05720   0.41336   0.69168   0.00000  Uiso   1.00
H1032  H     0.06353   0.35819   0.71992   0.00000  Uiso   1.00
N1033  N     0.20534   0.61848   0.82114   0.00000  Uiso   1.00
H1034  H     0.19586   0.63205   0.84996   0.00000  Uiso   1.00
C1035  C     0.24821   0.60521   0.82492   0.00000  Uiso   1.00
H1036  H     0.26434   0.61740   0.79664   0.00000  Uiso   1.00
H1037  H     0.25068   0.56695   0.82760   0.00000  Uiso   1.00
H1038  H     0.26391   0.62015   0.85539   0.00000  Uiso   1.00
N1039  N     0.21382   0.38325   0.81509   0.00000  Uiso   1.00
H1040  H     0.20494   0.37688   0.84616   0.00000  Uiso   1.00
C1041  C     0.25813   0.38303   0.81454   0.00000  Uiso   1.00
H1042  H     0.27247   0.36725   0.84526   0.00000  Uiso   1.00
H1043  H     0.26940   0.41921   0.81347   0.00000  Uiso   1.00
H1044  H     0.26833   0.36327   0.78619   0.00000  Uiso   1.00
N1045  N     0.11512   0.61623   0.68905   0.00000  Uiso   1.00
H1046  H     0.08541   0.61392   0.69788   0.00000  Uiso   1.00
C1047  C     0.11835   0.62138   0.64211   0.00000  Uiso   1.00
H1048  H     0.09092   0.63918   0.62645   0.00000  Uiso   1.00
H1049  H     0.11942   0.58658   0.62681   0.00000  Uiso   1.00
H1050  H     0.14602   0.64123   0.63493   0.00000  Uiso   1.00
C1051  C     0.20572   0.57878   0.61575   0.00000  Uiso   1.00
N1052  N     0.22141   0.61068   0.63285   0.00000  Uiso   1.00
C1053  C     0.14396   0.41405   0.88511   0.00000  Uiso   1.00
N1054  N     0.13175   0.38000   0.86881   0.00000  Uiso   1.00
C1055  C     0.13373   0.58116   0.88516   0.00000  Uiso   1.00
N1056  N     0.11921   0.61363   0.86797   0.00000  Uiso   1.00
C1057  C     0.18684   0.41274   0.61499   0.00000  Uiso   1.00
N1058  N     0.19742   0.37811   0.63132   0.00000  Uiso   1.00
C1059  C     0.03861   0.41918   0.78055   0.00000  Uiso   1.00
N1060  N     0.05272   0.38755   0.79955   0.00000  Uiso   1.00
C1061  C     0.29244   0.58522   0.72594   0.00000  Uiso   1.00
N1062  N     0.27695   0.61896   0.71260   0.00000  Uiso   1.00
C1063  C     0.29512   0.41751   0.72356   0.00000  Uiso   1.00
N1064  N     0.28123   0.38498   0.70585   0.00000  Uiso   1.00
C1065  C     0.04035   0.58713   0.76599   0.00000  Uiso   1.00
N1066  N     0.05569   0.62182   0.77702   0.00000  Uiso   1.00
C1067  C     0.42107   0.50019   0.75362   0.00000  Uiso   1.00
C1068  C     0.57887   0.50011   0.74611   0.00000  Uiso   1.00
C1069  C     0.50415   0.49982   0.66558   0.00000  Uiso   1.00
C1070  C     0.49629   0.49992   0.83452   0.00000  Uiso   1.00
C1071  C     0.47488   0.35820   0.71978   0.00000  Uiso   1.00
C1072  C     0.52264   0.64196   0.78233   0.00000  Uiso   1.00
C1073  C     0.52400   0.35834   0.78114   0.00000  Uiso   1.00
C1074  C     0.47591   0.64160   0.71884   0.00000  Uiso   1.00
C1075  C     0.35417   0.45935   0.75790   0.00000  Uiso   1.00
C1076  C     0.64537   0.54297   0.74237   0.00000  Uiso   1.00
C1077  C     0.64582   0.45887   0.74441   0.00000  Uiso   1.00
C1078  C     0.35436   0.54343   0.75305   0.00000  Uiso   1.00
C1079  C     0.51673   0.53827   0.54799   0.00000  Uiso   1.00
C1080  C     0.49853   0.45659   0.95125   0.00000  Uiso   1.00
C1081  C     0.48810   0.53935   0.95263   0.00000  Uiso   1.00
C1082  C     0.50175   0.45642   0.54882   0.00000  Uiso   1.00
C1083  C     0.52017   0.53886   0.59408   0.00000  Uiso   1.00
C1084  C     0.49137   0.45682   0.90573   0.00000  Uiso   1.00
C1085  C     0.48417   0.54015   0.90654   0.00000  Uiso   1.00
C1086  C     0.50830   0.45627   0.59441   0.00000  Uiso   1.00
C1087  C     0.51083   0.49860   0.61776   0.00000  Uiso   1.00
C1088  C     0.49059   0.49918   0.88253   0.00000  Uiso   1.00
C1089  C     0.50459   0.49773   0.52470   0.00000  Uiso   1.00
C1090  C     0.49810   0.49800   0.97562   0.00000  Uiso   1.00
C1091  C     0.62367   0.50066   0.74230   0.00000  Uiso   1.00
C1092  C     0.37621   0.50113   0.75689   0.00000  Uiso   1.00
Cu1093 Cu    0.50000   0.54689   0.75000   0.00000  Uiso   1.00
Cu1094 Cu    0.50000   0.45311   0.75000   0.00000  Uiso   1.00
H1095  H     0.52464   0.56935   0.53055   0.00000  Uiso   1.00
H1096  H     0.50328   0.42321   0.96670   0.00000  Uiso   1.00
H1097  H     0.48211   0.57092   0.97030   0.00000  Uiso   1.00
H1098  H     0.49550   0.42337   0.53316   0.00000  Uiso   1.00
N1099  N     0.50000   0.61736   0.75000   0.00000  Uiso   1.00
N1100  N     0.50000   0.38264   0.75000   0.00000  Uiso   1.00
O1101  O     0.43988   0.53958   0.75000   0.00000  Uiso   1.00
O1102  O     0.56012   0.46042   0.75001   0.00000  Uiso   1.00
O1103  O     0.56012   0.53958   0.75001   0.00000  Uiso   1.00
O1104  O     0.43988   0.46042   0.75000   0.00000  Uiso   1.00
O1105  O     0.50000   0.53959   0.68573   0.00000  Uiso   1.00
O1106  O     0.50000   0.46041   0.81427   0.00000  Uiso   1.00
O1107  O     0.50000   0.53959   0.81427   0.00000  Uiso   1.00
O1108  O     0.50000   0.46041   0.68573   0.00000  Uiso   1.00
N1109  N     0.44851   0.38333   0.68875   0.00000  Uiso   1.00
H1110  H     0.45721   0.38305   0.65706   0.00000  Uiso   1.00
C1111  C     0.40454   0.37846   0.69081   0.00000  Uiso   1.00
H1112  H     0.39054   0.36097   0.66088   0.00000  Uiso   1.00
H1113  H     0.39053   0.41336   0.69168   0.00000  Uiso   1.00
H1114  H     0.39686   0.35819   0.71992   0.00000  Uiso   1.00
N1115  N     0.53868   0.61848   0.82114   0.00000  Uiso   1.00
H1116  H     0.52920   0.63205   0.84996   0.00000  Uiso   1.00
C1117  C     0.58154   0.60521   0.82492   0.00000  Uiso   1.00
H1118  H     0.59767   0.61740   0.79664   0.00000  Uiso   1.00
H1119  H     0.58401   0.56695   0.82760   0.00000  Uiso   1.00
H1120  H     0.59724   0.62015   0.85539   0.00000  Uiso   1.00
N1121  N     0.54716   0.38325   0.81509   0.00000  Uiso   1.00
H1122  H     0.53827   0.37688   0.84616   0.00000  Uiso   1.00
C1123  C     0.59146   0.38303   0.81454   0.00000  Uiso   1.00
H1124  H     0.60580   0.36725   0.84526   0.00000  Uiso   1.00
H1125  H     0.60274   0.41921   0.81347   0.00000  Uiso   1.00
H1126  H     0.60166   0.36327   0.78619   0.00000  Uiso   1.00
N1127  N     0.44845   0.61623   0.68905   0.00000  Uiso   1.00
H1128  H     0.41875   0.61392   0.69788   0.00000  Uiso   1.00
C1129  C     0.45168   0.62138   0.64211   0.00000  Uiso   1.00
H1130  H     0.42425   0.63918   0.62645   0.00000  Uiso   1.00
H1131  H     0.45275   0.58658   0.62681   0.00000  Uiso   1.00
H1132  H     0.47936   0.64123   0.63493   0.00000  Uiso   1.00
C1133  C     0.53905   0.57878   0.61575   0.00000  Uiso   1.00
N1134  N     0.55474   0.61068   0.63285   0.00000  Uiso   1.00
C1135  C     0.47730   0.41405   0.88511   0.00000  Uiso   1.00
N1136  N     0.46508   0.38000   0.86881   0.00000  Uiso   1.00
C1137  C     0.46706   0.58116   0.88516   0.00000  Uiso   1.00
N1138  N     0.45254   0.61363   0.86797   0.00000  Uiso   1.00
C1139  C     0.52017   0.41274   0.61499   0.00000  Uiso   1.00
N1140  N     0.53075   0.37811   0.63132   0.00000  Uiso   1.00
C1141  C     0.37194   0.41918   0.78055   0.00000  Uiso   1.00
N1142  N     0.38606   0.38755   0.79955   0.00000  Uiso   1.00
C1143  C     0.62578   0.58522   0.72594   0.00000  Uiso   1.00
N1144  N     0.61029   0.61896   0.71260   0.00000  Uiso   1.00
C1145  C     0.62845   0.41751   0.72356   0.00000  Uiso   1.00
N1146  N     0.61456   0.38498   0.70585   0.00000  Uiso   1.00
C1147  C     0.37368   0.58713   0.76599   0.00000  Uiso   1.00
N1148  N     0.38902   0.62182   0.77702   0.00000  Uiso   1.00
C1149  C     0.75440   0.50019   0.75362   0.00000  Uiso   1.00
C1150  C     0.91221   0.50011   0.74611   0.00000  Uiso   1.00
C1151  C     0.83748   0.49982   0.66558   0.00000  Uiso   1.00
C1152  C     0.82962   0.49992   0.83452   0.00000  Uiso   1.00
C1153  C     0.80821   0.35820   0.71978   0.00000  Uiso   1.00
C1154  C     0.85597   0.64196   0.78233   0.00000  Uiso   1.00
C1155  C     0.85733   0.35834   0.78114   0.00000  Uiso   1.00
C1156  C     0.80924   0.64160   0.71884   0.00000  Uiso   1.00
C1157  C     0.68750   0.45935   0.75790   0.00000  Uiso   1.00
C1158  C     0.97871   0.54297   0.74237   0.00000  Uiso   1.00
C1159  C     0.97916   0.45887   0.74441   0.00000  Uiso   1.00
C1160  C     0.68770   0.54343   0.75305   0.00000  Uiso   1.00
C1161  C     0.85007   0.53827   0.54799   0.00000  Uiso   1.00
C1162  C     0.83186   0.45659   0.95125   0.00000  Uiso   1.00
C1163  C     0.82143   0.53935   0.95263   0.00000  Uiso   1.00
C1164  C     0.83509   0.45642   0.54882   0.00000  Uiso   1.00
C1165  C     0.85350   0.53886   0.59408   0.00000  Uiso   1.00
C1166  C     0.82470   0.45682   0.90573   0.00000  Uiso   1.00
C1167  C     0.81751   0.54015   0.90654   0.00000  Uiso   1.00
C1168  C     0.84163   0.45627   0.59441   0.00000  Uiso   1.00
C1169  C     0.84416   0.49860   0.61776   0.00000  Uiso   1.00
C1170  C     0.82392   0.49918   0.88253   0.00000  Uiso   1.00
C1171  C     0.83793   0.49773   0.52470   0.00000  Uiso   1.00
C1172  C     0.83143   0.49800   0.97562   0.00000  Uiso   1.00
C1173  C     0.95700   0.50066   0.74230   0.00000  Uiso   1.00
C1174  C     0.70954   0.50113   0.75689   0.00000  Uiso   1.00
Cu1175 Cu    0.83333   0.54689   0.75000   0.00000  Uiso   1.00
Cu1176 Cu    0.83333   0.45311   0.75000   0.00000  Uiso   1.00
H1177  H     0.85797   0.56935   0.53055   0.00000  Uiso   1.00
H1178  H     0.83661   0.42321   0.96670   0.00000  Uiso   1.00
H1179  H     0.81544   0.57092   0.97030   0.00000  Uiso   1.00
H1180  H     0.82884   0.42337   0.53316   0.00000  Uiso   1.00
N1181  N     0.83333   0.61736   0.75000   0.00000  Uiso   1.00
N1182  N     0.83333   0.38264   0.75000   0.00000  Uiso   1.00
O1183  O     0.77321   0.53958   0.75000   0.00000  Uiso   1.00
O1184  O     0.89345   0.46042   0.75001   0.00000  Uiso   1.00
O1185  O     0.89345   0.53958   0.75001   0.00000  Uiso   1.00
O1186  O     0.77321   0.46042   0.75000   0.00000  Uiso   1.00
O1187  O     0.83333   0.53959   0.68573   0.00000  Uiso   1.00
O1188  O     0.83334   0.46041   0.81427   0.00000  Uiso   1.00
O1189  O     0.83334   0.53959   0.81427   0.00000  Uiso   1.00
O1190  O     0.83333   0.46041   0.68573   0.00000  Uiso   1.00
N1191  N     0.78185   0.38333   0.68875   0.00000  Uiso   1.00
H1192  H     0.79054   0.38305   0.65706   0.00000  Uiso   1.00
C1193  C     0.73788   0.37846   0.69081   0.00000  Uiso   1.00
H1194  H     0.72387   0.36097   0.66088   0.00000  Uiso   1.00
H1195  H     0.72387   0.41336   0.69168   0.00000  Uiso   1.00
H1196  H     0.73020   0.35819   0.71992   0.00000  Uiso   1.00
N1197  N     0.87201   0.61848   0.82114   0.00000  Uiso   1.00
H1198  H     0.86253   0.63205   0.84996   0.00000  Uiso   1.00
C1199  C     0.91487   0.60521   0.82492   0.00000  Uiso   1.00
H1200  H     0.93101   0.61740   0.79664   0.00000  Uiso   1.00
H1201  H     0.91735   0.56695   0.82760   0.00000  Uiso   1.00
H1202  H     0.93058   0.62015   0.85539   0.00000  Uiso   1.00
N1203  N     0.88049   0.38325   0.81509   0.00000  Uiso   1.00
H1204  H     0.87161   0.37688   0.84616   0.00000  Uiso   1.00
C1205  C     0.92479   0.38303   0.81454   0.00000  Uiso   1.00
H1206  H     0.93914   0.36725   0.84526   0.00000  Uiso   1.00
H1207  H     0.93607   0.41921   0.81347   0.00000  Uiso   1.00
H1208  H     0.93500   0.36327   0.78619   0.00000  Uiso   1.00
N1209  N     0.78178   0.61623   0.68905   0.00000  Uiso   1.00
H1210  H     0.75208   0.61392   0.69788   0.00000  Uiso   1.00
C1211  C     0.78501   0.62138   0.64211   0.00000  Uiso   1.00
H1212  H     0.75758   0.63918   0.62645   0.00000  Uiso   1.00
H1213  H     0.78609   0.58658   0.62681   0.00000  Uiso   1.00
H1214  H     0.81269   0.64123   0.63493   0.00000  Uiso   1.00
C1215  C     0.87238   0.57878   0.61575   0.00000  Uiso   1.00
N1216  N     0.88807   0.61068   0.63285   0.00000  Uiso   1.00
C1217  C     0.81063   0.41405   0.88511   0.00000  Uiso   1.00
N1218  N     0.79841   0.38000   0.86881   0.00000  Uiso   1.00
C1219  C     0.80040   0.58116   0.88516   0.00000  Uiso   1.00
N1220  N     0.78587   0.61363   0.86797   0.00000  Uiso   1.00
C1221  C     0.85350   0.41274   0.61499   0.00000  Uiso   1.00
N1222  N     0.86408   0.37811   0.63132   0.00000  Uiso   1.00
C1223  C     0.70528   0.41918   0.78055   0.00000  Uiso   1.00
N1224  N     0.71939   0.38755   0.79955   0.00000  Uiso   1.00
C1225  C     0.95911   0.58522   0.72594   0.00000  Uiso   1.00
N1226  N     0.94362   0.61896   0.71260   0.00000  Uiso   1.00
C1227  C     0.96179   0.41751   0.72356   0.00000  Uiso   1.00
N1228  N     0.94790   0.38498   0.70585   0.00000  Uiso   1.00
C1229  C     0.70702   0.58713   0.76599   0.00000  Uiso   1.00
N1230  N     0.72235   0.62182   0.77702   0.00000  Uiso   1.00
C1231  C     0.08774   0.83353   0.75362   0.00000  Uiso   1.00
C1232  C     0.24554   0.83344   0.74611   0.00000  Uiso   1.00
C1233  C     0.17082   0.83315   0.66558   0.00000  Uiso   1.00
C1234  C     0.16295   0.83325   0.83452   0.00000  Uiso   1.00
C1235  C     0.14154   0.69154   0.71978   0.00000  Uiso   1.00
C1236  C     0.18930   0.97530   0.78233   0.00000  Uiso   1.00
C1237  C     0.19066   0.69167   0.78114   0.00000  Uiso   1.00
C1238  C     0.14257   0.97493   0.71884   0.00000  Uiso   1.00
C1239  C     0.02084   0.79268   0.75790   0.00000  Uiso   1.00
C1240  C     0.31204   0.87630   0.74237   0.00000  Uiso   1.00
C1241  C     0.31249   0.79220   0.74441   0.00000  Uiso   1.00
C1242  C     0.02103   0.87677   0.75305   0.00000  Uiso   1.00
C1243  C     0.18340   0.87160   0.54799   0.00000  Uiso   1.00
C1244  C     0.16520   0.78992   0.95125   0.00000  Uiso   1.00
C1245  C     0.15477   0.87268   0.95263   0.00000  Uiso   1.00
C1246  C     0.16842   0.78975   0.54882   0.00000  Uiso   1.00
C1247  C     0.18683   0.87219   0.59408   0.00000  Uiso   1.00
C1248  C     0.15804   0.79016   0.90573   0.00000  Uiso   1.00
C1249  C     0.15084   0.87349   0.90654   0.00000  Uiso   1.00
C1250  C     0.17496   0.78961   0.59441   0.00000  Uiso   1.00
C1251  C     0.17750   0.83193   0.61776   0.00000  Uiso   1.00
C1252  C     0.15725   0.83251   0.88253   0.00000  Uiso   1.00
C1253  C     0.17126   0.83106   0.52470   0.00000  Uiso   1.00
C1254  C     0.16477   0.83134   0.97562   0.00000  Uiso   1.00
C1255  C     0.29034   0.83399   0.74230   0.00000  Uiso   1.00
C1256  C     0.04288   0.83447   0.75689   0.00000  Uiso   1.00
Cu1257 Cu    0.16667   0.88022   0.75000   0.00000  Uiso   1.00
Cu1258 Cu    0.16667   0.78645   0.75000   0.00000  Uiso   1.00
H1259  H     0.19130   0.90268   0.53055   0.00000  Uiso   1.00
H1260  H     0.16994   0.75654   0.96670   0.00000  Uiso   1.00
H1261  H     0.14877   0.90426   0.97030   0.00000  Uiso   1.00
H1262  H     0.16217   0.75670   0.53316   0.00000  Uiso   1.00
N1263  N     0.16667   0.95069   0.75000   0.00000  Uiso   1.00
N1264  N     0.16667   0.71598   0.75000   0.00000  Uiso   1.00
O1265  O     0.10655   0.87291   0.75000   0.00000  Uiso   1.00
O1266  O     0.22679   0.79375   0.75001   0.00000  Uiso   1.00
O1267  O     0.22679   0.87291   0.75001   0.00000  Uiso   1.00
O1268  O     0.10655   0.79375   0.75000   0.00000  Uiso   1.00
O1269  O     0.16666   0.87293   0.68573   0.00000  Uiso   1.00
O1270  O     0.16667   0.79374   0.81427   0.00000  Uiso   1.00
O1271  O     0.16667   0.87293   0.81427   0.00000  Uiso   1.00
O1272  O     0.16666   0.79374   0.68573   0.00000  Uiso   1.00
N1273  N     0.11518   0.71666   0.68875   0.00000  Uiso   1.00
H1274  H     0.12388   0.71638   0.65706   0.00000  Uiso   1.00
C1275  C     0.07121   0.71179   0.69081   0.00000  Uiso   1.00
H1276  H     0.05720   0.69430   0.66088   0.00000  Uiso   1.00
H1277  H     0.05720   0.74670   0.69168   0.00000  Uiso   1.00
H1278  H     0.06353   0.69152   0.71992   0.00000  Uiso   1.00
N1279  N     0.20534   0.95181   0.82114   0.00000  Uiso   1.00
H1280  H     0.19586   0.96539   0.84996   0.00000  Uiso   1.00
C1281  C     0.24821   0.93854   0.82492   0.00000  Uiso   1.00
H1282  H     0.26434   0.95073   0.79664   0.00000  Uiso   1.00
H1283  H     0.25068   0.90028   0.82760   0.00000  Uiso   1.00
H1284  H     0.26391   0.95348   0.85539   0.00000  Uiso   1.00
N1285  N     0.21382   0.71659   0.81509   0.00000  Uiso   1.00
H1286  H     0.20494   0.71022   0.84616   0.00000  Uiso   1.00
C1287  C     0.25813   0.71636   0.81454   0.00000  Uiso   1.00
H1288  H     0.27247   0.70058   0.84526   0.00000  Uiso   1.00
H1289  H     0.26940   0.75255   0.81347   0.00000  Uiso   1.00
H1290  H     0.26833   0.69661   0.78619   0.00000  Uiso   1.00
N1291  N     0.11512   0.94956   0.68905   0.00000  Uiso   1.00
H1292  H     0.08541   0.94725   0.69788   0.00000  Uiso   1.00
C1293  C     0.11835   0.95471   0.64211   0.00000  Uiso   1.00
H1294  H     0.09092   0.97252   0.62645   0.00000  Uiso   1.00
H1295  H     0.11942   0.91991   0.62681   0.00000  Uiso   1.00
H1296  H     0.14602   0.97456   0.63493   0.00000  Uiso   1.00
C1297  C     0.20572   0.91212   0.61575   0.00000  Uiso   1.00
N1298  N     0.22141   0.94401   0.63285   0.00000  Uiso   1.00
C1299  C     0.14396   0.74738   0.88511   0.00000  Uiso   1.00
N1300  N     0.13175   0.71333   0.86881   0.00000  Uiso   1.00
C1301  C     0.13373   0.91450   0.88516   0.00000  Uiso   1.00
N1302  N     0.11921   0.94696   0.86797   0.00000  Uiso   1.00
C1303  C     0.18684   0.74607   0.61499   0.00000  Uiso   1.00
N1304  N     0.19742   0.71144   0.63132   0.00000  Uiso   1.00
C1305  C     0.03861   0.75251   0.78055   0.00000  Uiso   1.00
N1306  N     0.05272   0.72088   0.79955   0.00000  Uiso   1.00
C1307  C     0.29244   0.91856   0.72594   0.00000  Uiso   1.00
N1308  N     0.27695   0.95230   0.71260   0.00000  Uiso   1.00
C1309  C     0.29512   0.75085   0.72356   0.00000  Uiso   1.00
N1310  N     0.28123   0.71831   0.70585   0.00000  Uiso   1.00
C1311  C     0.04035   0.92046   0.76599   0.00000  Uiso   1.00
N1312  N     0.05569   0.95515   0.77702   0.00000  Uiso   1.00
C1313  C     0.42107   0.83353   0.75362   0.00000  Uiso   1.00
C1314  C     0.57887   0.83344   0.74611   0.00000  Uiso   1.00
C1315  C     0.50415   0.83315   0.66558   0.00000  Uiso   1.00
C1316  C     0.49629   0.83325   0.83452   0.00000  Uiso   1.00
C1317  C     0.47488   0.69154   0.71978   0.00000  Uiso   1.00
C1318  C     0.52264   0.97530   0.78233   0.00000  Uiso   1.00
C1319  C     0.52400   0.69167   0.78114   0.00000  Uiso   1.00
C1320  C     0.47591   0.97493   0.71884   0.00000  Uiso   1.00
C1321  C     0.35417   0.79268   0.75790   0.00000  Uiso   1.00
C1322  C     0.64537   0.87630   0.74237   0.00000  Uiso   1.00
C1323  C     0.64582   0.79220   0.74441   0.00000  Uiso   1.00
C1324  C     0.35436   0.87677   0.75305   0.00000  Uiso   1.00
C1325  C     0.51673   0.87160   0.54799   0.00000  Uiso   1.00
C1326  C     0.49853   0.78992   0.95125   0.00000  Uiso   1.00
C1327  C     0.48810   0.87268   0.95263   0.00000  Uiso   1.00
C1328  C     0.50175   0.78975   0.54882   0.00000  Uiso   1.00
C1329  C     0.52017   0.87219   0.59408   0.00000  Uiso   1.00
C1330  C     0.49137   0.79016   0.90573   0.00000  Uiso   1.00
C1331  C     0.48417   0.87349   0.90654   0.00000  Uiso   1.00
C1332  C     0.50830   0.78961   0.59441   0.00000  Uiso   1.00
C1333  C     0.51083   0.83193   0.61776   0.00000  Uiso   1.00
C1334  C     0.49059   0.83251   0.88253   0.00000  Uiso   1.00
C1335  C     0.50459   0.83106   0.52470   0.00000  Uiso   1.00
C1336  C     0.49810   0.83134   0.97562   0.00000  Uiso   1.00
C1337  C     0.62367   0.83399   0.74230   0.00000  Uiso   1.00
C1338  C     0.37621   0.83447   0.75689   0.00000  Uiso   1.00
Cu1339 Cu    0.50000   0.88022   0.75000   0.00000  Uiso   1.00
Cu1340 Cu    0.50000   0.78645   0.75000   0.00000  Uiso   1.00
H1341  H     0.52464   0.90268   0.53055   0.00000  Uiso   1.00
H1342  H     0.50328   0.75654   0.96670   0.00000  Uiso   1.00
H1343  H     0.48211   0.90426   0.97030   0.00000  Uiso   1.00
H1344  H     0.49550   0.75670   0.53316   0.00000  Uiso   1.00
N1345  N     0.50000   0.95069   0.75000   0.00000  Uiso   1.00
N1346  N     0.50000   0.71598   0.75000   0.00000  Uiso   1.00
O1347  O     0.43988   0.87291   0.75000   0.00000  Uiso   1.00
O1348  O     0.56012   0.79375   0.75001   0.00000  Uiso   1.00
O1349  O     0.56012   0.87291   0.75001   0.00000  Uiso   1.00
O1350  O     0.43988   0.79375   0.75000   0.00000  Uiso   1.00
O1351  O     0.50000   0.87293   0.68573   0.00000  Uiso   1.00
O1352  O     0.50000   0.79374   0.81427   0.00000  Uiso   1.00
O1353  O     0.50000   0.87293   0.81427   0.00000  Uiso   1.00
O1354  O     0.50000   0.79374   0.68573   0.00000  Uiso   1.00
N1355  N     0.44851   0.71666   0.68875   0.00000  Uiso   1.00
H1356  H     0.45721   0.71638   0.65706   0.00000  Uiso   1.00
C1357  C     0.40454   0.71179   0.69081   0.00000  Uiso   1.00
H1358  H     0.39054   0.69430   0.66088   0.00000  Uiso   1.00
H1359  H     0.39053   0.74670   0.69168   0.00000  Uiso   1.00
H1360  H     0.39686   0.69152   0.71992   0.00000  Uiso   1.00
N1361  N     0.53868   0.95181   0.82114   0.00000  Uiso   1.00
H1362  H     0.52920   0.96539   0.84996   0.00000  Uiso   1.00
C1363  C     0.58154   0.93854   0.82492   0.00000  Uiso   1.00
H1364  H     0.59767   0.95073   0.79664   0.00000  Uiso   1.00
H1365  H     0.58401   0.90028   0.82760   0.00000  Uiso   1.00
H1366  H     0.59724   0.95348   0.85539   0.00000  Uiso   1.00
N1367  N     0.54716   0.71659   0.81509   0.00000  Uiso   1.00
H1368  H     0.53827   0.71022   0.84616   0.00000  Uiso   1.00
C1369  C     0.59146   0.71636   0.81454   0.00000  Uiso   1.00
H1370  H     0.60580   0.70058   0.84526   0.00000  Uiso   1.00
H1371  H     0.60274   0.75255   0.81347   0.00000  Uiso   1.00
H1372  H     0.60166   0.69661   0.78619   0.00000  Uiso   1.00
N1373  N     0.44845   0.94956   0.68905   0.00000  Uiso   1.00
H1374  H     0.41875   0.94725   0.69788   0.00000  Uiso   1.00
C1375  C     0.45168   0.95471   0.64211   0.00000  Uiso   1.00
H1376  H     0.42425   0.97252   0.62645   0.00000  Uiso   1.00
H1377  H     0.45275   0.91991   0.62681   0.00000  Uiso   1.00
H1378  H     0.47936   0.97456   0.63493   0.00000  Uiso   1.00
C1379  C     0.53905   0.91212   0.61575   0.00000  Uiso   1.00
N1380  N     0.55474   0.94401   0.63285   0.00000  Uiso   1.00
C1381  C     0.47730   0.74738   0.88511   0.00000  Uiso   1.00
N1382  N     0.46508   0.71333   0.86881   0.00000  Uiso   1.00
C1383  C     0.46706   0.91450   0.88516   0.00000  Uiso   1.00
N1384  N     0.45254   0.94696   0.86797   0.00000  Uiso   1.00
C1385  C     0.52017   0.74607   0.61499   0.00000  Uiso   1.00
N1386  N     0.53075   0.71144   0.63132   0.00000  Uiso   1.00
C1387  C     0.37194   0.75251   0.78055   0.00000  Uiso   1.00
N1388  N     0.38606   0.72088   0.79955   0.00000  Uiso   1.00
C1389  C     0.62578   0.91856   0.72594   0.00000  Uiso   1.00
N1390  N     0.61029   0.95230   0.71260   0.00000  Uiso   1.00
C1391  C     0.62845   0.75085   0.72356   0.00000  Uiso   1.00
N1392  N     0.61456   0.71831   0.70585   0.00000  Uiso   1.00
C1393  C     0.37368   0.92046   0.76599   0.00000  Uiso   1.00
N1394  N     0.38902   0.95515   0.77702   0.00000  Uiso   1.00
C1395  C     0.75440   0.83353   0.75362   0.00000  Uiso   1.00
C1396  C     0.91221   0.83344   0.74611   0.00000  Uiso   1.00
C1397  C     0.83748   0.83315   0.66558   0.00000  Uiso   1.00
C1398  C     0.82962   0.83325   0.83452   0.00000  Uiso   1.00
C1399  C     0.80821   0.69154   0.71978   0.00000  Uiso   1.00
C1400  C     0.85597   0.97530   0.78233   0.00000  Uiso   1.00
C1401  C     0.85733   0.69167   0.78114   0.00000  Uiso   1.00
C1402  C     0.80924   0.97493   0.71884   0.00000  Uiso   1.00
C1403  C     0.68750   0.79268   0.75790   0.00000  Uiso   1.00
C1404  C     0.97871   0.87630   0.74237   0.00000  Uiso   1.00
C1405  C     0.97916   0.79220   0.74441   0.00000  Uiso   1.00
C1406  C     0.68770   0.87677   0.75305   0.00000  Uiso   1.00
C1407  C     0.85007   0.87160   0.54799   0.00000  Uiso   1.00
C1408  C     0.83186   0.78992   0.95125   0.00000  Uiso   1.00
C1409  C     0.82143   0.87268   0.95263   0.00000  Uiso   1.00
C1410  C     0.83509   0.78975   0.54882   0.00000  Uiso   1.00
C1411  C     0.85350   0.87219   0.59408   0.00000  Uiso   1.00
C1412  C     0.82470   0.79016   0.90573   0.00000  Uiso   1.00
C1413  C     0.81751   0.87349   0.90654   0.00000  Uiso   1.00
C1414  C     0.84163   0.78961   0.59441   0.00000  Uiso   1.00
C1415  C     0.84416   0.83193   0.61776   0.00000  Uiso   1.00
C1416  C     0.82392   0.83251   0.88253   0.00000  Uiso   1.00
C1417  C     0.83793   0.83106   0.52470   0.00000  Uiso   1.00
C1418  C     0.83143   0.83134   0.97562   0.00000  Uiso   1.00
C1419  C     0.95700   0.83399   0.74230   0.00000  Uiso   1.00
C1420  C     0.70954   0.83447   0.75689   0.00000  Uiso   1.00
Cu1421 Cu    0.83333   0.88022   0.75000   0.00000  Uiso   1.00
Cu1422 Cu    0.83333   0.78645   0.75000   0.00000  Uiso   1.00
H1423  H     0.85797   0.90268   0.53055   0.00000  Uiso   1.00
H1424  H     0.83661   0.75654   0.96670   0.00000  Uiso   1.00
H1425  H     0.81544   0.90426   0.97030   0.00000  Uiso   1.00
H1426  H     0.82884   0.75670   0.53316   0.00000  Uiso   1.00
N1427  N     0.83333   0.95069   0.75000   0.00000  Uiso   1.00
N1428  N     0.83333   0.71598   0.75000   0.00000  Uiso   1.00
O1429  O     0.77321   0.87291   0.75000   0.00000  Uiso   1.00
O1430  O     0.89345   0.79375   0.75001   0.00000  Uiso   1.00
O1431  O     0.89345   0.87291   0.75001   0.00000  Uiso   1.00
O1432  O     0.77321   0.79375   0.75000   0.00000  Uiso   1.00
O1433  O     0.83333   0.87293   0.68573   0.00000  Uiso   1.00
O1434  O     0.83334   0.79374   0.81427   0.00000  Uiso   1.00
O1435  O     0.83334   0.87293   0.81427   0.00000  Uiso   1.00
O1436  O     0.83333   0.79374   0.68573   0.00000  Uiso   1.00
N1437  N     0.78185   0.71666   0.68875   0.00000  Uiso   1.00
H1438  H     0.79054   0.71638   0.65706   0.00000  Uiso   1.00
C1439  C     0.73788   0.71179   0.69081   0.00000  Uiso   1.00
H1440  H     0.72387   0.69430   0.66088   0.00000  Uiso   1.00
H1441  H     0.72387   0.74670   0.69168   0.00000  Uiso   1.00
H1442  H     0.73020   0.69152   0.71992   0.00000  Uiso   1.00
N1443  N     0.87201   0.95181   0.82114   0.00000  Uiso   1.00
H1444  H     0.86253   0.96539   0.84996   0.00000  Uiso   1.00
C1445  C     0.91487   0.93854   0.82492   0.00000  Uiso   1.00
H1446  H     0.93101   0.95073   0.79664   0.00000  Uiso   1.00
H1447  H     0.91735   0.90028   0.82760   0.00000  Uiso   1.00
H1448  H     0.93058   0.95348   0.85539   0.00000  Uiso   1.00
N1449  N     0.88049   0.71659   0.81509   0.00000  Uiso   1.00
H1450  H     0.87161   0.71022   0.84616   0.00000  Uiso   1.00
C1451  C     0.92479   0.71636   0.81454   0.00000  Uiso   1.00
H1452  H     0.93914   0.70058   0.84526   0.00000  Uiso   1.00
H1453  H     0.93607   0.75255   0.81347   0.00000  Uiso   1.00
H1454  H     0.93500   0.69661   0.78619   0.00000  Uiso   1.00
N1455  N     0.78178   0.94956   0.68905   0.00000  Uiso   1.00
H1456  H     0.75208   0.94725   0.69788   0.00000  Uiso   1.00
C1457  C     0.78501   0.95471   0.64211   0.00000  Uiso   1.00
H1458  H     0.75758   0.97252   0.62645   0.00000  Uiso   1.00
H1459  H     0.78609   0.91991   0.62681   0.00000  Uiso   1.00
H1460  H     0.81269   0.97456   0.63493   0.00000  Uiso   1.00
C1461  C     0.87238   0.91212   0.61575   0.00000  Uiso   1.00
N1462  N     0.88807   0.94401   0.63285   0.00000  Uiso   1.00
C1463  C     0.81063   0.74738   0.88511   0.00000  Uiso   1.00
N1464  N     0.79841   0.71333   0.86881   0.00000  Uiso   1.00
C1465  C     0.80040   0.91450   0.88516   0.00000  Uiso   1.00
N1466  N     0.78587   0.94696   0.86797   0.00000  Uiso   1.00
C1467  C     0.85350   0.74607   0.61499   0.00000  Uiso   1.00
N1468  N     0.86408   0.71144   0.63132   0.00000  Uiso   1.00
C1469  C     0.70528   0.75251   0.78055   0.00000  Uiso   1.00
N1470  N     0.71939   0.72088   0.79955   0.00000  Uiso   1.00
C1471  C     0.95911   0.91856   0.72594   0.00000  Uiso   1.00
N1472  N     0.94362   0.95230   0.71260   0.00000  Uiso   1.00
C1473  C     0.96179   0.75085   0.72356   0.00000  Uiso   1.00
N1474  N     0.94790   0.71831   0.70585   0.00000  Uiso   1.00
C1475  C     0.70702   0.92046   0.76599   0.00000  Uiso   1.00
N1476  N     0.72235   0.95515   0.77702   0.00000  Uiso   1.00
loop_
_geom_bond_atom_site_label_1
_geom_bond_atom_site_label_2
_geom_bond_distance
_geom_bond_site_symmetry_2
_ccdc_geom_bond_type
C1     O38     1.310   .     A
C1     C26     1.476   .     S
C1     O35     1.299   .     A
C2     O36     1.307   .     A
C2     O37     1.302   .     A
C2     C25     1.476   .     S
C3     O42     1.304   .     A
C3     C21     1.488   .     S
C3     O39     1.312   .     A
C4     O41     1.310   .     A
C4     O40     1.305   .     A
C4     C22     1.487   .     S
C5     N43     1.426   .     S
C5     N34     1.377   .     A
C5     C500    1.441   1_545 S
C6     N33     1.380   .     A
C6     N49     1.426   .     S
C6     C253    1.434   .     S
C7     N55     1.426   .     S
C7     N34     1.374   .     A
C7     C498    1.434   1_545 S
C8     N61     1.426   .     S
C8     N33     1.375   .     A
C8     C251    1.441   .     S
C9     C26     1.404   .     A
C9     C75     1.447   .     S
C9     C175    1.390   1_455 S
C10    C77     1.447   .     S
C10    C25     1.410   .     A
C10    C94     1.394   .     S
C11    C79     1.445   .     S
C11    C25     1.404   .     A
C11    C91     1.390   .     S
C12    C81     1.449   .     S
C12    C26     1.413   .     A
C12    C174    1.394   1_455 S
C13    H29     1.083   .     S
C13    C23     1.407   .     A
C13    C17     1.399   .     A
C14    C18     1.387   .     A
C14    C24     1.406   .     A
C14    H30     1.077   .     S
C15    C19     1.399   .     A
C15    C24     1.408   .     A
C15    H31     1.083   .     S
C16    C20     1.387   .     A
C16    C23     1.406   .     A
C16    H32     1.077   .     S
C17    C67     1.441   .     S
C17    C21     1.412   .     A
C18    C69     1.442   .     S
C18    C22     1.410   .     A
C19    C71     1.441   .     S
C19    C22     1.413   .     A
C20    C73     1.443   .     S
C20    C21     1.411   .     A
C23    C762    1.492   1_554 S
C24    C761    1.492   .     S
Cu27   N33     2.032   .     S
Cu27   O39     1.967   .     S
Cu27   O35     1.973   .     S
Cu27   O41     1.967   .     S
Cu27   O37     1.974   .     S
Cu27   Cu28    2.704   .     S
Cu28   O40     1.967   .     S
Cu28   N34     2.032   .     S
Cu28   O38     1.974   .     S
Cu28   O42     1.967   .     S
Cu28   O36     1.973   .     S
N43    H44     1.026   .     S
N43    C45     1.448   .     S
C45    H46     1.108   .     S
C45    H47     1.107   .     S
C45    H48     1.106   .     S
N49    C51     1.446   .     S
N49    H50     1.030   .     S
C51    H52     1.101   .     S
C51    H53     1.109   .     S
C51    H54     1.110   .     S
N55    H56     1.027   .     S
N55    C57     1.447   .     S
C57    H59     1.108   .     S
C57    H60     1.106   .     S
C57    H58     1.110   .     S
N61    C63     1.448   .     S
N61    H62     1.028   .     S
C63    H65     1.108   .     S
C63    H66     1.105   .     S
C63    H64     1.107   .     S
C67    N68     1.156   .     T
C69    N70     1.156   .     T
C71    N72     1.156   .     T
C73    N74     1.156   .     T
C75    N76     1.157   .     T
C77    N78     1.156   .     T
C79    N80     1.156   .     T
C81    N82     1.156   .     T
C83    O120    1.310   .     A
C83    C108    1.476   .     S
C83    O117    1.299   .     A
C84    O118    1.307   .     A
C84    O119    1.302   .     A
C84    C107    1.476   .     S
C85    O124    1.304   .     A
C85    C103    1.488   .     S
C85    O121    1.312   .     A
C86    O123    1.310   .     A
C86    O122    1.305   .     A
C86    C104    1.487   .     S
C87    N125    1.426   .     S
C87    N116    1.377   .     A
C87    C582    1.441   1_545 S
C88    N115    1.380   .     A
C88    N131    1.426   .     S
C88    C335    1.434   .     S
C89    N137    1.426   .     S
C89    N116    1.374   .     A
C89    C580    1.434   1_545 S
C90    N143    1.426   .     S
C90    N115    1.375   .     A
C90    C333    1.441   .     S
C91    C108    1.404   .     A
C91    C157    1.447   .     S
C92    C159    1.447   .     S
C92    C107    1.410   .     A
C92    C176    1.394   .     S
C93    C161    1.445   .     S
C93    C107    1.404   .     A
C93    C173    1.390   .     S
C94    C163    1.449   .     S
C94    C108    1.413   .     A
C95    H111    1.083   .     S
C95    C105    1.407   .     A
C95    C99     1.399   .     A
C96    C100    1.387   .     A
C96    C106    1.406   .     A
C96    H112    1.077   .     S
C97    C101    1.399   .     A
C97    C106    1.408   .     A
C97    H113    1.083   .     S
C98    C102    1.387   .     A
C98    C105    1.406   .     A
C98    H114    1.077   .     S
C99    C149    1.441   .     S
C99    C103    1.412   .     A
C100   C151    1.442   .     S
C100   C104    1.410   .     A
C101   C153    1.441   .     S
C101   C104    1.413   .     A
C102   C155    1.443   .     S
C102   C103    1.411   .     A
C105   C844    1.492   1_554 S
C106   C843    1.492   .     S
Cu109  N115    2.032   .     S
Cu109  O121    1.967   .     S
Cu109  O117    1.973   .     S
Cu109  O123    1.967   .     S
Cu109  O119    1.974   .     S
Cu109  Cu110   2.704   .     S
Cu110  O122    1.967   .     S
Cu110  N116    2.032   .     S
Cu110  O120    1.974   .     S
Cu110  O124    1.967   .     S
Cu110  O118    1.973   .     S
N125   H126    1.026   .     S
N125   C127    1.448   .     S
C127   H128    1.108   .     S
C127   H129    1.107   .     S
C127   H130    1.106   .     S
N131   C133    1.446   .     S
N131   H132    1.030   .     S
C133   H134    1.101   .     S
C133   H135    1.109   .     S
C133   H136    1.110   .     S
N137   H138    1.027   .     S
N137   C139    1.447   .     S
C139   H141    1.108   .     S
C139   H142    1.106   .     S
C139   H140    1.110   .     S
N143   C145    1.448   .     S
N143   H144    1.028   .     S
C145   H147    1.108   .     S
C145   H148    1.105   .     S
C145   H146    1.107   .     S
C149   N150    1.156   .     T
C151   N152    1.156   .     T
C153   N154    1.156   .     T
C155   N156    1.156   .     T
C157   N158    1.157   .     T
C159   N160    1.156   .     T
C161   N162    1.156   .     T
C163   N164    1.156   .     T
C165   O202    1.310   .     A
C165   C190    1.476   .     S
C165   O199    1.299   .     A
C166   O200    1.307   .     A
C166   O201    1.302   .     A
C166   C189    1.476   .     S
C167   O206    1.304   .     A
C167   C185    1.488   .     S
C167   O203    1.312   .     A
C168   O205    1.310   .     A
C168   O204    1.305   .     A
C168   C186    1.487   .     S
C169   N207    1.426   .     S
C169   N198    1.377   .     A
C169   C664    1.441   1_545 S
C170   N197    1.380   .     A
C170   N213    1.426   .     S
C170   C417    1.434   .     S
C171   N219    1.426   .     S
C171   N198    1.374   .     A
C171   C662    1.434   1_545 S
C172   N225    1.426   .     S
C172   N197    1.375   .     A
C172   C415    1.441   .     S
C173   C190    1.404   .     A
C173   C239    1.447   .     S
C174   C241    1.447   .     S
C174   C189    1.410   .     A
C174   C12     1.394   1_655 S
C175   C243    1.445   .     S
C175   C189    1.404   .     A
C175   C9      1.390   1_655 S
C176   C245    1.449   .     S
C176   C190    1.413   .     A
C177   H193    1.083   .     S
C177   C187    1.407   .     A
C177   C181    1.399   .     A
C178   C182    1.387   .     A
C178   C188    1.406   .     A
C178   H194    1.077   .     S
C179   C183    1.399   .     A
C179   C188    1.408   .     A
C179   H195    1.083   .     S
C180   C184    1.387   .     A
C180   C187    1.406   .     A
C180   H196    1.077   .     S
C181   C231    1.441   .     S
C181   C185    1.412   .     A
C182   C233    1.442   .     S
C182   C186    1.410   .     A
C183   C235    1.441   .     S
C183   C186    1.413   .     A
C184   C237    1.443   .     S
C184   C185    1.411   .     A
C187   C926    1.492   1_554 S
C188   C925    1.492   .     S
Cu191  N197    2.032   .     S
Cu191  O203    1.967   .     S
Cu191  O199    1.973   .     S
Cu191  O205    1.967   .     S
Cu191  O201    1.974   .     S
Cu191  Cu192   2.704   .     S
Cu192  O204    1.967   .     S
Cu192  N198    2.032   .     S
Cu192  O202    1.974   .     S
Cu192  O206    1.967   .     S
Cu192  O200    1.973   .     S
N207   H208    1.026   .     S
N207   C209    1.448   .     S
C209   H210    1.108   .     S
C209   H211    1.107   .     S
C209   H212    1.106   .     S
N213   C215    1.446   .     S
N213   H214    1.030   .     S
C215   H216    1.101   .     S
C215   H217    1.109   .     S
C215   H218    1.110   .     S
N219   H220    1.027   .     S
N219   C221    1.447   .     S
C221   H223    1.108   .     S
C221   H224    1.106   .     S
C221   H222    1.110   .     S
N225   C227    1.448   .     S
N225   H226    1.028   .     S
C227   H229    1.108   .     S
C227   H230    1.105   .     S
C227   H228    1.107   .     S
C231   N232    1.156   .     T
C233   N234    1.156   .     T
C235   N236    1.156   .     T
C237   N238    1.156   .     T
C239   N240    1.157   .     T
C241   N242    1.156   .     T
C243   N244    1.156   .     T
C245   N246    1.156   .     T
C247   O284    1.310   .     A
C247   C272    1.476   .     S
C247   O281    1.299   .     A
C248   O282    1.307   .     A
C248   O283    1.302   .     A
C248   C271    1.476   .     S
C249   O288    1.304   .     A
C249   C267    1.488   .     S
C249   O285    1.312   .     A
C250   O287    1.310   .     A
C250   O286    1.305   .     A
C250   C268    1.487   .     S
C251   N289    1.426   .     S
C251   N280    1.377   .     A
C252   N279    1.380   .     A
C252   N295    1.426   .     S
C252   C499    1.434   .     S
C253   N301    1.426   .     S
C253   N280    1.374   .     A
C254   N307    1.426   .     S
C254   N279    1.375   .     A
C254   C497    1.441   .     S
C255   C272    1.404   .     A
C255   C321    1.447   .     S
C255   C421    1.390   1_455 S
C256   C323    1.447   .     S
C256   C271    1.410   .     A
C256   C340    1.394   .     S
C257   C325    1.445   .     S
C257   C271    1.404   .     A
C257   C337    1.390   .     S
C258   C327    1.449   .     S
C258   C272    1.413   .     A
C258   C420    1.394   1_455 S
C259   H275    1.083   .     S
C259   C269    1.407   .     A
C259   C263    1.399   .     A
C260   C264    1.387   .     A
C260   C270    1.406   .     A
C260   H276    1.077   .     S
C261   C265    1.399   .     A
C261   C270    1.408   .     A
C261   H277    1.083   .     S
C262   C266    1.387   .     A
C262   C269    1.406   .     A
C262   H278    1.077   .     S
C263   C313    1.441   .     S
C263   C267    1.412   .     A
C264   C315    1.442   .     S
C264   C268    1.410   .     A
C265   C317    1.441   .     S
C265   C268    1.413   .     A
C266   C319    1.443   .     S
C266   C267    1.411   .     A
C269   C1008   1.492   1_554 S
C270   C1007   1.492   .     S
Cu273  N279    2.032   .     S
Cu273  O285    1.967   .     S
Cu273  O281    1.973   .     S
Cu273  O287    1.967   .     S
Cu273  O283    1.974   .     S
Cu273  Cu274   2.704   .     S
Cu274  O286    1.967   .     S
Cu274  N280    2.032   .     S
Cu274  O284    1.974   .     S
Cu274  O288    1.967   .     S
Cu274  O282    1.973   .     S
N289   H290    1.026   .     S
N289   C291    1.448   .     S
C291   H292    1.108   .     S
C291   H293    1.107   .     S
C291   H294    1.106   .     S
N295   C297    1.446   .     S
N295   H296    1.030   .     S
C297   H298    1.101   .     S
C297   H299    1.109   .     S
C297   H300    1.110   .     S
N301   H302    1.027   .     S
N301   C303    1.447   .     S
C303   H305    1.108   .     S
C303   H306    1.106   .     S
C303   H304    1.110   .     S
N307   C309    1.448   .     S
N307   H308    1.028   .     S
C309   H311    1.108   .     S
C309   H312    1.105   .     S
C309   H310    1.107   .     S
C313   N314    1.156   .     T
C315   N316    1.156   .     T
C317   N318    1.156   .     T
C319   N320    1.156   .     T
C321   N322    1.157   .     T
C323   N324    1.156   .     T
C325   N326    1.156   .     T
C327   N328    1.156   .     T
C329   O366    1.310   .     A
C329   C354    1.476   .     S
C329   O363    1.299   .     A
C330   O364    1.307   .     A
C330   O365    1.302   .     A
C330   C353    1.476   .     S
C331   O370    1.304   .     A
C331   C349    1.488   .     S
C331   O367    1.312   .     A
C332   O369    1.310   .     A
C332   O368    1.305   .     A
C332   C350    1.487   .     S
C333   N371    1.426   .     S
C333   N362    1.377   .     A
C334   N361    1.380   .     A
C334   N377    1.426   .     S
C334   C581    1.434   .     S
C335   N383    1.426   .     S
C335   N362    1.374   .     A
C336   N389    1.426   .     S
C336   N361    1.375   .     A
C336   C579    1.441   .     S
C337   C354    1.404   .     A
C337   C403    1.447   .     S
C338   C405    1.447   .     S
C338   C353    1.410   .     A
C338   C422    1.394   .     S
C339   C407    1.445   .     S
C339   C353    1.404   .     A
C339   C419    1.390   .     S
C340   C409    1.449   .     S
C340   C354    1.413   .     A
C341   H357    1.083   .     S
C341   C351    1.407   .     A
C341   C345    1.399   .     A
C342   C346    1.387   .     A
C342   C352    1.406   .     A
C342   H358    1.077   .     S
C343   C347    1.399   .     A
C343   C352    1.408   .     A
C343   H359    1.083   .     S
C344   C348    1.387   .     A
C344   C351    1.406   .     A
C344   H360    1.077   .     S
C345   C395    1.441   .     S
C345   C349    1.412   .     A
C346   C397    1.442   .     S
C346   C350    1.410   .     A
C347   C399    1.441   .     S
C347   C350    1.413   .     A
C348   C401    1.443   .     S
C348   C349    1.411   .     A
C351   C1090   1.492   1_554 S
C352   C1089   1.492   .     S
Cu355  N361    2.032   .     S
Cu355  O367    1.967   .     S
Cu355  O363    1.973   .     S
Cu355  O369    1.967   .     S
Cu355  O365    1.974   .     S
Cu355  Cu356   2.704   .     S
Cu356  O368    1.967   .     S
Cu356  N362    2.032   .     S
Cu356  O366    1.974   .     S
Cu356  O370    1.967   .     S
Cu356  O364    1.973   .     S
N371   H372    1.026   .     S
N371   C373    1.448   .     S
C373   H374    1.108   .     S
C373   H375    1.107   .     S
C373   H376    1.106   .     S
N377   C379    1.446   .     S
N377   H378    1.030   .     S
C379   H380    1.101   .     S
C379   H381    1.109   .     S
C379   H382    1.110   .     S
N383   H384    1.027   .     S
N383   C385    1.447   .     S
C385   H387    1.108   .     S
C385   H388    1.106   .     S
C385   H386    1.110   .     S
N389   C391    1.448   .     S
N389   H390    1.028   .     S
C391   H393    1.108   .     S
C391   H394    1.105   .     S
C391   H392    1.107   .     S
C395   N396    1.156   .     T
C397   N398    1.156   .     T
C399   N400    1.156   .     T
C401   N402    1.156   .     T
C403   N404    1.157   .     T
C405   N406    1.156   .     T
C407   N408    1.156   .     T
C409   N410    1.156   .     T
C411   O448    1.310   .     A
C411   C436    1.476   .     S
C411   O445    1.299   .     A
C412   O446    1.307   .     A
C412   O447    1.302   .     A
C412   C435    1.476   .     S
C413   O452    1.304   .     A
C413   C431    1.488   .     S
C413   O449    1.312   .     A
C414   O451    1.310   .     A
C414   O450    1.305   .     A
C414   C432    1.487   .     S
C415   N453    1.426   .     S
C415   N444    1.377   .     A
C416   N443    1.380   .     A
C416   N459    1.426   .     S
C416   C663    1.434   .     S
C417   N465    1.426   .     S
C417   N444    1.374   .     A
C418   N471    1.426   .     S
C418   N443    1.375   .     A
C418   C661    1.441   .     S
C419   C436    1.404   .     A
C419   C485    1.447   .     S
C420   C487    1.447   .     S
C420   C435    1.410   .     A
C420   C258    1.394   1_655 S
C421   C489    1.445   .     S
C421   C435    1.404   .     A
C421   C255    1.390   1_655 S
C422   C491    1.449   .     S
C422   C436    1.413   .     A
C423   H439    1.083   .     S
C423   C433    1.407   .     A
C423   C427    1.399   .     A
C424   C428    1.387   .     A
C424   C434    1.406   .     A
C424   H440    1.077   .     S
C425   C429    1.399   .     A
C425   C434    1.408   .     A
C425   H441    1.083   .     S
C426   C430    1.387   .     A
C426   C433    1.406   .     A
C426   H442    1.077   .     S
C427   C477    1.441   .     S
C427   C431    1.412   .     A
C428   C479    1.442   .     S
C428   C432    1.410   .     A
C429   C481    1.441   .     S
C429   C432    1.413   .     A
C430   C483    1.443   .     S
C430   C431    1.411   .     A
C433   C1172   1.492   1_554 S
C434   C1171   1.492   .     S
Cu437  N443    2.032   .     S
Cu437  O449    1.967   .     S
Cu437  O445    1.973   .     S
Cu437  O451    1.967   .     S
Cu437  O447    1.974   .     S
Cu437  Cu438   2.704   .     S
Cu438  O450    1.967   .     S
Cu438  N444    2.032   .     S
Cu438  O448    1.974   .     S
Cu438  O452    1.967   .     S
Cu438  O446    1.973   .     S
N453   H454    1.026   .     S
N453   C455    1.448   .     S
C455   H456    1.108   .     S
C455   H457    1.107   .     S
C455   H458    1.106   .     S
N459   C461    1.446   .     S
N459   H460    1.030   .     S
C461   H462    1.101   .     S
C461   H463    1.109   .     S
C461   H464    1.110   .     S
N465   H466    1.027   .     S
N465   C467    1.447   .     S
C467   H469    1.108   .     S
C467   H470    1.106   .     S
C467   H468    1.110   .     S
N471   C473    1.448   .     S
N471   H472    1.028   .     S
C473   H475    1.108   .     S
C473   H476    1.105   .     S
C473   H474    1.107   .     S
C477   N478    1.156   .     T
C479   N480    1.156   .     T
C481   N482    1.156   .     T
C483   N484    1.156   .     T
C485   N486    1.157   .     T
C487   N488    1.156   .     T
C489   N490    1.156   .     T
C491   N492    1.156   .     T
C493   O530    1.310   .     A
C493   C518    1.476   .     S
C493   O527    1.299   .     A
C494   O528    1.307   .     A
C494   O529    1.302   .     A
C494   C517    1.476   .     S
C495   O534    1.304   .     A
C495   C513    1.488   .     S
C495   O531    1.312   .     A
C496   O533    1.310   .     A
C496   O532    1.305   .     A
C496   C514    1.487   .     S
C497   N535    1.426   .     S
C497   N526    1.377   .     A
C498   N525    1.380   .     A
C498   N541    1.426   .     S
C498   C7      1.434   1_565 S
C499   N547    1.426   .     S
C499   N526    1.374   .     A
C500   N553    1.426   .     S
C500   N525    1.375   .     A
C500   C5      1.441   1_565 S
C501   C518    1.404   .     A
C501   C567    1.447   .     S
C501   C667    1.390   1_455 S
C502   C569    1.447   .     S
C502   C517    1.410   .     A
C502   C586    1.394   .     S
C503   C571    1.445   .     S
C503   C517    1.404   .     A
C503   C583    1.390   .     S
C504   C573    1.449   .     S
C504   C518    1.413   .     A
C504   C666    1.394   1_455 S
C505   H521    1.083   .     S
C505   C515    1.407   .     A
C505   C509    1.399   .     A
C506   C510    1.387   .     A
C506   C516    1.406   .     A
C506   H522    1.077   .     S
C507   C511    1.399   .     A
C507   C516    1.408   .     A
C507   H523    1.083   .     S
C508   C512    1.387   .     A
C508   C515    1.406   .     A
C508   H524    1.077   .     S
C509   C559    1.441   .     S
C509   C513    1.412   .     A
C510   C561    1.442   .     S
C510   C514    1.410   .     A
C511   C563    1.441   .     S
C511   C514    1.413   .     A
C512   C565    1.443   .     S
C512   C513    1.411   .     A
C515   C1254   1.492   1_554 S
C516   C1253   1.492   .     S
Cu519  N525    2.032   .     S
Cu519  O531    1.967   .     S
Cu519  O527    1.973   .     S
Cu519  O533    1.967   .     S
Cu519  O529    1.974   .     S
Cu519  Cu520   2.704   .     S
Cu520  O532    1.967   .     S
Cu520  N526    2.032   .     S
Cu520  O530    1.974   .     S
Cu520  O534    1.967   .     S
Cu520  O528    1.973   .     S
N535   H536    1.026   .     S
N535   C537    1.448   .     S
C537   H538    1.108   .     S
C537   H539    1.107   .     S
C537   H540    1.106   .     S
N541   C543    1.446   .     S
N541   H542    1.030   .     S
C543   H544    1.101   .     S
C543   H545    1.109   .     S
C543   H546    1.110   .     S
N547   H548    1.027   .     S
N547   C549    1.447   .     S
C549   H551    1.108   .     S
C549   H552    1.106   .     S
C549   H550    1.110   .     S
N553   C555    1.448   .     S
N553   H554    1.028   .     S
C555   H557    1.108   .     S
C555   H558    1.105   .     S
C555   H556    1.107   .     S
C559   N560    1.156   .     T
C561   N562    1.156   .     T
C563   N564    1.156   .     T
C565   N566    1.156   .     T
C567   N568    1.157   .     T
C569   N570    1.156   .     T
C571   N572    1.156   .     T
C573   N574    1.156   .     T
C575   O612    1.310   .     A
C575   C600    1.476   .     S
C575   O609    1.299   .     A
C576   O610    1.307   .     A
C576   O611    1.302   .     A
C576   C599    1.476   .     S
C577   O616    1.304   .     A
C577   C595    1.488   .     S
C577   O613    1.312   .     A
C578   O615    1.310   .     A
C578   O614    1.305   .     A
C578   C596    1.487   .     S
C579   N617    1.426   .     S
C579   N608    1.377   .     A
C580   N607    1.380   .     A
C580   N623    1.426   .     S
C580   C89     1.434   1_565 S
C581   N629    1.426   .     S
C581   N608    1.374   .     A
C582   N635    1.426   .     S
C582   N607    1.375   .     A
C582   C87     1.441   1_565 S
C583   C600    1.404   .     A
C583   C649    1.447   .     S
C584   C651    1.447   .     S
C584   C599    1.410   .     A
C584   C668    1.394   .     S
C585   C653    1.445   .     S
C585   C599    1.404   .     A
C585   C665    1.390   .     S
C586   C655    1.449   .     S
C586   C600    1.413   .     A
C587   H603    1.083   .     S
C587   C597    1.407   .     A
C587   C591    1.399   .     A
C588   C592    1.387   .     A
C588   C598    1.406   .     A
C588   H604    1.077   .     S
C589   C593    1.399   .     A
C589   C598    1.408   .     A
C589   H605    1.083   .     S
C590   C594    1.387   .     A
C590   C597    1.406   .     A
C590   H606    1.077   .     S
C591   C641    1.441   .     S
C591   C595    1.412   .     A
C592   C643    1.442   .     S
C592   C596    1.410   .     A
C593   C645    1.441   .     S
C593   C596    1.413   .     A
C594   C647    1.443   .     S
C594   C595    1.411   .     A
C597   C1336   1.492   1_554 S
C598   C1335   1.492   .     S
Cu601  N607    2.032   .     S
Cu601  O613    1.967   .     S
Cu601  O609    1.973   .     S
Cu601  O615    1.967   .     S
Cu601  O611    1.974   .     S
Cu601  Cu602   2.704   .     S
Cu602  O614    1.967   .     S
Cu602  N608    2.032   .     S
Cu602  O612    1.974   .     S
Cu602  O616    1.967   .     S
Cu602  O610    1.973   .     S
N617   H618    1.026   .     S
N617   C619    1.448   .     S
C619   H620    1.108   .     S
C619   H621    1.107   .     S
C619   H622    1.106   .     S
N623   C625    1.446   .     S
N623   H624    1.030   .     S
C625   H626    1.101   .     S
C625   H627    1.109   .     S
C625   H628    1.110   .     S
N629   H630    1.027   .     S
N629   C631    1.447   .     S
C631   H633    1.108   .     S
C631   H634    1.106   .     S
C631   H632    1.110   .     S
N635   C637    1.448   .     S
N635   H636    1.028   .     S
C637   H639    1.108   .     S
C637   H640    1.105   .     S
C637   H638    1.107   .     S
C641   N642    1.156   .     T
C643   N644    1.156   .     T
C645   N646    1.156   .     T
C647   N648    1.156   .     T
C649   N650    1.157   .     T
C651   N652    1.156   .     T
C653   N654    1.156   .     T
C655   N656    1.156   .     T
C657   O694    1.310   .     A
C657   C682    1.476   .     S
C657   O691    1.299   .     A
C658   O692    1.307   .     A
C658   O693    1.302   .     A
C658   C681    1.476   .     S
C659   O698    1.304   .     A
C659   C677    1.488   .     S
C659   O695    1.312   .     A
C660   O697    1.310   .     A
C660   O696    1.305   .     A
C660   C678    1.487   .     S
C661   N699    1.426   .     S
C661   N690    1.377   .     A
C662   N689    1.380   .     A
C662   N705    1.426   .     S
C662   C171    1.434   1_565 S
C663   N711    1.426   .     S
C663   N690    1.374   .     A
C664   N717    1.426   .     S
C664   N689    1.375   .     A
C664   C169    1.441   1_565 S
C665   C682    1.404   .     A
C665   C731    1.447   .     S
C666   C733    1.447   .     S
C666   C681    1.410   .     A
C666   C504    1.394   1_655 S
C667   C735    1.445   .     S
C667   C681    1.404   .     A
C667   C501    1.390   1_655 S
C668   C737    1.449   .     S
C668   C682    1.413   .     A
C669   H685    1.083   .     S
C669   C679    1.407   .     A
C669   C673    1.399   .     A
C670   C674    1.387   .     A
C670   C680    1.406   .     A
C670   H686    1.077   .     S
C671   C675    1.399   .     A
C671   C680    1.408   .     A
C671   H687    1.083   .     S
C672   C676    1.387   .     A
C672   C679    1.406   .     A
C672   H688    1.077   .     S
C673   C723    1.441   .     S
C673   C677    1.412   .     A
C674   C725    1.442   .     S
C674   C678    1.410   .     A
C675   C727    1.441   .     S
C675   C678    1.413   .     A
C676   C729    1.443   .     S
C676   C677    1.411   .     A
C679   C1418   1.492   1_554 S
C680   C1417   1.492   .     S
Cu683  N689    2.032   .     S
Cu683  O695    1.967   .     S
Cu683  O691    1.973   .     S
Cu683  O697    1.967   .     S
Cu683  O693    1.974   .     S
Cu683  Cu684   2.704   .     S
Cu684  O696    1.967   .     S
Cu684  N690    2.032   .     S
Cu684  O694    1.974   .     S
Cu684  O698    1.967   .     S
Cu684  O692    1.973   .     S
N699   H700    1.026   .     S
N699   C701    1.448   .     S
C701   H702    1.108   .     S
C701   H703    1.107   .     S
C701   H704    1.106   .     S
N705   C707    1.446   .     S
N705   H706    1.030   .     S
C707   H708    1.101   .     S
C707   H709    1.109   .     S
C707   H710    1.110   .     S
N711   H712    1.027   .     S
N711   C713    1.447   .     S
C713   H715    1.108   .     S
C713   H716    1.106   .     S
C713   H714    1.110   .     S
N717   C719    1.448   .     S
N717   H718    1.028   .     S
C719   H721    1.108   .     S
C719   H722    1.105   .     S
C719   H720    1.107   .     S
C723   N724    1.156   .     T
C725   N726    1.156   .     T
C727   N728    1.156   .     T
C729   N730    1.156   .     T
C731   N732    1.157   .     T
C733   N734    1.156   .     T
C735   N736    1.156   .     T
C737   N738    1.156   .     T
C739   O776    1.310   .     A
C739   C764    1.476   .     S
C739   O773    1.299   .     A
C740   O774    1.307   .     A
C740   O775    1.302   .     A
C740   C763    1.476   .     S
C741   O780    1.304   .     A
C741   C759    1.488   .     S
C741   O777    1.312   .     A
C742   O779    1.310   .     A
C742   O778    1.305   .     A
C742   C760    1.487   .     S
C743   N781    1.426   .     S
C743   N772    1.377   .     A
C743   C1238   1.441   1_545 S
C744   N771    1.380   .     A
C744   N787    1.426   .     S
C744   C991    1.434   .     S
C745   N793    1.426   .     S
C745   N772    1.374   .     A
C745   C1236   1.434   1_545 S
C746   N799    1.426   .     S
C746   N771    1.375   .     A
C746   C989    1.441   .     S
C747   C764    1.404   .     A
C747   C813    1.447   .     S
C747   C913    1.390   1_455 S
C748   C815    1.447   .     S
C748   C763    1.410   .     A
C748   C832    1.394   .     S
C749   C817    1.445   .     S
C749   C763    1.404   .     A
C749   C829    1.390   .     S
C750   C819    1.449   .     S
C750   C764    1.413   .     A
C750   C912    1.394   1_455 S
C751   H767    1.083   .     S
C751   C761    1.407   .     A
C751   C755    1.399   .     A
C752   C756    1.387   .     A
C752   C762    1.406   .     A
C752   H768    1.077   .     S
C753   C757    1.399   .     A
C753   C762    1.408   .     A
C753   H769    1.083   .     S
C754   C758    1.387   .     A
C754   C761    1.406   .     A
C754   H770    1.077   .     S
C755   C805    1.441   .     S
C755   C759    1.412   .     A
C756   C807    1.442   .     S
C756   C760    1.410   .     A
C757   C809    1.441   .     S
C757   C760    1.413   .     A
C758   C811    1.443   .     S
C758   C759    1.411   .     A
C762   C23     1.492   1_556 S
Cu765  N771    2.032   .     S
Cu765  O777    1.967   .     S
Cu765  O773    1.973   .     S
Cu765  O779    1.967   .     S
Cu765  O775    1.974   .     S
Cu765  Cu766   2.704   .     S
Cu766  O778    1.967   .     S
Cu766  N772    2.032   .     S
Cu766  O776    1.974   .     S
Cu766  O780    1.967   .     S
Cu766  O774    1.973   .     S
N781   H782    1.026   .     S
N781   C783    1.448   .     S
C783   H784    1.108   .     S
C783   H785    1.107   .     S
C783   H786    1.106   .     S
N787   C789    1.446   .     S
N787   H788    1.030   .     S
C789   H790    1.101   .     S
C789   H791    1.109   .     S
C789   H792    1.110   .     S
N793   H794    1.027   .     S
N793   C795    1.447   .     S
C795   H797    1.108   .     S
C795   H798    1.106   .     S
C795   H796    1.110   .     S
N799   C801    1.448   .     S
N799   H800    1.028   .     S
C801   H803    1.108   .     S
C801   H804    1.105   .     S
C801   H802    1.107   .     S
C805   N806    1.156   .     T
C807   N808    1.156   .     T
C809   N810    1.156   .     T
C811   N812    1.156   .     T
C813   N814    1.157   .     T
C815   N816    1.156   .     T
C817   N818    1.156   .     T
C819   N820    1.156   .     T
C821   O858    1.310   .     A
C821   C846    1.476   .     S
C821   O855    1.299   .     A
C822   O856    1.307   .     A
C822   O857    1.302   .     A
C822   C845    1.476   .     S
C823   O862    1.304   .     A
C823   C841    1.488   .     S
C823   O859    1.312   .     A
C824   O861    1.310   .     A
C824   O860    1.305   .     A
C824   C842    1.487   .     S
C825   N863    1.426   .     S
C825   N854    1.377   .     A
C825   C1320   1.441   1_545 S
C826   N853    1.380   .     A
C826   N869    1.426   .     S
C826   C1073   1.434   .     S
C827   N875    1.426   .     S
C827   N854    1.374   .     A
C827   C1318   1.434   1_545 S
C828   N881    1.426   .     S
C828   N853    1.375   .     A
C828   C1071   1.441   .     S
C829   C846    1.404   .     A
C829   C895    1.447   .     S
C830   C897    1.447   .     S
C830   C845    1.410   .     A
C830   C914    1.394   .     S
C831   C899    1.445   .     S
C831   C845    1.404   .     A
C831   C911    1.390   .     S
C832   C901    1.449   .     S
C832   C846    1.413   .     A
C833   H849    1.083   .     S
C833   C843    1.407   .     A
C833   C837    1.399   .     A
C834   C838    1.387   .     A
C834   C844    1.406   .     A
C834   H850    1.077   .     S
C835   C839    1.399   .     A
C835   C844    1.408   .     A
C835   H851    1.083   .     S
C836   C840    1.387   .     A
C836   C843    1.406   .     A
C836   H852    1.077   .     S
C837   C887    1.441   .     S
C837   C841    1.412   .     A
C838   C889    1.442   .     S
C838   C842    1.410   .     A
C839   C891    1.441   .     S
C839   C842    1.413   .     A
C840   C893    1.443   .     S
C840   C841    1.411   .     A
C844   C105    1.492   1_556 S
Cu847  N853    2.032   .     S
Cu847  O859    1.967   .     S
Cu847  O855    1.973   .     S
Cu847  O861    1.967   .     S
Cu847  O857    1.974   .     S
Cu847  Cu848   2.704   .     S
Cu848  O860    1.967   .     S
Cu848  N854    2.032   .     S
Cu848  O858    1.974   .     S
Cu848  O862    1.967   .     S
Cu848  O856    1.973   .     S
N863   H864    1.026   .     S
N863   C865    1.448   .     S
C865   H866    1.108   .     S
C865   H867    1.107   .     S
C865   H868    1.106   .     S
N869   C871    1.446   .     S
N869   H870    1.030   .     S
C871   H872    1.101   .     S
C871   H873    1.109   .     S
C871   H874    1.110   .     S
N875   H876    1.027   .     S
N875   C877    1.447   .     S
C877   H879    1.108   .     S
C877   H880    1.106   .     S
C877   H878    1.110   .     S
N881   C883    1.448   .     S
N881   H882    1.028   .     S
C883   H885    1.108   .     S
C883   H886    1.105   .     S
C883   H884    1.107   .     S
C887   N888    1.156   .     T
C889   N890    1.156   .     T
C891   N892    1.156   .     T
C893   N894    1.156   .     T
C895   N896    1.157   .     T
C897   N898    1.156   .     T
C899   N900    1.156   .     T
C901   N902    1.156   .     T
C903   O940    1.310   .     A
C903   C928    1.476   .     S
C903   O937    1.299   .     A
C904   O938    1.307   .     A
C904   O939    1.302   .     A
C904   C927    1.476   .     S
C905   O944    1.304   .     A
C905   C923    1.488   .     S
C905   O941    1.312   .     A
C906   O943    1.310   .     A
C906   O942    1.305   .     A
C906   C924    1.487   .     S
C907   N945    1.426   .     S
C907   N936    1.377   .     A
C907   C1402   1.441   1_545 S
C908   N935    1.380   .     A
C908   N951    1.426   .     S
C908   C1155   1.434   .     S
C909   N957    1.426   .     S
C909   N936    1.374   .     A
C909   C1400   1.434   1_545 S
C910   N963    1.426   .     S
C910   N935    1.375   .     A
C910   C1153   1.441   .     S
C911   C928    1.404   .     A
C911   C977    1.447   .     S
C912   C979    1.447   .     S
C912   C927    1.410   .     A
C912   C750    1.394   1_655 S
C913   C981    1.445   .     S
C913   C927    1.404   .     A
C913   C747    1.390   1_655 S
C914   C983    1.449   .     S
C914   C928    1.413   .     A
C915   H931    1.083   .     S
C915   C925    1.407   .     A
C915   C919    1.399   .     A
C916   C920    1.387   .     A
C916   C926    1.406   .     A
C916   H932    1.077   .     S
C917   C921    1.399   .     A
C917   C926    1.408   .     A
C917   H933    1.083   .     S
C918   C922    1.387   .     A
C918   C925    1.406   .     A
C918   H934    1.077   .     S
C919   C969    1.441   .     S
C919   C923    1.412   .     A
C920   C971    1.442   .     S
C920   C924    1.410   .     A
C921   C973    1.441   .     S
C921   C924    1.413   .     A
C922   C975    1.443   .     S
C922   C923    1.411   .     A
C926   C187    1.492   1_556 S
Cu929  N935    2.032   .     S
Cu929  O941    1.967   .     S
Cu929  O937    1.973   .     S
Cu929  O943    1.967   .     S
Cu929  O939    1.974   .     S
Cu929  Cu930   2.704   .     S
Cu930  O942    1.967   .     S
Cu930  N936    2.032   .     S
Cu930  O940    1.974   .     S
Cu930  O944    1.967   .     S
Cu930  O938    1.973   .     S
N945   H946    1.026   .     S
N945   C947    1.448   .     S
C947   H948    1.108   .     S
C947   H949    1.107   .     S
C947   H950    1.106   .     S
N951   C953    1.446   .     S
N951   H952    1.030   .     S
C953   H954    1.101   .     S
C953   H955    1.109   .     S
C953   H956    1.110   .     S
N957   H958    1.027   .     S
N957   C959    1.447   .     S
C959   H961    1.108   .     S
C959   H962    1.106   .     S
C959   H960    1.110   .     S
N963   C965    1.448   .     S
N963   H964    1.028   .     S
C965   H967    1.108   .     S
C965   H968    1.105   .     S
C965   H966    1.107   .     S
C969   N970    1.156   .     T
C971   N972    1.156   .     T
C973   N974    1.156   .     T
C975   N976    1.156   .     T
C977   N978    1.157   .     T
C979   N980    1.156   .     T
C981   N982    1.156   .     T
C983   N984    1.156   .     T
C985   O1022   1.310   .     A
C985   C1010   1.476   .     S
C985   O1019   1.299   .     A
C986   O1020   1.307   .     A
C986   O1021   1.302   .     A
C986   C1009   1.476   .     S
C987   O1026   1.304   .     A
C987   C1005   1.488   .     S
C987   O1023   1.312   .     A
C988   O1025   1.310   .     A
C988   O1024   1.305   .     A
C988   C1006   1.487   .     S
C989   N1027   1.426   .     S
C989   N1018   1.377   .     A
C990   N1017   1.380   .     A
C990   N1033   1.426   .     S
C990   C1237   1.434   .     S
C991   N1039   1.426   .     S
C991   N1018   1.374   .     A
C992   N1045   1.426   .     S
C992   N1017   1.375   .     A
C992   C1235   1.441   .     S
C993   C1010   1.404   .     A
C993   C1059   1.447   .     S
C993   C1159   1.390   1_455 S
C994   C1061   1.447   .     S
C994   C1009   1.410   .     A
C994   C1078   1.394   .     S
C995   C1063   1.445   .     S
C995   C1009   1.404   .     A
C995   C1075   1.390   .     S
C996   C1065   1.449   .     S
C996   C1010   1.413   .     A
C996   C1158   1.394   1_455 S
C997   H1013   1.083   .     S
C997   C1007   1.407   .     A
C997   C1001   1.399   .     A
C998   C1002   1.387   .     A
C998   C1008   1.406   .     A
C998   H1014   1.077   .     S
C999   C1003   1.399   .     A
C999   C1008   1.408   .     A
C999   H1015   1.083   .     S
C1000  C1004   1.387   .     A
C1000  C1007   1.406   .     A
C1000  H1016   1.077   .     S
C1001  C1051   1.441   .     S
C1001  C1005   1.412   .     A
C1002  C1053   1.442   .     S
C1002  C1006   1.410   .     A
C1003  C1055   1.441   .     S
C1003  C1006   1.413   .     A
C1004  C1057   1.443   .     S
C1004  C1005   1.411   .     A
C1008  C269    1.492   1_556 S
Cu1011 N1017   2.032   .     S
Cu1011 O1023   1.967   .     S
Cu1011 O1019   1.973   .     S
Cu1011 O1025   1.967   .     S
Cu1011 O1021   1.974   .     S
Cu1011 Cu1012  2.704   .     S
Cu1012 O1024   1.967   .     S
Cu1012 N1018   2.032   .     S
Cu1012 O1022   1.974   .     S
Cu1012 O1026   1.967   .     S
Cu1012 O1020   1.973   .     S
N1027  H1028   1.026   .     S
N1027  C1029   1.448   .     S
C1029  H1030   1.108   .     S
C1029  H1031   1.107   .     S
C1029  H1032   1.106   .     S
N1033  C1035   1.446   .     S
N1033  H1034   1.030   .     S
C1035  H1036   1.101   .     S
C1035  H1037   1.109   .     S
C1035  H1038   1.110   .     S
N1039  H1040   1.027   .     S
N1039  C1041   1.447   .     S
C1041  H1043   1.108   .     S
C1041  H1044   1.106   .     S
C1041  H1042   1.110   .     S
N1045  C1047   1.448   .     S
N1045  H1046   1.028   .     S
C1047  H1049   1.108   .     S
C1047  H1050   1.105   .     S
C1047  H1048   1.107   .     S
C1051  N1052   1.156   .     T
C1053  N1054   1.156   .     T
C1055  N1056   1.156   .     T
C1057  N1058   1.156   .     T
C1059  N1060   1.157   .     T
C1061  N1062   1.156   .     T
C1063  N1064   1.156   .     T
C1065  N1066   1.156   .     T
C1067  O1104   1.310   .     A
C1067  C1092   1.476   .     S
C1067  O1101   1.299   .     A
C1068  O1102   1.307   .     A
C1068  O1103   1.302   .     A
C1068  C1091   1.476   .     S
C1069  O1108   1.304   .     A
C1069  C1087   1.488   .     S
C1069  O1105   1.312   .     A
C1070  O1107   1.310   .     A
C1070  O1106   1.305   .     A
C1070  C1088   1.487   .     S
C1071  N1109   1.426   .     S
C1071  N1100   1.377   .     A
C1072  N1099   1.380   .     A
C1072  N1115   1.426   .     S
C1072  C1319   1.434   .     S
C1073  N1121   1.426   .     S
C1073  N1100   1.374   .     A
C1074  N1127   1.426   .     S
C1074  N1099   1.375   .     A
C1074  C1317   1.441   .     S
C1075  C1092   1.404   .     A
C1075  C1141   1.447   .     S
C1076  C1143   1.447   .     S
C1076  C1091   1.410   .     A
C1076  C1160   1.394   .     S
C1077  C1145   1.445   .     S
C1077  C1091   1.404   .     A
C1077  C1157   1.390   .     S
C1078  C1147   1.449   .     S
C1078  C1092   1.413   .     A
C1079  H1095   1.083   .     S
C1079  C1089   1.407   .     A
C1079  C1083   1.399   .     A
C1080  C1084   1.387   .     A
C1080  C1090   1.406   .     A
C1080  H1096   1.077   .     S
C1081  C1085   1.399   .     A
C1081  C1090   1.408   .     A
C1081  H1097   1.083   .     S
C1082  C1086   1.387   .     A
C1082  C1089   1.406   .     A
C1082  H1098   1.077   .     S
C1083  C1133   1.441   .     S
C1083  C1087   1.412   .     A
C1084  C1135   1.442   .     S
C1084  C1088   1.410   .     A
C1085  C1137   1.441   .     S
C1085  C1088   1.413   .     A
C1086  C1139   1.443   .     S
C1086  C1087   1.411   .     A
C1090  C351    1.492   1_556 S
Cu1093 N1099   2.032   .     S
Cu1093 O1105   1.967   .     S
Cu1093 O1101   1.973   .     S
Cu1093 O1107   1.967   .     S
Cu1093 O1103   1.974   .     S
Cu1093 Cu1094  2.704   .     S
Cu1094 O1106   1.967   .     S
Cu1094 N1100   2.032   .     S
Cu1094 O1104   1.974   .     S
Cu1094 O1108   1.967   .     S
Cu1094 O1102   1.973   .     S
N1109  H1110   1.026   .     S
N1109  C1111   1.448   .     S
C1111  H1112   1.108   .     S
C1111  H1113   1.107   .     S
C1111  H1114   1.106   .     S
N1115  C1117   1.446   .     S
N1115  H1116   1.030   .     S
C1117  H1118   1.101   .     S
C1117  H1119   1.109   .     S
C1117  H1120   1.110   .     S
N1121  H1122   1.027   .     S
N1121  C1123   1.447   .     S
C1123  H1125   1.108   .     S
C1123  H1126   1.106   .     S
C1123  H1124   1.110   .     S
N1127  C1129   1.448   .     S
N1127  H1128   1.028   .     S
C1129  H1131   1.108   .     S
C1129  H1132   1.105   .     S
C1129  H1130   1.107   .     S
C1133  N1134   1.156   .     T
C1135  N1136   1.156   .     T
C1137  N1138   1.156   .     T
C1139  N1140   1.156   .     T
C1141  N1142   1.157   .     T
C1143  N1144   1.156   .     T
C1145  N1146   1.156   .     T
C1147  N1148   1.156   .     T
C1149  O1186   1.310   .     A
C1149  C1174   1.476   .     S
C1149  O1183   1.299   .     A
C1150  O1184   1.307   .     A
C1150  O1185   1.302   .     A
C1150  C1173   1.476   .     S
C1151  O1190   1.304   .     A
C1151  C1169   1.488   .     S
C1151  O1187   1.312   .     A
C1152  O1189   1.310   .     A
C1152  O1188   1.305   .     A
C1152  C1170   1.487   .     S
C1153  N1191   1.426   .     S
C1153  N1182   1.377   .     A
C1154  N1181   1.380   .     A
C1154  N1197   1.426   .     S
C1154  C1401   1.434   .     S
C1155  N1203   1.426   .     S
C1155  N1182   1.374   .     A
C1156  N1209   1.426   .     S
C1156  N1181   1.375   .     A
C1156  C1399   1.441   .     S
C1157  C1174   1.404   .     A
C1157  C1223   1.447   .     S
C1158  C1225   1.447   .     S
C1158  C1173   1.410   .     A
C1158  C996    1.394   1_655 S
C1159  C1227   1.445   .     S
C1159  C1173   1.404   .     A
C1159  C993    1.390   1_655 S
C1160  C1229   1.449   .     S
C1160  C1174   1.413   .     A
C1161  H1177   1.083   .     S
C1161  C1171   1.407   .     A
C1161  C1165   1.399   .     A
C1162  C1166   1.387   .     A
C1162  C1172   1.406   .     A
C1162  H1178   1.077   .     S
C1163  C1167   1.399   .     A
C1163  C1172   1.408   .     A
C1163  H1179   1.083   .     S
C1164  C1168   1.387   .     A
C1164  C1171   1.406   .     A
C1164  H1180   1.077   .     S
C1165  C1215   1.441   .     S
C1165  C1169   1.412   .     A
C1166  C1217   1.442   .     S
C1166  C1170   1.410   .     A
C1167  C1219   1.441   .     S
C1167  C1170   1.413   .     A
C1168  C1221   1.443   .     S
C1168  C1169   1.411   .     A
C1172  C433    1.492   1_556 S
Cu1175 N1181   2.032   .     S
Cu1175 O1187   1.967   .     S
Cu1175 O1183   1.973   .     S
Cu1175 O1189   1.967   .     S
Cu1175 O1185   1.974   .     S
Cu1175 Cu1176  2.704   .     S
Cu1176 O1188   1.967   .     S
Cu1176 N1182   2.032   .     S
Cu1176 O1186   1.974   .     S
Cu1176 O1190   1.967   .     S
Cu1176 O1184   1.973   .     S
N1191  H1192   1.026   .     S
N1191  C1193   1.448   .     S
C1193  H1194   1.108   .     S
C1193  H1195   1.107   .     S
C1193  H1196   1.106   .     S
N1197  C1199   1.446   .     S
N1197  H1198   1.030   .     S
C1199  H1200   1.101   .     S
C1199  H1201   1.109   .     S
C1199  H1202   1.110   .     S
N1203  H1204   1.027   .     S
N1203  C1205   1.447   .     S
C1205  H1207   1.108   .     S
C1205  H1208   1.106   .     S
C1205  H1206   1.110   .     S
N1209  C1211   1.448   .     S
N1209  H1210   1.028   .     S
C1211  H1213   1.108   .     S
C1211  H1214   1.105   .     S
C1211  H1212   1.107   .     S
C1215  N1216   1.156   .     T
C1217  N1218   1.156   .     T
C1219  N1220   1.156   .     T
C1221  N1222   1.156   .     T
C1223  N1224   1.157   .     T
C1225  N1226   1.156   .     T
C1227  N1228   1.156   .     T
C1229  N1230   1.156   .     T
C1231  O1268   1.310   .     A
C1231  C1256   1.476   .     S
C1231  O1265   1.299   .     A
C1232  O1266   1.307   .     A
C1232  O1267   1.302   .     A
C1232  C1255   1.476   .     S
C1233  O1272   1.304   .     A
C1233  C1251   1.488   .     S
C1233  O1269   1.312   .     A
C1234  O1271   1.310   .     A
C1234  O1270   1.305   .     A
C1234  C1252   1.487   .     S
C1235  N1273   1.426   .     S
C1235  N1264   1.377   .     A
C1236  N1263   1.380   .     A
C1236  N1279   1.426   .     S
C1236  C745    1.434   1_565 S
C1237  N1285   1.426   .     S
C1237  N1264   1.374   .     A
C1238  N1291   1.426   .     S
C1238  N1263   1.375   .     A
C1238  C743    1.441   1_565 S
C1239  C1256   1.404   .     A
C1239  C1305   1.447   .     S
C1239  C1405   1.390   1_455 S
C1240  C1307   1.447   .     S
C1240  C1255   1.410   .     A
C1240  C1324   1.394   .     S
C1241  C1309   1.445   .     S
C1241  C1255   1.404   .     A
C1241  C1321   1.390   .     S
C1242  C1311   1.449   .     S
C1242  C1256   1.413   .     A
C1242  C1404   1.394   1_455 S
C1243  H1259   1.083   .     S
C1243  C1253   1.407   .     A
C1243  C1247   1.399   .     A
C1244  C1248   1.387   .     A
C1244  C1254   1.406   .     A
C1244  H1260   1.077   .     S
C1245  C1249   1.399   .     A
C1245  C1254   1.408   .     A
C1245  H1261   1.083   .     S
C1246  C1250   1.387   .     A
C1246  C1253   1.406   .     A
C1246  H1262   1.077   .     S
C1247  C1297   1.441   .     S
C1247  C1251   1.412   .     A
C1248  C1299   1.442   .     S
C1248  C1252   1.410   .     A
C1249  C1301   1.441   .     S
C1249  C1252   1.413   .     A
C1250  C1303   1.443   .     S
C1250  C1251   1.411   .     A
C1254  C515    1.492   1_556 S
Cu1257 N1263   2.032   .     S
Cu1257 O1269   1.967   .     S
Cu1257 O1265   1.973   .     S
Cu1257 O1271   1.967   .     S
Cu1257 O1267   1.974   .     S
Cu1257 Cu1258  2.704   .     S
Cu1258 O1270   1.967   .     S
Cu1258 N1264   2.032   .     S
Cu1258 O1268   1.974   .     S
Cu1258 O1272   1.967   .     S
Cu1258 O1266   1.973   .     S
N1273  H1274   1.026   .     S
N1273  C1275   1.448   .     S
C1275  H1276   1.108   .     S
C1275  H1277   1.107   .     S
C1275  H1278   1.106   .     S
N1279  C1281   1.446   .     S
N1279  H1280   1.030   .     S
C1281  H1282   1.101   .     S
C1281  H1283   1.109   .     S
C1281  H1284   1.110   .     S
N1285  H1286   1.027   .     S
N1285  C1287   1.447   .     S
C1287  H1289   1.108   .     S
C1287  H1290   1.106   .     S
C1287  H1288   1.110   .     S
N1291  C1293   1.448   .     S
N1291  H1292   1.028   .     S
C1293  H1295   1.108   .     S
C1293  H1296   1.105   .     S
C1293  H1294   1.107   .     S
C1297  N1298   1.156   .     T
C1299  N1300   1.156   .     T
C1301  N1302   1.156   .     T
C1303  N1304   1.156   .     T
C1305  N1306   1.157   .     T
C1307  N1308   1.156   .     T
C1309  N1310   1.156   .     T
C1311  N1312   1.156   .     T
C1313  O1350   1.310   .     A
C1313  C1338   1.476   .     S
C1313  O1347   1.299   .     A
C1314  O1348   1.307   .     A
C1314  O1349   1.302   .     A
C1314  C1337   1.476   .     S
C1315  O1354   1.304   .     A
C1315  C1333   1.488   .     S
C1315  O1351   1.312   .     A
C1316  O1353   1.310   .     A
C1316  O1352   1.305   .     A
C1316  C1334   1.487   .     S
C1317  N1355   1.426   .     S
C1317  N1346   1.377   .     A
C1318  N1345   1.380   .     A
C1318  N1361   1.426   .     S
C1318  C827    1.434   1_565 S
C1319  N1367   1.426   .     S
C1319  N1346   1.374   .     A
C1320  N1373   1.426   .     S
C1320  N1345   1.375   .     A
C1320  C825    1.441   1_565 S
C1321  C1338   1.404   .     A
C1321  C1387   1.447   .     S
C1322  C1389   1.447   .     S
C1322  C1337   1.410   .     A
C1322  C1406   1.394   .     S
C1323  C1391   1.445   .     S
C1323  C1337   1.404   .     A
C1323  C1403   1.390   .     S
C1324  C1393   1.449   .     S
C1324  C1338   1.413   .     A
C1325  H1341   1.083   .     S
C1325  C1335   1.407   .     A
C1325  C1329   1.399   .     A
C1326  C1330   1.387   .     A
C1326  C1336   1.406   .     A
C1326  H1342   1.077   .     S
C1327  C1331   1.399   .     A
C1327  C1336   1.408   .     A
C1327  H1343   1.083   .     S
C1328  C1332   1.387   .     A
C1328  C1335   1.406   .     A
C1328  H1344   1.077   .     S
C1329  C1379   1.441   .     S
C1329  C1333   1.412   .     A
C1330  C1381   1.442   .     S
C1330  C1334   1.410   .     A
C1331  C1383   1.441   .     S
C1331  C1334   1.413   .     A
C1332  C1385   1.443   .     S
C1332  C1333   1.411   .     A
C1336  C597    1.492   1_556 S
Cu1339 N1345   2.032   .     S
Cu1339 O1351   1.967   .     S
Cu1339 O1347   1.973   .     S
Cu1339 O1353   1.967   .     S
Cu1339 O1349   1.974   .     S
Cu1339 Cu1340  2.704   .     S
Cu1340 O1352   1.967   .     S
Cu1340 N1346   2.032   .     S
Cu1340 O1350   1.974   .     S
Cu1340 O1354   1.967   .     S
Cu1340 O1348   1.973   .     S
N1355  H1356   1.026   .     S
N1355  C1357   1.448   .     S
C1357  H1358   1.108   .     S
C1357  H1359   1.107   .     S
C1357  H1360   1.106   .     S
N1361  C1363   1.446   .     S
N1361  H1362   1.030   .     S
C1363  H1364   1.101   .     S
C1363  H1365   1.109   .     S
C1363  H1366   1.110   .     S
N1367  H1368   1.027   .     S
N1367  C1369   1.447   .     S
C1369  H1371   1.108   .     S
C1369  H1372   1.106   .     S
C1369  H1370   1.110   .     S
N1373  C1375   1.448   .     S
N1373  H1374   1.028   .     S
C1375  H1377   1.108   .     S
C1375  H1378   1.105   .     S
C1375  H1376   1.107   .     S
C1379  N1380   1.156   .     T
C1381  N1382   1.156   .     T
C1383  N1384   1.156   .     T
C1385  N1386   1.156   .     T
C1387  N1388   1.157   .     T
C1389  N1390   1.156   .     T
C1391  N1392   1.156   .     T
C1393  N1394   1.156   .     T
C1395  O1432   1.310   .     A
C1395  C1420   1.476   .     S
C1395  O1429   1.299   .     A
C1396  O1430   1.307   .     A
C1396  O1431   1.302   .     A
C1396  C1419   1.476   .     S
C1397  O1436   1.304   .     A
C1397  C1415   1.488   .     S
C1397  O1433   1.312   .     A
C1398  O1435   1.310   .     A
C1398  O1434   1.305   .     A
C1398  C1416   1.487   .     S
C1399  N1437   1.426   .     S
C1399  N1428   1.377   .     A
C1400  N1427   1.380   .     A
C1400  N1443   1.426   .     S
C1400  C909    1.434   1_565 S
C1401  N1449   1.426   .     S
C1401  N1428   1.374   .     A
C1402  N1455   1.426   .     S
C1402  N1427   1.375   .     A
C1402  C907    1.441   1_565 S
C1403  C1420   1.404   .     A
C1403  C1469   1.447   .     S
C1404  C1471   1.447   .     S
C1404  C1419   1.410   .     A
C1404  C1242   1.394   1_655 S
C1405  C1473   1.445   .     S
C1405  C1419   1.404   .     A
C1405  C1239   1.390   1_655 S
C1406  C1475   1.449   .     S
C1406  C1420   1.413   .     A
C1407  H1423   1.083   .     S
C1407  C1417   1.407   .     A
C1407  C1411   1.399   .     A
C1408  C1412   1.387   .     A
C1408  C1418   1.406   .     A
C1408  H1424   1.077   .     S
C1409  C1413   1.399   .     A
C1409  C1418   1.408   .     A
C1409  H1425   1.083   .     S
C1410  C1414   1.387   .     A
C1410  C1417   1.406   .     A
C1410  H1426   1.077   .     S
C1411  C1461   1.441   .     S
C1411  C1415   1.412   .     A
C1412  C1463   1.442   .     S
C1412  C1416   1.410   .     A
C1413  C1465   1.441   .     S
C1413  C1416   1.413   .     A
C1414  C1467   1.443   .     S
C1414  C1415   1.411   .     A
C1418  C679    1.492   1_556 S
Cu1421 N1427   2.032   .     S
Cu1421 O1433   1.967   .     S
Cu1421 O1429   1.973   .     S
Cu1421 O1435   1.967   .     S
Cu1421 O1431   1.974   .     S
Cu1421 Cu1422  2.704   .     S
Cu1422 O1434   1.967   .     S
Cu1422 N1428   2.032   .     S
Cu1422 O1432   1.974   .     S
Cu1422 O1436   1.967   .     S
Cu1422 O1430   1.973   .     S
N1437  H1438   1.026   .     S
N1437  C1439   1.448   .     S
C1439  H1440   1.108   .     S
C1439  H1441   1.107   .     S
C1439  H1442   1.106   .     S
N1443  C1445   1.446   .     S
N1443  H1444   1.030   .     S
C1445  H1446   1.101   .     S
C1445  H1447   1.109   .     S
C1445  H1448   1.110   .     S
N1449  H1450   1.027   .     S
N1449  C1451   1.447   .     S
C1451  H1453   1.108   .     S
C1451  H1454   1.106   .     S
C1451  H1452   1.110   .     S
N1455  C1457   1.448   .     S
N1455  H1456   1.028   .     S
C1457  H1459   1.108   .     S
C1457  H1460   1.105   .     S
C1457  H1458   1.107   .     S
C1461  N1462   1.156   .     T
C1463  N1464   1.156   .     T
C1465  N1466   1.156   .     T
C1467  N1468   1.156   .     T
C1469  N1470   1.157   .     T
C1471  N1472   1.156   .     T
C1473  N1474   1.156   .     T
C1475  N1476   1.156   .     T
