data_str_m2_o1_o10_pcu_sym.122
_audit_creation_date              2020-01-03
_audit_creation_method            'Materials Studio'
_symmetry_space_group_name_H-M    'P1'
_symmetry_Int_Tables_number       1
_symmetry_cell_setting            triclinic
loop_
_symmetry_equiv_pos_as_xyz
  x,y,z
_cell_length_a                    26.5311
_cell_length_b                    32.7657
_cell_length_c                    28.8516
_cell_angle_alpha                 90.3372
_cell_angle_beta                  97.4381
_cell_angle_gamma                 95.7234
loop_
_atom_site_label
_atom_site_type_symbol
_atom_site_fract_x
_atom_site_fract_y
_atom_site_fract_z
_atom_site_U_iso_or_equiv
_atom_site_adp_type
_atom_site_occupancy
C1     C     0.16847   0.08760   0.16663   0.00000  Uiso   1.00
C2     C     0.16510   0.24575   0.16675   0.00000  Uiso   1.00
C3     C     0.06814   0.16630   0.15482   0.00000  Uiso   1.00
C4     C     0.26517   0.16688   0.17855   0.00000  Uiso   1.00
C5     C     0.01268   0.16255   0.14858   0.00000  Uiso   1.00
C6     C     0.32061   0.17028   0.18499   0.00000  Uiso   1.00
C7     C     0.16226   0.02014   0.12394   0.00000  Uiso   1.00
C8     C     0.17239   0.31323   0.20959   0.00000  Uiso   1.00
C9     C     0.15463   0.31087   0.12455   0.00000  Uiso   1.00
C10    C     0.17973   0.02253   0.20894   0.00000  Uiso   1.00
C11    C     0.16334   0.29035   0.16711   0.00000  Uiso   1.00
C12    C     0.17077   0.04303   0.16637   0.00000  Uiso   1.00
C13    C     0.14000   0.13549   0.02200   0.00000  Uiso   1.00
C14    C     0.19380   0.19750   0.31117   0.00000  Uiso   1.00
C15    C     0.14038   0.13517   0.30563   0.00000  Uiso   1.00
C16    C     0.19257   0.19835   0.02727   0.00000  Uiso   1.00
Cu17   Cu    0.16667   0.16667   0.21355   0.00000  Uiso   1.00
Cu18   Cu    0.16667   0.16666   0.11978   0.00000  Uiso   1.00
N19    N     0.16668   0.16668   0.28403   0.00000  Uiso   1.00
N20    N     0.16665   0.16666   0.04931   0.00000  Uiso   1.00
O21    O     0.16666   0.10655   0.20625   0.00000  Uiso   1.00
O22    O     0.16667   0.22678   0.12709   0.00000  Uiso   1.00
O23    O     0.16666   0.10654   0.12706   0.00000  Uiso   1.00
O24    O     0.16667   0.22679   0.20628   0.00000  Uiso   1.00
O25    O     0.09161   0.16667   0.19712   0.00000  Uiso   1.00
O26    O     0.24172   0.16666   0.13621   0.00000  Uiso   1.00
O27    O     0.09161   0.16666   0.11793   0.00000  Uiso   1.00
O28    O     0.24172   0.16667   0.21540   0.00000  Uiso   1.00
O29    O     0.32025   0.14433   0.10755   0.00000  Uiso   1.00
C30    C     0.32268   0.17199   0.07041   0.00000  Uiso   1.00
H31    H     0.02254   0.16822   0.05193   0.00000  Uiso   1.00
H32    H     0.32515   0.20477   0.08145   0.00000  Uiso   1.00
H33    H     0.28784   0.16458   0.04515   0.00000  Uiso   1.00
O34    O     0.01290   0.18823   0.22623   0.00000  Uiso   1.00
C35    C     0.01186   0.15958   0.26250   0.00000  Uiso   1.00
H36    H     0.01644   0.12792   0.25086   0.00000  Uiso   1.00
H37    H     0.30932   0.15869   0.27829   0.00000  Uiso   1.00
H38    H     0.04363   0.16968   0.29024   0.00000  Uiso   1.00
O39    O     0.15885   0.03888   0.08114   0.00000  Uiso   1.00
C40    C     0.20724   0.04124   0.06536   0.00000  Uiso   1.00
H41    H     0.23676   0.05957   0.09010   0.00000  Uiso   1.00
H42    H     0.20478   0.05698   0.03133   0.00000  Uiso   1.00
H43    H     0.21915   0.01021   0.05955   0.00000  Uiso   1.00
O44    O     0.17688   0.29446   0.25240   0.00000  Uiso   1.00
C45    C     0.12849   0.29039   0.26824   0.00000  Uiso   1.00
H46    H     0.13193   0.27509   0.30255   0.00000  Uiso   1.00
H47    H     0.09986   0.27094   0.24381   0.00000  Uiso   1.00
H48    H     0.11467   0.32077   0.27353   0.00000  Uiso   1.00
O49    O     0.14028   0.28967   0.08256   0.00000  Uiso   1.00
C50    C     0.08648   0.28307   0.07485   0.00000  Uiso   1.00
H51    H     0.07496   0.26528   0.04168   0.00000  Uiso   1.00
H52    H     0.06913   0.31263   0.07114   0.00000  Uiso   1.00
H53    H     0.07110   0.26476   0.10323   0.00000  Uiso   1.00
O54    O     0.19430   0.04380   0.25087   0.00000  Uiso   1.00
C55    C     0.24806   0.05103   0.25796   0.00000  Uiso   1.00
H56    H     0.26601   0.02171   0.26115   0.00000  Uiso   1.00
H57    H     0.25974   0.06867   0.29121   0.00000  Uiso   1.00
H58    H     0.26267   0.06974   0.22952   0.00000  Uiso   1.00
O59    O     0.11866   0.10186   0.04397   0.00000  Uiso   1.00
C60    C     0.06478   0.09719   0.03571   0.00000  Uiso   1.00
H61    H     0.05177   0.06515   0.02386   0.00000  Uiso   1.00
H62    H     0.04774   0.11782   0.00916   0.00000  Uiso   1.00
H63    H     0.04963   0.10148   0.06917   0.00000  Uiso   1.00
O64    O     0.21712   0.23013   0.28886   0.00000  Uiso   1.00
C65    C     0.27067   0.23523   0.30112   0.00000  Uiso   1.00
H66    H     0.28653   0.20969   0.32106   0.00000  Uiso   1.00
H67    H     0.28177   0.26416   0.32171   0.00000  Uiso   1.00
H68    H     0.28877   0.23841   0.26861   0.00000  Uiso   1.00
C69    C     0.11208   0.10031   0.27756   0.00000  Uiso   1.00
H70    H     0.09214   0.10500   0.24333   0.00000  Uiso   1.00
O71    O     0.11112   0.06541   0.29215   0.00000  Uiso   1.00
C72    C     0.21753   0.23581   0.05264   0.00000  Uiso   1.00
H73    H     0.21181   0.26552   0.03759   0.00000  Uiso   1.00
O74    O     0.24733   0.23436   0.08824   0.00000  Uiso   1.00
C75    C     0.50180   0.08760   0.16663   0.00000  Uiso   1.00
C76    C     0.49844   0.24575   0.16675   0.00000  Uiso   1.00
C77    C     0.40148   0.16630   0.15482   0.00000  Uiso   1.00
C78    C     0.59851   0.16688   0.17855   0.00000  Uiso   1.00
C79    C     0.34601   0.16255   0.14858   0.00000  Uiso   1.00
C80    C     0.65394   0.17028   0.18499   0.00000  Uiso   1.00
C81    C     0.49560   0.02014   0.12394   0.00000  Uiso   1.00
C82    C     0.50572   0.31323   0.20959   0.00000  Uiso   1.00
C83    C     0.48796   0.31087   0.12455   0.00000  Uiso   1.00
C84    C     0.51306   0.02253   0.20894   0.00000  Uiso   1.00
C85    C     0.49668   0.29035   0.16711   0.00000  Uiso   1.00
C86    C     0.50410   0.04303   0.16637   0.00000  Uiso   1.00
C87    C     0.47333   0.13549   0.02200   0.00000  Uiso   1.00
C88    C     0.52713   0.19750   0.31117   0.00000  Uiso   1.00
C89    C     0.47372   0.13517   0.30563   0.00000  Uiso   1.00
C90    C     0.52591   0.19835   0.02727   0.00000  Uiso   1.00
Cu91   Cu    0.50000   0.16667   0.21355   0.00000  Uiso   1.00
Cu92   Cu    0.50000   0.16666   0.11978   0.00000  Uiso   1.00
N93    N     0.50001   0.16668   0.28403   0.00000  Uiso   1.00
N94    N     0.49999   0.16666   0.04931   0.00000  Uiso   1.00
O95    O     0.50000   0.10655   0.20625   0.00000  Uiso   1.00
O96    O     0.50000   0.22678   0.12709   0.00000  Uiso   1.00
O97    O     0.50000   0.10654   0.12706   0.00000  Uiso   1.00
O98    O     0.50000   0.22679   0.20628   0.00000  Uiso   1.00
O99    O     0.42495   0.16667   0.19712   0.00000  Uiso   1.00
O100   O     0.57505   0.16666   0.13621   0.00000  Uiso   1.00
O101   O     0.42494   0.16666   0.11793   0.00000  Uiso   1.00
O102   O     0.57506   0.16667   0.21540   0.00000  Uiso   1.00
O103   O     0.65358   0.14433   0.10755   0.00000  Uiso   1.00
C104   C     0.65601   0.17199   0.07041   0.00000  Uiso   1.00
H105   H     0.35588   0.16822   0.05193   0.00000  Uiso   1.00
H106   H     0.65849   0.20477   0.08145   0.00000  Uiso   1.00
H107   H     0.62117   0.16458   0.04515   0.00000  Uiso   1.00
O108   O     0.34623   0.18823   0.22623   0.00000  Uiso   1.00
C109   C     0.34520   0.15958   0.26250   0.00000  Uiso   1.00
H110   H     0.34978   0.12792   0.25086   0.00000  Uiso   1.00
H111   H     0.64265   0.15869   0.27829   0.00000  Uiso   1.00
H112   H     0.37696   0.16968   0.29024   0.00000  Uiso   1.00
O113   O     0.49219   0.03888   0.08114   0.00000  Uiso   1.00
C114   C     0.54057   0.04124   0.06536   0.00000  Uiso   1.00
H115   H     0.57010   0.05957   0.09010   0.00000  Uiso   1.00
H116   H     0.53812   0.05698   0.03133   0.00000  Uiso   1.00
H117   H     0.55248   0.01021   0.05955   0.00000  Uiso   1.00
O118   O     0.51021   0.29446   0.25240   0.00000  Uiso   1.00
C119   C     0.46182   0.29039   0.26824   0.00000  Uiso   1.00
H120   H     0.46527   0.27509   0.30255   0.00000  Uiso   1.00
H121   H     0.43319   0.27094   0.24381   0.00000  Uiso   1.00
H122   H     0.44800   0.32077   0.27353   0.00000  Uiso   1.00
O123   O     0.47361   0.28967   0.08256   0.00000  Uiso   1.00
C124   C     0.41982   0.28307   0.07485   0.00000  Uiso   1.00
H125   H     0.40829   0.26528   0.04168   0.00000  Uiso   1.00
H126   H     0.40247   0.31263   0.07114   0.00000  Uiso   1.00
H127   H     0.40444   0.26476   0.10323   0.00000  Uiso   1.00
O128   O     0.52763   0.04380   0.25087   0.00000  Uiso   1.00
C129   C     0.58139   0.05103   0.25796   0.00000  Uiso   1.00
H130   H     0.59935   0.02171   0.26115   0.00000  Uiso   1.00
H131   H     0.59308   0.06867   0.29121   0.00000  Uiso   1.00
H132   H     0.59601   0.06974   0.22952   0.00000  Uiso   1.00
O133   O     0.45199   0.10186   0.04397   0.00000  Uiso   1.00
C134   C     0.39811   0.09719   0.03571   0.00000  Uiso   1.00
H135   H     0.38511   0.06515   0.02386   0.00000  Uiso   1.00
H136   H     0.38108   0.11782   0.00916   0.00000  Uiso   1.00
H137   H     0.38296   0.10148   0.06917   0.00000  Uiso   1.00
O138   O     0.55045   0.23013   0.28886   0.00000  Uiso   1.00
C139   C     0.60400   0.23523   0.30112   0.00000  Uiso   1.00
H140   H     0.61987   0.20969   0.32106   0.00000  Uiso   1.00
H141   H     0.61510   0.26416   0.32171   0.00000  Uiso   1.00
H142   H     0.62210   0.23841   0.26861   0.00000  Uiso   1.00
C143   C     0.44541   0.10031   0.27756   0.00000  Uiso   1.00
H144   H     0.42548   0.10500   0.24333   0.00000  Uiso   1.00
O145   O     0.44445   0.06541   0.29215   0.00000  Uiso   1.00
C146   C     0.55086   0.23581   0.05264   0.00000  Uiso   1.00
H147   H     0.54514   0.26552   0.03759   0.00000  Uiso   1.00
O148   O     0.58066   0.23436   0.08824   0.00000  Uiso   1.00
C149   C     0.83514   0.08760   0.16663   0.00000  Uiso   1.00
C150   C     0.83177   0.24575   0.16675   0.00000  Uiso   1.00
C151   C     0.73481   0.16630   0.15482   0.00000  Uiso   1.00
C152   C     0.93184   0.16688   0.17855   0.00000  Uiso   1.00
C153   C     0.67934   0.16255   0.14858   0.00000  Uiso   1.00
C154   C     0.98728   0.17028   0.18499   0.00000  Uiso   1.00
C155   C     0.82893   0.02014   0.12394   0.00000  Uiso   1.00
C156   C     0.83905   0.31323   0.20959   0.00000  Uiso   1.00
C157   C     0.82129   0.31087   0.12455   0.00000  Uiso   1.00
C158   C     0.84639   0.02253   0.20894   0.00000  Uiso   1.00
C159   C     0.83001   0.29035   0.16711   0.00000  Uiso   1.00
C160   C     0.83744   0.04303   0.16637   0.00000  Uiso   1.00
C161   C     0.80666   0.13549   0.02200   0.00000  Uiso   1.00
C162   C     0.86047   0.19750   0.31117   0.00000  Uiso   1.00
C163   C     0.80705   0.13517   0.30563   0.00000  Uiso   1.00
C164   C     0.85924   0.19835   0.02727   0.00000  Uiso   1.00
Cu165  Cu    0.83333   0.16667   0.21355   0.00000  Uiso   1.00
Cu166  Cu    0.83333   0.16666   0.11978   0.00000  Uiso   1.00
N167   N     0.83335   0.16668   0.28403   0.00000  Uiso   1.00
N168   N     0.83332   0.16666   0.04931   0.00000  Uiso   1.00
O169   O     0.83333   0.10655   0.20625   0.00000  Uiso   1.00
O170   O     0.83334   0.22678   0.12709   0.00000  Uiso   1.00
O171   O     0.83333   0.10654   0.12706   0.00000  Uiso   1.00
O172   O     0.83334   0.22679   0.20628   0.00000  Uiso   1.00
O173   O     0.75828   0.16667   0.19712   0.00000  Uiso   1.00
O174   O     0.90839   0.16666   0.13621   0.00000  Uiso   1.00
O175   O     0.75828   0.16666   0.11793   0.00000  Uiso   1.00
O176   O     0.90839   0.16667   0.21540   0.00000  Uiso   1.00
O177   O     0.98691   0.14433   0.10755   0.00000  Uiso   1.00
C178   C     0.98935   0.17199   0.07041   0.00000  Uiso   1.00
H179   H     0.68921   0.16822   0.05193   0.00000  Uiso   1.00
H180   H     0.99182   0.20477   0.08145   0.00000  Uiso   1.00
H181   H     0.95450   0.16458   0.04515   0.00000  Uiso   1.00
O182   O     0.67956   0.18823   0.22623   0.00000  Uiso   1.00
C183   C     0.67853   0.15958   0.26250   0.00000  Uiso   1.00
H184   H     0.68311   0.12792   0.25086   0.00000  Uiso   1.00
H185   H     0.97599   0.15869   0.27829   0.00000  Uiso   1.00
H186   H     0.71029   0.16968   0.29024   0.00000  Uiso   1.00
O187   O     0.82552   0.03888   0.08114   0.00000  Uiso   1.00
C188   C     0.87390   0.04124   0.06536   0.00000  Uiso   1.00
H189   H     0.90343   0.05957   0.09010   0.00000  Uiso   1.00
H190   H     0.87145   0.05698   0.03133   0.00000  Uiso   1.00
H191   H     0.88582   0.01021   0.05955   0.00000  Uiso   1.00
O192   O     0.84354   0.29446   0.25240   0.00000  Uiso   1.00
C193   C     0.79516   0.29039   0.26824   0.00000  Uiso   1.00
H194   H     0.79860   0.27509   0.30255   0.00000  Uiso   1.00
H195   H     0.76652   0.27094   0.24381   0.00000  Uiso   1.00
H196   H     0.78133   0.32077   0.27353   0.00000  Uiso   1.00
O197   O     0.80695   0.28967   0.08256   0.00000  Uiso   1.00
C198   C     0.75315   0.28307   0.07485   0.00000  Uiso   1.00
H199   H     0.74163   0.26528   0.04168   0.00000  Uiso   1.00
H200   H     0.73580   0.31263   0.07114   0.00000  Uiso   1.00
H201   H     0.73777   0.26476   0.10323   0.00000  Uiso   1.00
O202   O     0.86097   0.04380   0.25087   0.00000  Uiso   1.00
C203   C     0.91473   0.05103   0.25796   0.00000  Uiso   1.00
H204   H     0.93268   0.02171   0.26115   0.00000  Uiso   1.00
H205   H     0.92641   0.06867   0.29121   0.00000  Uiso   1.00
H206   H     0.92934   0.06974   0.22952   0.00000  Uiso   1.00
O207   O     0.78533   0.10186   0.04397   0.00000  Uiso   1.00
C208   C     0.73144   0.09719   0.03571   0.00000  Uiso   1.00
H209   H     0.71844   0.06515   0.02386   0.00000  Uiso   1.00
H210   H     0.71441   0.11782   0.00916   0.00000  Uiso   1.00
H211   H     0.71629   0.10148   0.06917   0.00000  Uiso   1.00
O212   O     0.88379   0.23013   0.28886   0.00000  Uiso   1.00
C213   C     0.93733   0.23523   0.30112   0.00000  Uiso   1.00
H214   H     0.95320   0.20969   0.32106   0.00000  Uiso   1.00
H215   H     0.94843   0.26416   0.32171   0.00000  Uiso   1.00
H216   H     0.95543   0.23841   0.26861   0.00000  Uiso   1.00
C217   C     0.77874   0.10031   0.27756   0.00000  Uiso   1.00
H218   H     0.75881   0.10500   0.24333   0.00000  Uiso   1.00
O219   O     0.77778   0.06541   0.29215   0.00000  Uiso   1.00
C220   C     0.88419   0.23581   0.05264   0.00000  Uiso   1.00
H221   H     0.87847   0.26552   0.03759   0.00000  Uiso   1.00
O222   O     0.91399   0.23436   0.08824   0.00000  Uiso   1.00
C223   C     0.16847   0.42093   0.16663   0.00000  Uiso   1.00
C224   C     0.16510   0.57908   0.16675   0.00000  Uiso   1.00
C225   C     0.06814   0.49964   0.15482   0.00000  Uiso   1.00
C226   C     0.26517   0.50021   0.17855   0.00000  Uiso   1.00
C227   C     0.01268   0.49589   0.14858   0.00000  Uiso   1.00
C228   C     0.32061   0.50361   0.18499   0.00000  Uiso   1.00
C229   C     0.16226   0.35347   0.12394   0.00000  Uiso   1.00
C230   C     0.17239   0.64656   0.20959   0.00000  Uiso   1.00
C231   C     0.15463   0.64421   0.12455   0.00000  Uiso   1.00
C232   C     0.17973   0.35587   0.20894   0.00000  Uiso   1.00
C233   C     0.16334   0.62368   0.16711   0.00000  Uiso   1.00
C234   C     0.17077   0.37636   0.16637   0.00000  Uiso   1.00
C235   C     0.14000   0.46883   0.02200   0.00000  Uiso   1.00
C236   C     0.19380   0.53083   0.31117   0.00000  Uiso   1.00
C237   C     0.14038   0.46851   0.30563   0.00000  Uiso   1.00
C238   C     0.19257   0.53168   0.02727   0.00000  Uiso   1.00
Cu239  Cu    0.16667   0.50001   0.21355   0.00000  Uiso   1.00
Cu240  Cu    0.16667   0.49999   0.11978   0.00000  Uiso   1.00
N241   N     0.16668   0.50001   0.28403   0.00000  Uiso   1.00
N242   N     0.16665   0.49999   0.04931   0.00000  Uiso   1.00
O243   O     0.16666   0.43989   0.20625   0.00000  Uiso   1.00
O244   O     0.16667   0.56011   0.12709   0.00000  Uiso   1.00
O245   O     0.16666   0.43988   0.12706   0.00000  Uiso   1.00
O246   O     0.16667   0.56012   0.20628   0.00000  Uiso   1.00
O247   O     0.09161   0.50000   0.19712   0.00000  Uiso   1.00
O248   O     0.24172   0.50000   0.13621   0.00000  Uiso   1.00
O249   O     0.09161   0.49999   0.11793   0.00000  Uiso   1.00
O250   O     0.24172   0.50001   0.21540   0.00000  Uiso   1.00
O251   O     0.32025   0.47766   0.10755   0.00000  Uiso   1.00
C252   C     0.32268   0.50533   0.07041   0.00000  Uiso   1.00
H253   H     0.02254   0.50156   0.05193   0.00000  Uiso   1.00
H254   H     0.32515   0.53811   0.08145   0.00000  Uiso   1.00
H255   H     0.28784   0.49792   0.04515   0.00000  Uiso   1.00
O256   O     0.01290   0.52157   0.22623   0.00000  Uiso   1.00
C257   C     0.01186   0.49292   0.26250   0.00000  Uiso   1.00
H258   H     0.01644   0.46125   0.25086   0.00000  Uiso   1.00
H259   H     0.30932   0.49202   0.27829   0.00000  Uiso   1.00
H260   H     0.04363   0.50302   0.29024   0.00000  Uiso   1.00
O261   O     0.15885   0.37222   0.08114   0.00000  Uiso   1.00
C262   C     0.20724   0.37457   0.06536   0.00000  Uiso   1.00
H263   H     0.23676   0.39291   0.09010   0.00000  Uiso   1.00
H264   H     0.20478   0.39031   0.03133   0.00000  Uiso   1.00
H265   H     0.21915   0.34354   0.05955   0.00000  Uiso   1.00
O266   O     0.17688   0.62779   0.25240   0.00000  Uiso   1.00
C267   C     0.12849   0.62372   0.26824   0.00000  Uiso   1.00
H268   H     0.13193   0.60843   0.30255   0.00000  Uiso   1.00
H269   H     0.09986   0.60427   0.24381   0.00000  Uiso   1.00
H270   H     0.11467   0.65410   0.27353   0.00000  Uiso   1.00
O271   O     0.14028   0.62301   0.08256   0.00000  Uiso   1.00
C272   C     0.08648   0.61640   0.07485   0.00000  Uiso   1.00
H273   H     0.07496   0.59862   0.04168   0.00000  Uiso   1.00
H274   H     0.06913   0.64597   0.07114   0.00000  Uiso   1.00
H275   H     0.07110   0.59809   0.10323   0.00000  Uiso   1.00
O276   O     0.19430   0.37713   0.25087   0.00000  Uiso   1.00
C277   C     0.24806   0.38436   0.25796   0.00000  Uiso   1.00
H278   H     0.26601   0.35504   0.26115   0.00000  Uiso   1.00
H279   H     0.25974   0.40200   0.29121   0.00000  Uiso   1.00
H280   H     0.26267   0.40308   0.22952   0.00000  Uiso   1.00
O281   O     0.11866   0.43519   0.04397   0.00000  Uiso   1.00
C282   C     0.06478   0.43052   0.03571   0.00000  Uiso   1.00
H283   H     0.05177   0.39849   0.02386   0.00000  Uiso   1.00
H284   H     0.04774   0.45116   0.00916   0.00000  Uiso   1.00
H285   H     0.04963   0.43481   0.06917   0.00000  Uiso   1.00
O286   O     0.21712   0.56346   0.28886   0.00000  Uiso   1.00
C287   C     0.27067   0.56856   0.30112   0.00000  Uiso   1.00
H288   H     0.28653   0.54303   0.32106   0.00000  Uiso   1.00
H289   H     0.28177   0.59749   0.32171   0.00000  Uiso   1.00
H290   H     0.28877   0.57175   0.26861   0.00000  Uiso   1.00
C291   C     0.11208   0.43364   0.27756   0.00000  Uiso   1.00
H292   H     0.09214   0.43833   0.24333   0.00000  Uiso   1.00
O293   O     0.11112   0.39874   0.29215   0.00000  Uiso   1.00
C294   C     0.21753   0.56914   0.05264   0.00000  Uiso   1.00
H295   H     0.21181   0.59886   0.03759   0.00000  Uiso   1.00
O296   O     0.24733   0.56769   0.08824   0.00000  Uiso   1.00
C297   C     0.50180   0.42093   0.16663   0.00000  Uiso   1.00
C298   C     0.49844   0.57908   0.16675   0.00000  Uiso   1.00
C299   C     0.40148   0.49964   0.15482   0.00000  Uiso   1.00
C300   C     0.59851   0.50021   0.17855   0.00000  Uiso   1.00
C301   C     0.34601   0.49589   0.14858   0.00000  Uiso   1.00
C302   C     0.65394   0.50361   0.18499   0.00000  Uiso   1.00
C303   C     0.49560   0.35347   0.12394   0.00000  Uiso   1.00
C304   C     0.50572   0.64656   0.20959   0.00000  Uiso   1.00
C305   C     0.48796   0.64421   0.12455   0.00000  Uiso   1.00
C306   C     0.51306   0.35587   0.20894   0.00000  Uiso   1.00
C307   C     0.49668   0.62368   0.16711   0.00000  Uiso   1.00
C308   C     0.50410   0.37636   0.16637   0.00000  Uiso   1.00
C309   C     0.47333   0.46883   0.02200   0.00000  Uiso   1.00
C310   C     0.52713   0.53083   0.31117   0.00000  Uiso   1.00
C311   C     0.47372   0.46851   0.30563   0.00000  Uiso   1.00
C312   C     0.52591   0.53168   0.02727   0.00000  Uiso   1.00
Cu313  Cu    0.50000   0.50001   0.21355   0.00000  Uiso   1.00
Cu314  Cu    0.50000   0.49999   0.11978   0.00000  Uiso   1.00
N315   N     0.50001   0.50001   0.28403   0.00000  Uiso   1.00
N316   N     0.49999   0.49999   0.04931   0.00000  Uiso   1.00
O317   O     0.50000   0.43989   0.20625   0.00000  Uiso   1.00
O318   O     0.50000   0.56011   0.12709   0.00000  Uiso   1.00
O319   O     0.50000   0.43988   0.12706   0.00000  Uiso   1.00
O320   O     0.50000   0.56012   0.20628   0.00000  Uiso   1.00
O321   O     0.42495   0.50000   0.19712   0.00000  Uiso   1.00
O322   O     0.57505   0.50000   0.13621   0.00000  Uiso   1.00
O323   O     0.42494   0.49999   0.11793   0.00000  Uiso   1.00
O324   O     0.57506   0.50001   0.21540   0.00000  Uiso   1.00
O325   O     0.65358   0.47766   0.10755   0.00000  Uiso   1.00
C326   C     0.65601   0.50533   0.07041   0.00000  Uiso   1.00
H327   H     0.35588   0.50156   0.05193   0.00000  Uiso   1.00
H328   H     0.65849   0.53811   0.08145   0.00000  Uiso   1.00
H329   H     0.62117   0.49792   0.04515   0.00000  Uiso   1.00
O330   O     0.34623   0.52157   0.22623   0.00000  Uiso   1.00
C331   C     0.34520   0.49292   0.26250   0.00000  Uiso   1.00
H332   H     0.34978   0.46125   0.25086   0.00000  Uiso   1.00
H333   H     0.64265   0.49202   0.27829   0.00000  Uiso   1.00
H334   H     0.37696   0.50302   0.29024   0.00000  Uiso   1.00
O335   O     0.49219   0.37222   0.08114   0.00000  Uiso   1.00
C336   C     0.54057   0.37457   0.06536   0.00000  Uiso   1.00
H337   H     0.57010   0.39291   0.09010   0.00000  Uiso   1.00
H338   H     0.53812   0.39031   0.03133   0.00000  Uiso   1.00
H339   H     0.55248   0.34354   0.05955   0.00000  Uiso   1.00
O340   O     0.51021   0.62779   0.25240   0.00000  Uiso   1.00
C341   C     0.46182   0.62372   0.26824   0.00000  Uiso   1.00
H342   H     0.46527   0.60843   0.30255   0.00000  Uiso   1.00
H343   H     0.43319   0.60427   0.24381   0.00000  Uiso   1.00
H344   H     0.44800   0.65410   0.27353   0.00000  Uiso   1.00
O345   O     0.47361   0.62301   0.08256   0.00000  Uiso   1.00
C346   C     0.41982   0.61640   0.07485   0.00000  Uiso   1.00
H347   H     0.40829   0.59862   0.04168   0.00000  Uiso   1.00
H348   H     0.40247   0.64597   0.07114   0.00000  Uiso   1.00
H349   H     0.40444   0.59809   0.10323   0.00000  Uiso   1.00
O350   O     0.52763   0.37713   0.25087   0.00000  Uiso   1.00
C351   C     0.58139   0.38436   0.25796   0.00000  Uiso   1.00
H352   H     0.59935   0.35504   0.26115   0.00000  Uiso   1.00
H353   H     0.59308   0.40200   0.29121   0.00000  Uiso   1.00
H354   H     0.59601   0.40308   0.22952   0.00000  Uiso   1.00
O355   O     0.45199   0.43519   0.04397   0.00000  Uiso   1.00
C356   C     0.39811   0.43052   0.03571   0.00000  Uiso   1.00
H357   H     0.38511   0.39849   0.02386   0.00000  Uiso   1.00
H358   H     0.38108   0.45116   0.00916   0.00000  Uiso   1.00
H359   H     0.38296   0.43481   0.06917   0.00000  Uiso   1.00
O360   O     0.55045   0.56346   0.28886   0.00000  Uiso   1.00
C361   C     0.60400   0.56856   0.30112   0.00000  Uiso   1.00
H362   H     0.61987   0.54303   0.32106   0.00000  Uiso   1.00
H363   H     0.61510   0.59749   0.32171   0.00000  Uiso   1.00
H364   H     0.62210   0.57175   0.26861   0.00000  Uiso   1.00
C365   C     0.44541   0.43364   0.27756   0.00000  Uiso   1.00
H366   H     0.42548   0.43833   0.24333   0.00000  Uiso   1.00
O367   O     0.44445   0.39874   0.29215   0.00000  Uiso   1.00
C368   C     0.55086   0.56914   0.05264   0.00000  Uiso   1.00
H369   H     0.54514   0.59886   0.03759   0.00000  Uiso   1.00
O370   O     0.58066   0.56769   0.08824   0.00000  Uiso   1.00
C371   C     0.83514   0.42093   0.16663   0.00000  Uiso   1.00
C372   C     0.83177   0.57908   0.16675   0.00000  Uiso   1.00
C373   C     0.73481   0.49964   0.15482   0.00000  Uiso   1.00
C374   C     0.93184   0.50021   0.17855   0.00000  Uiso   1.00
C375   C     0.67934   0.49589   0.14858   0.00000  Uiso   1.00
C376   C     0.98728   0.50361   0.18499   0.00000  Uiso   1.00
C377   C     0.82893   0.35347   0.12394   0.00000  Uiso   1.00
C378   C     0.83905   0.64656   0.20959   0.00000  Uiso   1.00
C379   C     0.82129   0.64421   0.12455   0.00000  Uiso   1.00
C380   C     0.84639   0.35587   0.20894   0.00000  Uiso   1.00
C381   C     0.83001   0.62368   0.16711   0.00000  Uiso   1.00
C382   C     0.83744   0.37636   0.16637   0.00000  Uiso   1.00
C383   C     0.80666   0.46883   0.02200   0.00000  Uiso   1.00
C384   C     0.86047   0.53083   0.31117   0.00000  Uiso   1.00
C385   C     0.80705   0.46851   0.30563   0.00000  Uiso   1.00
C386   C     0.85924   0.53168   0.02727   0.00000  Uiso   1.00
Cu387  Cu    0.83333   0.50001   0.21355   0.00000  Uiso   1.00
Cu388  Cu    0.83333   0.49999   0.11978   0.00000  Uiso   1.00
N389   N     0.83335   0.50001   0.28403   0.00000  Uiso   1.00
N390   N     0.83332   0.49999   0.04931   0.00000  Uiso   1.00
O391   O     0.83333   0.43989   0.20625   0.00000  Uiso   1.00
O392   O     0.83334   0.56011   0.12709   0.00000  Uiso   1.00
O393   O     0.83333   0.43988   0.12706   0.00000  Uiso   1.00
O394   O     0.83334   0.56012   0.20628   0.00000  Uiso   1.00
O395   O     0.75828   0.50000   0.19712   0.00000  Uiso   1.00
O396   O     0.90839   0.50000   0.13621   0.00000  Uiso   1.00
O397   O     0.75828   0.49999   0.11793   0.00000  Uiso   1.00
O398   O     0.90839   0.50001   0.21540   0.00000  Uiso   1.00
O399   O     0.98691   0.47766   0.10755   0.00000  Uiso   1.00
C400   C     0.98935   0.50533   0.07041   0.00000  Uiso   1.00
H401   H     0.68921   0.50156   0.05193   0.00000  Uiso   1.00
H402   H     0.99182   0.53811   0.08145   0.00000  Uiso   1.00
H403   H     0.95450   0.49792   0.04515   0.00000  Uiso   1.00
O404   O     0.67956   0.52157   0.22623   0.00000  Uiso   1.00
C405   C     0.67853   0.49292   0.26250   0.00000  Uiso   1.00
H406   H     0.68311   0.46125   0.25086   0.00000  Uiso   1.00
H407   H     0.97599   0.49202   0.27829   0.00000  Uiso   1.00
H408   H     0.71029   0.50302   0.29024   0.00000  Uiso   1.00
O409   O     0.82552   0.37222   0.08114   0.00000  Uiso   1.00
C410   C     0.87390   0.37457   0.06536   0.00000  Uiso   1.00
H411   H     0.90343   0.39291   0.09010   0.00000  Uiso   1.00
H412   H     0.87145   0.39031   0.03133   0.00000  Uiso   1.00
H413   H     0.88582   0.34354   0.05955   0.00000  Uiso   1.00
O414   O     0.84354   0.62779   0.25240   0.00000  Uiso   1.00
C415   C     0.79516   0.62372   0.26824   0.00000  Uiso   1.00
H416   H     0.79860   0.60843   0.30255   0.00000  Uiso   1.00
H417   H     0.76652   0.60427   0.24381   0.00000  Uiso   1.00
H418   H     0.78133   0.65410   0.27353   0.00000  Uiso   1.00
O419   O     0.80695   0.62301   0.08256   0.00000  Uiso   1.00
C420   C     0.75315   0.61640   0.07485   0.00000  Uiso   1.00
H421   H     0.74163   0.59862   0.04168   0.00000  Uiso   1.00
H422   H     0.73580   0.64597   0.07114   0.00000  Uiso   1.00
H423   H     0.73777   0.59809   0.10323   0.00000  Uiso   1.00
O424   O     0.86097   0.37713   0.25087   0.00000  Uiso   1.00
C425   C     0.91473   0.38436   0.25796   0.00000  Uiso   1.00
H426   H     0.93268   0.35504   0.26115   0.00000  Uiso   1.00
H427   H     0.92641   0.40200   0.29121   0.00000  Uiso   1.00
H428   H     0.92934   0.40308   0.22952   0.00000  Uiso   1.00
O429   O     0.78533   0.43519   0.04397   0.00000  Uiso   1.00
C430   C     0.73144   0.43052   0.03571   0.00000  Uiso   1.00
H431   H     0.71844   0.39849   0.02386   0.00000  Uiso   1.00
H432   H     0.71441   0.45116   0.00916   0.00000  Uiso   1.00
H433   H     0.71629   0.43481   0.06917   0.00000  Uiso   1.00
O434   O     0.88379   0.56346   0.28886   0.00000  Uiso   1.00
C435   C     0.93733   0.56856   0.30112   0.00000  Uiso   1.00
H436   H     0.95320   0.54303   0.32106   0.00000  Uiso   1.00
H437   H     0.94843   0.59749   0.32171   0.00000  Uiso   1.00
H438   H     0.95543   0.57175   0.26861   0.00000  Uiso   1.00
C439   C     0.77874   0.43364   0.27756   0.00000  Uiso   1.00
H440   H     0.75881   0.43833   0.24333   0.00000  Uiso   1.00
O441   O     0.77778   0.39874   0.29215   0.00000  Uiso   1.00
C442   C     0.88419   0.56914   0.05264   0.00000  Uiso   1.00
H443   H     0.87847   0.59886   0.03759   0.00000  Uiso   1.00
O444   O     0.91399   0.56769   0.08824   0.00000  Uiso   1.00
C445   C     0.16847   0.75427   0.16663   0.00000  Uiso   1.00
C446   C     0.16510   0.91242   0.16675   0.00000  Uiso   1.00
C447   C     0.06814   0.83297   0.15482   0.00000  Uiso   1.00
C448   C     0.26517   0.83355   0.17855   0.00000  Uiso   1.00
C449   C     0.01268   0.82922   0.14858   0.00000  Uiso   1.00
C450   C     0.32061   0.83695   0.18499   0.00000  Uiso   1.00
C451   C     0.16226   0.68681   0.12394   0.00000  Uiso   1.00
C452   C     0.17239   0.97989   0.20959   0.00000  Uiso   1.00
C453   C     0.15463   0.97754   0.12455   0.00000  Uiso   1.00
C454   C     0.17973   0.68920   0.20894   0.00000  Uiso   1.00
C455   C     0.16334   0.95702   0.16711   0.00000  Uiso   1.00
C456   C     0.17077   0.70970   0.16637   0.00000  Uiso   1.00
C457   C     0.14000   0.80216   0.02200   0.00000  Uiso   1.00
C458   C     0.19380   0.86416   0.31117   0.00000  Uiso   1.00
C459   C     0.14038   0.80184   0.30563   0.00000  Uiso   1.00
C460   C     0.19257   0.86502   0.02727   0.00000  Uiso   1.00
Cu461  Cu    0.16667   0.83334   0.21355   0.00000  Uiso   1.00
Cu462  Cu    0.16667   0.83333   0.11978   0.00000  Uiso   1.00
N463   N     0.16668   0.83334   0.28403   0.00000  Uiso   1.00
N464   N     0.16665   0.83332   0.04931   0.00000  Uiso   1.00
O465   O     0.16666   0.77322   0.20625   0.00000  Uiso   1.00
O466   O     0.16667   0.89345   0.12709   0.00000  Uiso   1.00
O467   O     0.16666   0.77321   0.12706   0.00000  Uiso   1.00
O468   O     0.16667   0.89346   0.20628   0.00000  Uiso   1.00
O469   O     0.09161   0.83334   0.19712   0.00000  Uiso   1.00
O470   O     0.24172   0.83333   0.13621   0.00000  Uiso   1.00
O471   O     0.09161   0.83333   0.11793   0.00000  Uiso   1.00
O472   O     0.24172   0.83334   0.21540   0.00000  Uiso   1.00
O473   O     0.32025   0.81100   0.10755   0.00000  Uiso   1.00
C474   C     0.32268   0.83866   0.07041   0.00000  Uiso   1.00
H475   H     0.02254   0.83489   0.05193   0.00000  Uiso   1.00
H476   H     0.32515   0.87144   0.08145   0.00000  Uiso   1.00
H477   H     0.28784   0.83125   0.04515   0.00000  Uiso   1.00
O478   O     0.01290   0.85490   0.22623   0.00000  Uiso   1.00
C479   C     0.01186   0.82625   0.26250   0.00000  Uiso   1.00
H480   H     0.01644   0.79458   0.25086   0.00000  Uiso   1.00
H481   H     0.30932   0.82536   0.27829   0.00000  Uiso   1.00
H482   H     0.04363   0.83635   0.29024   0.00000  Uiso   1.00
O483   O     0.15885   0.70555   0.08114   0.00000  Uiso   1.00
C484   C     0.20724   0.70791   0.06536   0.00000  Uiso   1.00
H485   H     0.23676   0.72624   0.09010   0.00000  Uiso   1.00
H486   H     0.20478   0.72365   0.03133   0.00000  Uiso   1.00
H487   H     0.21915   0.67687   0.05955   0.00000  Uiso   1.00
O488   O     0.17688   0.96113   0.25240   0.00000  Uiso   1.00
C489   C     0.12849   0.95705   0.26824   0.00000  Uiso   1.00
H490   H     0.13193   0.94176   0.30255   0.00000  Uiso   1.00
H491   H     0.09986   0.93760   0.24381   0.00000  Uiso   1.00
H492   H     0.11467   0.98743   0.27353   0.00000  Uiso   1.00
O493   O     0.14028   0.95634   0.08256   0.00000  Uiso   1.00
C494   C     0.08648   0.94974   0.07485   0.00000  Uiso   1.00
H495   H     0.07496   0.93195   0.04168   0.00000  Uiso   1.00
H496   H     0.06913   0.97930   0.07114   0.00000  Uiso   1.00
H497   H     0.07110   0.93143   0.10323   0.00000  Uiso   1.00
O498   O     0.19430   0.71047   0.25087   0.00000  Uiso   1.00
C499   C     0.24806   0.71770   0.25796   0.00000  Uiso   1.00
H500   H     0.26601   0.68837   0.26115   0.00000  Uiso   1.00
H501   H     0.25974   0.73533   0.29121   0.00000  Uiso   1.00
H502   H     0.26267   0.73641   0.22952   0.00000  Uiso   1.00
O503   O     0.11866   0.76852   0.04397   0.00000  Uiso   1.00
C504   C     0.06478   0.76385   0.03571   0.00000  Uiso   1.00
H505   H     0.05177   0.73182   0.02386   0.00000  Uiso   1.00
H506   H     0.04774   0.78449   0.00916   0.00000  Uiso   1.00
H507   H     0.04963   0.76814   0.06917   0.00000  Uiso   1.00
O508   O     0.21712   0.89680   0.28886   0.00000  Uiso   1.00
C509   C     0.27067   0.90189   0.30112   0.00000  Uiso   1.00
H510   H     0.28653   0.87636   0.32106   0.00000  Uiso   1.00
H511   H     0.28177   0.93083   0.32171   0.00000  Uiso   1.00
H512   H     0.28877   0.90508   0.26861   0.00000  Uiso   1.00
C513   C     0.11208   0.76698   0.27756   0.00000  Uiso   1.00
H514   H     0.09214   0.77167   0.24333   0.00000  Uiso   1.00
O515   O     0.11112   0.73207   0.29215   0.00000  Uiso   1.00
C516   C     0.21753   0.90247   0.05264   0.00000  Uiso   1.00
H517   H     0.21181   0.93219   0.03759   0.00000  Uiso   1.00
O518   O     0.24733   0.90102   0.08824   0.00000  Uiso   1.00
C519   C     0.50180   0.75427   0.16663   0.00000  Uiso   1.00
C520   C     0.49844   0.91242   0.16675   0.00000  Uiso   1.00
C521   C     0.40148   0.83297   0.15482   0.00000  Uiso   1.00
C522   C     0.59851   0.83355   0.17855   0.00000  Uiso   1.00
C523   C     0.34601   0.82922   0.14858   0.00000  Uiso   1.00
C524   C     0.65394   0.83695   0.18499   0.00000  Uiso   1.00
C525   C     0.49560   0.68681   0.12394   0.00000  Uiso   1.00
C526   C     0.50572   0.97989   0.20959   0.00000  Uiso   1.00
C527   C     0.48796   0.97754   0.12455   0.00000  Uiso   1.00
C528   C     0.51306   0.68920   0.20894   0.00000  Uiso   1.00
C529   C     0.49668   0.95702   0.16711   0.00000  Uiso   1.00
C530   C     0.50410   0.70970   0.16637   0.00000  Uiso   1.00
C531   C     0.47333   0.80216   0.02200   0.00000  Uiso   1.00
C532   C     0.52713   0.86416   0.31117   0.00000  Uiso   1.00
C533   C     0.47372   0.80184   0.30563   0.00000  Uiso   1.00
C534   C     0.52591   0.86502   0.02727   0.00000  Uiso   1.00
Cu535  Cu    0.50000   0.83334   0.21355   0.00000  Uiso   1.00
Cu536  Cu    0.50000   0.83333   0.11978   0.00000  Uiso   1.00
N537   N     0.50001   0.83334   0.28403   0.00000  Uiso   1.00
N538   N     0.49999   0.83332   0.04931   0.00000  Uiso   1.00
O539   O     0.50000   0.77322   0.20625   0.00000  Uiso   1.00
O540   O     0.50000   0.89345   0.12709   0.00000  Uiso   1.00
O541   O     0.50000   0.77321   0.12706   0.00000  Uiso   1.00
O542   O     0.50000   0.89346   0.20628   0.00000  Uiso   1.00
O543   O     0.42495   0.83334   0.19712   0.00000  Uiso   1.00
O544   O     0.57505   0.83333   0.13621   0.00000  Uiso   1.00
O545   O     0.42494   0.83333   0.11793   0.00000  Uiso   1.00
O546   O     0.57506   0.83334   0.21540   0.00000  Uiso   1.00
O547   O     0.65358   0.81100   0.10755   0.00000  Uiso   1.00
C548   C     0.65601   0.83866   0.07041   0.00000  Uiso   1.00
H549   H     0.35588   0.83489   0.05193   0.00000  Uiso   1.00
H550   H     0.65849   0.87144   0.08145   0.00000  Uiso   1.00
H551   H     0.62117   0.83125   0.04515   0.00000  Uiso   1.00
O552   O     0.34623   0.85490   0.22623   0.00000  Uiso   1.00
C553   C     0.34520   0.82625   0.26250   0.00000  Uiso   1.00
H554   H     0.34978   0.79458   0.25086   0.00000  Uiso   1.00
H555   H     0.64265   0.82536   0.27829   0.00000  Uiso   1.00
H556   H     0.37696   0.83635   0.29024   0.00000  Uiso   1.00
O557   O     0.49219   0.70555   0.08114   0.00000  Uiso   1.00
C558   C     0.54057   0.70791   0.06536   0.00000  Uiso   1.00
H559   H     0.57010   0.72624   0.09010   0.00000  Uiso   1.00
H560   H     0.53812   0.72365   0.03133   0.00000  Uiso   1.00
H561   H     0.55248   0.67687   0.05955   0.00000  Uiso   1.00
O562   O     0.51021   0.96113   0.25240   0.00000  Uiso   1.00
C563   C     0.46182   0.95705   0.26824   0.00000  Uiso   1.00
H564   H     0.46527   0.94176   0.30255   0.00000  Uiso   1.00
H565   H     0.43319   0.93760   0.24381   0.00000  Uiso   1.00
H566   H     0.44800   0.98743   0.27353   0.00000  Uiso   1.00
O567   O     0.47361   0.95634   0.08256   0.00000  Uiso   1.00
C568   C     0.41982   0.94974   0.07485   0.00000  Uiso   1.00
H569   H     0.40829   0.93195   0.04168   0.00000  Uiso   1.00
H570   H     0.40247   0.97930   0.07114   0.00000  Uiso   1.00
H571   H     0.40444   0.93143   0.10323   0.00000  Uiso   1.00
O572   O     0.52763   0.71047   0.25087   0.00000  Uiso   1.00
C573   C     0.58139   0.71770   0.25796   0.00000  Uiso   1.00
H574   H     0.59935   0.68837   0.26115   0.00000  Uiso   1.00
H575   H     0.59308   0.73533   0.29121   0.00000  Uiso   1.00
H576   H     0.59601   0.73641   0.22952   0.00000  Uiso   1.00
O577   O     0.45199   0.76852   0.04397   0.00000  Uiso   1.00
C578   C     0.39811   0.76385   0.03571   0.00000  Uiso   1.00
H579   H     0.38511   0.73182   0.02386   0.00000  Uiso   1.00
H580   H     0.38108   0.78449   0.00916   0.00000  Uiso   1.00
H581   H     0.38296   0.76814   0.06917   0.00000  Uiso   1.00
O582   O     0.55045   0.89680   0.28886   0.00000  Uiso   1.00
C583   C     0.60400   0.90189   0.30112   0.00000  Uiso   1.00
H584   H     0.61987   0.87636   0.32106   0.00000  Uiso   1.00
H585   H     0.61510   0.93083   0.32171   0.00000  Uiso   1.00
H586   H     0.62210   0.90508   0.26861   0.00000  Uiso   1.00
C587   C     0.44541   0.76698   0.27756   0.00000  Uiso   1.00
H588   H     0.42548   0.77167   0.24333   0.00000  Uiso   1.00
O589   O     0.44445   0.73207   0.29215   0.00000  Uiso   1.00
C590   C     0.55086   0.90247   0.05264   0.00000  Uiso   1.00
H591   H     0.54514   0.93219   0.03759   0.00000  Uiso   1.00
O592   O     0.58066   0.90102   0.08824   0.00000  Uiso   1.00
C593   C     0.83514   0.75427   0.16663   0.00000  Uiso   1.00
C594   C     0.83177   0.91242   0.16675   0.00000  Uiso   1.00
C595   C     0.73481   0.83297   0.15482   0.00000  Uiso   1.00
C596   C     0.93184   0.83355   0.17855   0.00000  Uiso   1.00
C597   C     0.67934   0.82922   0.14858   0.00000  Uiso   1.00
C598   C     0.98728   0.83695   0.18499   0.00000  Uiso   1.00
C599   C     0.82893   0.68681   0.12394   0.00000  Uiso   1.00
C600   C     0.83905   0.97989   0.20959   0.00000  Uiso   1.00
C601   C     0.82129   0.97754   0.12455   0.00000  Uiso   1.00
C602   C     0.84639   0.68920   0.20894   0.00000  Uiso   1.00
C603   C     0.83001   0.95702   0.16711   0.00000  Uiso   1.00
C604   C     0.83744   0.70970   0.16637   0.00000  Uiso   1.00
C605   C     0.80666   0.80216   0.02200   0.00000  Uiso   1.00
C606   C     0.86047   0.86416   0.31117   0.00000  Uiso   1.00
C607   C     0.80705   0.80184   0.30563   0.00000  Uiso   1.00
C608   C     0.85924   0.86502   0.02727   0.00000  Uiso   1.00
Cu609  Cu    0.83333   0.83334   0.21355   0.00000  Uiso   1.00
Cu610  Cu    0.83333   0.83333   0.11978   0.00000  Uiso   1.00
N611   N     0.83335   0.83334   0.28403   0.00000  Uiso   1.00
N612   N     0.83332   0.83332   0.04931   0.00000  Uiso   1.00
O613   O     0.83333   0.77322   0.20625   0.00000  Uiso   1.00
O614   O     0.83334   0.89345   0.12709   0.00000  Uiso   1.00
O615   O     0.83333   0.77321   0.12706   0.00000  Uiso   1.00
O616   O     0.83334   0.89346   0.20628   0.00000  Uiso   1.00
O617   O     0.75828   0.83334   0.19712   0.00000  Uiso   1.00
O618   O     0.90839   0.83333   0.13621   0.00000  Uiso   1.00
O619   O     0.75828   0.83333   0.11793   0.00000  Uiso   1.00
O620   O     0.90839   0.83334   0.21540   0.00000  Uiso   1.00
O621   O     0.98691   0.81100   0.10755   0.00000  Uiso   1.00
C622   C     0.98935   0.83866   0.07041   0.00000  Uiso   1.00
H623   H     0.68921   0.83489   0.05193   0.00000  Uiso   1.00
H624   H     0.99182   0.87144   0.08145   0.00000  Uiso   1.00
H625   H     0.95450   0.83125   0.04515   0.00000  Uiso   1.00
O626   O     0.67956   0.85490   0.22623   0.00000  Uiso   1.00
C627   C     0.67853   0.82625   0.26250   0.00000  Uiso   1.00
H628   H     0.68311   0.79458   0.25086   0.00000  Uiso   1.00
H629   H     0.97599   0.82536   0.27829   0.00000  Uiso   1.00
H630   H     0.71029   0.83635   0.29024   0.00000  Uiso   1.00
O631   O     0.82552   0.70555   0.08114   0.00000  Uiso   1.00
C632   C     0.87390   0.70791   0.06536   0.00000  Uiso   1.00
H633   H     0.90343   0.72624   0.09010   0.00000  Uiso   1.00
H634   H     0.87145   0.72365   0.03133   0.00000  Uiso   1.00
H635   H     0.88582   0.67687   0.05955   0.00000  Uiso   1.00
O636   O     0.84354   0.96113   0.25240   0.00000  Uiso   1.00
C637   C     0.79516   0.95705   0.26824   0.00000  Uiso   1.00
H638   H     0.79860   0.94176   0.30255   0.00000  Uiso   1.00
H639   H     0.76652   0.93760   0.24381   0.00000  Uiso   1.00
H640   H     0.78133   0.98743   0.27353   0.00000  Uiso   1.00
O641   O     0.80695   0.95634   0.08256   0.00000  Uiso   1.00
C642   C     0.75315   0.94974   0.07485   0.00000  Uiso   1.00
H643   H     0.74163   0.93195   0.04168   0.00000  Uiso   1.00
H644   H     0.73580   0.97930   0.07114   0.00000  Uiso   1.00
H645   H     0.73777   0.93143   0.10323   0.00000  Uiso   1.00
O646   O     0.86097   0.71047   0.25087   0.00000  Uiso   1.00
C647   C     0.91473   0.71770   0.25796   0.00000  Uiso   1.00
H648   H     0.93268   0.68837   0.26115   0.00000  Uiso   1.00
H649   H     0.92641   0.73533   0.29121   0.00000  Uiso   1.00
H650   H     0.92934   0.73641   0.22952   0.00000  Uiso   1.00
O651   O     0.78533   0.76852   0.04397   0.00000  Uiso   1.00
C652   C     0.73144   0.76385   0.03571   0.00000  Uiso   1.00
H653   H     0.71844   0.73182   0.02386   0.00000  Uiso   1.00
H654   H     0.71441   0.78449   0.00916   0.00000  Uiso   1.00
H655   H     0.71629   0.76814   0.06917   0.00000  Uiso   1.00
O656   O     0.88379   0.89680   0.28886   0.00000  Uiso   1.00
C657   C     0.93733   0.90189   0.30112   0.00000  Uiso   1.00
H658   H     0.95320   0.87636   0.32106   0.00000  Uiso   1.00
H659   H     0.94843   0.93083   0.32171   0.00000  Uiso   1.00
H660   H     0.95543   0.90508   0.26861   0.00000  Uiso   1.00
C661   C     0.77874   0.76698   0.27756   0.00000  Uiso   1.00
H662   H     0.75881   0.77167   0.24333   0.00000  Uiso   1.00
O663   O     0.77778   0.73207   0.29215   0.00000  Uiso   1.00
C664   C     0.88419   0.90247   0.05264   0.00000  Uiso   1.00
H665   H     0.87847   0.93219   0.03759   0.00000  Uiso   1.00
O666   O     0.91399   0.90102   0.08824   0.00000  Uiso   1.00
C667   C     0.16847   0.08760   0.49996   0.00000  Uiso   1.00
C668   C     0.16510   0.24575   0.50008   0.00000  Uiso   1.00
C669   C     0.06814   0.16630   0.48815   0.00000  Uiso   1.00
C670   C     0.26517   0.16688   0.51189   0.00000  Uiso   1.00
C671   C     0.01268   0.16255   0.48191   0.00000  Uiso   1.00
C672   C     0.32061   0.17028   0.51833   0.00000  Uiso   1.00
C673   C     0.16226   0.02014   0.45727   0.00000  Uiso   1.00
C674   C     0.17239   0.31323   0.54292   0.00000  Uiso   1.00
C675   C     0.15463   0.31087   0.45789   0.00000  Uiso   1.00
C676   C     0.17973   0.02253   0.54228   0.00000  Uiso   1.00
C677   C     0.16334   0.29035   0.50045   0.00000  Uiso   1.00
C678   C     0.17077   0.04303   0.49970   0.00000  Uiso   1.00
C679   C     0.14000   0.13549   0.35533   0.00000  Uiso   1.00
C680   C     0.19380   0.19750   0.64451   0.00000  Uiso   1.00
C681   C     0.14038   0.13517   0.63896   0.00000  Uiso   1.00
C682   C     0.19257   0.19835   0.36060   0.00000  Uiso   1.00
Cu683  Cu    0.16667   0.16667   0.54689   0.00000  Uiso   1.00
Cu684  Cu    0.16667   0.16666   0.45311   0.00000  Uiso   1.00
N685   N     0.16668   0.16668   0.61736   0.00000  Uiso   1.00
N686   N     0.16665   0.16666   0.38264   0.00000  Uiso   1.00
O687   O     0.16666   0.10655   0.53958   0.00000  Uiso   1.00
O688   O     0.16667   0.22678   0.46042   0.00000  Uiso   1.00
O689   O     0.16666   0.10654   0.46039   0.00000  Uiso   1.00
O690   O     0.16667   0.22679   0.53961   0.00000  Uiso   1.00
O691   O     0.09161   0.16667   0.53046   0.00000  Uiso   1.00
O692   O     0.24172   0.16666   0.46954   0.00000  Uiso   1.00
O693   O     0.09161   0.16666   0.45127   0.00000  Uiso   1.00
O694   O     0.24172   0.16667   0.54873   0.00000  Uiso   1.00
O695   O     0.32025   0.14433   0.44089   0.00000  Uiso   1.00
C696   C     0.32268   0.17199   0.40374   0.00000  Uiso   1.00
H697   H     0.02254   0.16822   0.38527   0.00000  Uiso   1.00
H698   H     0.32515   0.20477   0.41479   0.00000  Uiso   1.00
H699   H     0.28784   0.16458   0.37848   0.00000  Uiso   1.00
O700   O     0.01290   0.18823   0.55957   0.00000  Uiso   1.00
C701   C     0.01186   0.15958   0.59584   0.00000  Uiso   1.00
H702   H     0.01644   0.12792   0.58419   0.00000  Uiso   1.00
H703   H     0.30932   0.15869   0.61163   0.00000  Uiso   1.00
H704   H     0.04363   0.16968   0.62357   0.00000  Uiso   1.00
O705   O     0.15885   0.03888   0.41447   0.00000  Uiso   1.00
C706   C     0.20724   0.04124   0.39870   0.00000  Uiso   1.00
H707   H     0.23676   0.05957   0.42344   0.00000  Uiso   1.00
H708   H     0.20478   0.05698   0.36466   0.00000  Uiso   1.00
H709   H     0.21915   0.01021   0.39288   0.00000  Uiso   1.00
O710   O     0.17688   0.29446   0.58573   0.00000  Uiso   1.00
C711   C     0.12849   0.29039   0.60158   0.00000  Uiso   1.00
H712   H     0.13193   0.27509   0.63588   0.00000  Uiso   1.00
H713   H     0.09986   0.27094   0.57714   0.00000  Uiso   1.00
H714   H     0.11467   0.32077   0.60686   0.00000  Uiso   1.00
O715   O     0.14028   0.28967   0.41589   0.00000  Uiso   1.00
C716   C     0.08648   0.28307   0.40819   0.00000  Uiso   1.00
H717   H     0.07496   0.26528   0.37502   0.00000  Uiso   1.00
H718   H     0.06913   0.31263   0.40447   0.00000  Uiso   1.00
H719   H     0.07110   0.26476   0.43656   0.00000  Uiso   1.00
O720   O     0.19430   0.04380   0.58420   0.00000  Uiso   1.00
C721   C     0.24806   0.05103   0.59129   0.00000  Uiso   1.00
H722   H     0.26601   0.02171   0.59448   0.00000  Uiso   1.00
H723   H     0.25974   0.06867   0.62455   0.00000  Uiso   1.00
H724   H     0.26267   0.06974   0.56286   0.00000  Uiso   1.00
O725   O     0.11866   0.10186   0.37731   0.00000  Uiso   1.00
C726   C     0.06478   0.09719   0.36905   0.00000  Uiso   1.00
H727   H     0.05177   0.06515   0.35720   0.00000  Uiso   1.00
H728   H     0.04774   0.11782   0.34249   0.00000  Uiso   1.00
H729   H     0.04963   0.10148   0.40251   0.00000  Uiso   1.00
O730   O     0.21712   0.23013   0.62220   0.00000  Uiso   1.00
C731   C     0.27067   0.23523   0.63445   0.00000  Uiso   1.00
H732   H     0.28653   0.20969   0.65440   0.00000  Uiso   1.00
H733   H     0.28177   0.26416   0.65505   0.00000  Uiso   1.00
H734   H     0.28877   0.23841   0.60194   0.00000  Uiso   1.00
C735   C     0.11208   0.10031   0.61089   0.00000  Uiso   1.00
H736   H     0.09214   0.10500   0.57666   0.00000  Uiso   1.00
O737   O     0.11112   0.06541   0.62548   0.00000  Uiso   1.00
C738   C     0.21753   0.23581   0.38597   0.00000  Uiso   1.00
H739   H     0.21181   0.26552   0.37092   0.00000  Uiso   1.00
O740   O     0.24733   0.23436   0.42157   0.00000  Uiso   1.00
C741   C     0.50180   0.08760   0.49996   0.00000  Uiso   1.00
C742   C     0.49844   0.24575   0.50008   0.00000  Uiso   1.00
C743   C     0.40148   0.16630   0.48815   0.00000  Uiso   1.00
C744   C     0.59851   0.16688   0.51189   0.00000  Uiso   1.00
C745   C     0.34601   0.16255   0.48191   0.00000  Uiso   1.00
C746   C     0.65394   0.17028   0.51833   0.00000  Uiso   1.00
C747   C     0.49560   0.02014   0.45727   0.00000  Uiso   1.00
C748   C     0.50572   0.31323   0.54292   0.00000  Uiso   1.00
C749   C     0.48796   0.31087   0.45789   0.00000  Uiso   1.00
C750   C     0.51306   0.02253   0.54228   0.00000  Uiso   1.00
C751   C     0.49668   0.29035   0.50045   0.00000  Uiso   1.00
C752   C     0.50410   0.04303   0.49970   0.00000  Uiso   1.00
C753   C     0.47333   0.13549   0.35533   0.00000  Uiso   1.00
C754   C     0.52713   0.19750   0.64451   0.00000  Uiso   1.00
C755   C     0.47372   0.13517   0.63896   0.00000  Uiso   1.00
C756   C     0.52591   0.19835   0.36060   0.00000  Uiso   1.00
Cu757  Cu    0.50000   0.16667   0.54689   0.00000  Uiso   1.00
Cu758  Cu    0.50000   0.16666   0.45311   0.00000  Uiso   1.00
N759   N     0.50001   0.16668   0.61736   0.00000  Uiso   1.00
N760   N     0.49999   0.16666   0.38264   0.00000  Uiso   1.00
O761   O     0.50000   0.10655   0.53958   0.00000  Uiso   1.00
O762   O     0.50000   0.22678   0.46042   0.00000  Uiso   1.00
O763   O     0.50000   0.10654   0.46039   0.00000  Uiso   1.00
O764   O     0.50000   0.22679   0.53961   0.00000  Uiso   1.00
O765   O     0.42495   0.16667   0.53046   0.00000  Uiso   1.00
O766   O     0.57505   0.16666   0.46954   0.00000  Uiso   1.00
O767   O     0.42494   0.16666   0.45127   0.00000  Uiso   1.00
O768   O     0.57506   0.16667   0.54873   0.00000  Uiso   1.00
O769   O     0.65358   0.14433   0.44089   0.00000  Uiso   1.00
C770   C     0.65601   0.17199   0.40374   0.00000  Uiso   1.00
H771   H     0.35588   0.16822   0.38527   0.00000  Uiso   1.00
H772   H     0.65849   0.20477   0.41479   0.00000  Uiso   1.00
H773   H     0.62117   0.16458   0.37848   0.00000  Uiso   1.00
O774   O     0.34623   0.18823   0.55957   0.00000  Uiso   1.00
C775   C     0.34520   0.15958   0.59584   0.00000  Uiso   1.00
H776   H     0.34978   0.12792   0.58419   0.00000  Uiso   1.00
H777   H     0.64265   0.15869   0.61163   0.00000  Uiso   1.00
H778   H     0.37696   0.16968   0.62357   0.00000  Uiso   1.00
O779   O     0.49219   0.03888   0.41447   0.00000  Uiso   1.00
C780   C     0.54057   0.04124   0.39870   0.00000  Uiso   1.00
H781   H     0.57010   0.05957   0.42344   0.00000  Uiso   1.00
H782   H     0.53812   0.05698   0.36466   0.00000  Uiso   1.00
H783   H     0.55248   0.01021   0.39288   0.00000  Uiso   1.00
O784   O     0.51021   0.29446   0.58573   0.00000  Uiso   1.00
C785   C     0.46182   0.29039   0.60158   0.00000  Uiso   1.00
H786   H     0.46527   0.27509   0.63588   0.00000  Uiso   1.00
H787   H     0.43319   0.27094   0.57714   0.00000  Uiso   1.00
H788   H     0.44800   0.32077   0.60686   0.00000  Uiso   1.00
O789   O     0.47361   0.28967   0.41589   0.00000  Uiso   1.00
C790   C     0.41982   0.28307   0.40819   0.00000  Uiso   1.00
H791   H     0.40829   0.26528   0.37502   0.00000  Uiso   1.00
H792   H     0.40247   0.31263   0.40447   0.00000  Uiso   1.00
H793   H     0.40444   0.26476   0.43656   0.00000  Uiso   1.00
O794   O     0.52763   0.04380   0.58420   0.00000  Uiso   1.00
C795   C     0.58139   0.05103   0.59129   0.00000  Uiso   1.00
H796   H     0.59935   0.02171   0.59448   0.00000  Uiso   1.00
H797   H     0.59308   0.06867   0.62455   0.00000  Uiso   1.00
H798   H     0.59601   0.06974   0.56286   0.00000  Uiso   1.00
O799   O     0.45199   0.10186   0.37731   0.00000  Uiso   1.00
C800   C     0.39811   0.09719   0.36905   0.00000  Uiso   1.00
H801   H     0.38511   0.06515   0.35720   0.00000  Uiso   1.00
H802   H     0.38108   0.11782   0.34249   0.00000  Uiso   1.00
H803   H     0.38296   0.10148   0.40251   0.00000  Uiso   1.00
O804   O     0.55045   0.23013   0.62220   0.00000  Uiso   1.00
C805   C     0.60400   0.23523   0.63445   0.00000  Uiso   1.00
H806   H     0.61987   0.20969   0.65440   0.00000  Uiso   1.00
H807   H     0.61510   0.26416   0.65505   0.00000  Uiso   1.00
H808   H     0.62210   0.23841   0.60194   0.00000  Uiso   1.00
C809   C     0.44541   0.10031   0.61089   0.00000  Uiso   1.00
H810   H     0.42548   0.10500   0.57666   0.00000  Uiso   1.00
O811   O     0.44445   0.06541   0.62548   0.00000  Uiso   1.00
C812   C     0.55086   0.23581   0.38597   0.00000  Uiso   1.00
H813   H     0.54514   0.26552   0.37092   0.00000  Uiso   1.00
O814   O     0.58066   0.23436   0.42157   0.00000  Uiso   1.00
C815   C     0.83514   0.08760   0.49996   0.00000  Uiso   1.00
C816   C     0.83177   0.24575   0.50008   0.00000  Uiso   1.00
C817   C     0.73481   0.16630   0.48815   0.00000  Uiso   1.00
C818   C     0.93184   0.16688   0.51189   0.00000  Uiso   1.00
C819   C     0.67934   0.16255   0.48191   0.00000  Uiso   1.00
C820   C     0.98728   0.17028   0.51833   0.00000  Uiso   1.00
C821   C     0.82893   0.02014   0.45727   0.00000  Uiso   1.00
C822   C     0.83905   0.31323   0.54292   0.00000  Uiso   1.00
C823   C     0.82129   0.31087   0.45789   0.00000  Uiso   1.00
C824   C     0.84639   0.02253   0.54228   0.00000  Uiso   1.00
C825   C     0.83001   0.29035   0.50045   0.00000  Uiso   1.00
C826   C     0.83744   0.04303   0.49970   0.00000  Uiso   1.00
C827   C     0.80666   0.13549   0.35533   0.00000  Uiso   1.00
C828   C     0.86047   0.19750   0.64451   0.00000  Uiso   1.00
C829   C     0.80705   0.13517   0.63896   0.00000  Uiso   1.00
C830   C     0.85924   0.19835   0.36060   0.00000  Uiso   1.00
Cu831  Cu    0.83333   0.16667   0.54689   0.00000  Uiso   1.00
Cu832  Cu    0.83333   0.16666   0.45311   0.00000  Uiso   1.00
N833   N     0.83335   0.16668   0.61736   0.00000  Uiso   1.00
N834   N     0.83332   0.16666   0.38264   0.00000  Uiso   1.00
O835   O     0.83333   0.10655   0.53958   0.00000  Uiso   1.00
O836   O     0.83334   0.22678   0.46042   0.00000  Uiso   1.00
O837   O     0.83333   0.10654   0.46039   0.00000  Uiso   1.00
O838   O     0.83334   0.22679   0.53961   0.00000  Uiso   1.00
O839   O     0.75828   0.16667   0.53046   0.00000  Uiso   1.00
O840   O     0.90839   0.16666   0.46954   0.00000  Uiso   1.00
O841   O     0.75828   0.16666   0.45127   0.00000  Uiso   1.00
O842   O     0.90839   0.16667   0.54873   0.00000  Uiso   1.00
O843   O     0.98691   0.14433   0.44089   0.00000  Uiso   1.00
C844   C     0.98935   0.17199   0.40374   0.00000  Uiso   1.00
H845   H     0.68921   0.16822   0.38527   0.00000  Uiso   1.00
H846   H     0.99182   0.20477   0.41479   0.00000  Uiso   1.00
H847   H     0.95450   0.16458   0.37848   0.00000  Uiso   1.00
O848   O     0.67956   0.18823   0.55957   0.00000  Uiso   1.00
C849   C     0.67853   0.15958   0.59584   0.00000  Uiso   1.00
H850   H     0.68311   0.12792   0.58419   0.00000  Uiso   1.00
H851   H     0.97599   0.15869   0.61163   0.00000  Uiso   1.00
H852   H     0.71029   0.16968   0.62357   0.00000  Uiso   1.00
O853   O     0.82552   0.03888   0.41447   0.00000  Uiso   1.00
C854   C     0.87390   0.04124   0.39870   0.00000  Uiso   1.00
H855   H     0.90343   0.05957   0.42344   0.00000  Uiso   1.00
H856   H     0.87145   0.05698   0.36466   0.00000  Uiso   1.00
H857   H     0.88582   0.01021   0.39288   0.00000  Uiso   1.00
O858   O     0.84354   0.29446   0.58573   0.00000  Uiso   1.00
C859   C     0.79516   0.29039   0.60158   0.00000  Uiso   1.00
H860   H     0.79860   0.27509   0.63588   0.00000  Uiso   1.00
H861   H     0.76652   0.27094   0.57714   0.00000  Uiso   1.00
H862   H     0.78133   0.32077   0.60686   0.00000  Uiso   1.00
O863   O     0.80695   0.28967   0.41589   0.00000  Uiso   1.00
C864   C     0.75315   0.28307   0.40819   0.00000  Uiso   1.00
H865   H     0.74163   0.26528   0.37502   0.00000  Uiso   1.00
H866   H     0.73580   0.31263   0.40447   0.00000  Uiso   1.00
H867   H     0.73777   0.26476   0.43656   0.00000  Uiso   1.00
O868   O     0.86097   0.04380   0.58420   0.00000  Uiso   1.00
C869   C     0.91473   0.05103   0.59129   0.00000  Uiso   1.00
H870   H     0.93268   0.02171   0.59448   0.00000  Uiso   1.00
H871   H     0.92641   0.06867   0.62455   0.00000  Uiso   1.00
H872   H     0.92934   0.06974   0.56286   0.00000  Uiso   1.00
O873   O     0.78533   0.10186   0.37731   0.00000  Uiso   1.00
C874   C     0.73144   0.09719   0.36905   0.00000  Uiso   1.00
H875   H     0.71844   0.06515   0.35720   0.00000  Uiso   1.00
H876   H     0.71441   0.11782   0.34249   0.00000  Uiso   1.00
H877   H     0.71629   0.10148   0.40251   0.00000  Uiso   1.00
O878   O     0.88379   0.23013   0.62220   0.00000  Uiso   1.00
C879   C     0.93733   0.23523   0.63445   0.00000  Uiso   1.00
H880   H     0.95320   0.20969   0.65440   0.00000  Uiso   1.00
H881   H     0.94843   0.26416   0.65505   0.00000  Uiso   1.00
H882   H     0.95543   0.23841   0.60194   0.00000  Uiso   1.00
C883   C     0.77874   0.10031   0.61089   0.00000  Uiso   1.00
H884   H     0.75881   0.10500   0.57666   0.00000  Uiso   1.00
O885   O     0.77778   0.06541   0.62548   0.00000  Uiso   1.00
C886   C     0.88419   0.23581   0.38597   0.00000  Uiso   1.00
H887   H     0.87847   0.26552   0.37092   0.00000  Uiso   1.00
O888   O     0.91399   0.23436   0.42157   0.00000  Uiso   1.00
C889   C     0.16847   0.42093   0.49996   0.00000  Uiso   1.00
C890   C     0.16510   0.57908   0.50008   0.00000  Uiso   1.00
C891   C     0.06814   0.49964   0.48815   0.00000  Uiso   1.00
C892   C     0.26517   0.50021   0.51189   0.00000  Uiso   1.00
C893   C     0.01268   0.49589   0.48191   0.00000  Uiso   1.00
C894   C     0.32061   0.50361   0.51833   0.00000  Uiso   1.00
C895   C     0.16226   0.35347   0.45727   0.00000  Uiso   1.00
C896   C     0.17239   0.64656   0.54292   0.00000  Uiso   1.00
C897   C     0.15463   0.64421   0.45789   0.00000  Uiso   1.00
C898   C     0.17973   0.35587   0.54228   0.00000  Uiso   1.00
C899   C     0.16334   0.62368   0.50045   0.00000  Uiso   1.00
C900   C     0.17077   0.37636   0.49970   0.00000  Uiso   1.00
C901   C     0.14000   0.46883   0.35533   0.00000  Uiso   1.00
C902   C     0.19380   0.53083   0.64451   0.00000  Uiso   1.00
C903   C     0.14038   0.46851   0.63896   0.00000  Uiso   1.00
C904   C     0.19257   0.53168   0.36060   0.00000  Uiso   1.00
Cu905  Cu    0.16667   0.50001   0.54689   0.00000  Uiso   1.00
Cu906  Cu    0.16667   0.49999   0.45311   0.00000  Uiso   1.00
N907   N     0.16668   0.50001   0.61736   0.00000  Uiso   1.00
N908   N     0.16665   0.49999   0.38264   0.00000  Uiso   1.00
O909   O     0.16666   0.43989   0.53958   0.00000  Uiso   1.00
O910   O     0.16667   0.56011   0.46042   0.00000  Uiso   1.00
O911   O     0.16666   0.43988   0.46039   0.00000  Uiso   1.00
O912   O     0.16667   0.56012   0.53961   0.00000  Uiso   1.00
O913   O     0.09161   0.50000   0.53046   0.00000  Uiso   1.00
O914   O     0.24172   0.50000   0.46954   0.00000  Uiso   1.00
O915   O     0.09161   0.49999   0.45127   0.00000  Uiso   1.00
O916   O     0.24172   0.50001   0.54873   0.00000  Uiso   1.00
O917   O     0.32025   0.47766   0.44089   0.00000  Uiso   1.00
C918   C     0.32268   0.50533   0.40374   0.00000  Uiso   1.00
H919   H     0.02254   0.50156   0.38527   0.00000  Uiso   1.00
H920   H     0.32515   0.53811   0.41479   0.00000  Uiso   1.00
H921   H     0.28784   0.49792   0.37848   0.00000  Uiso   1.00
O922   O     0.01290   0.52157   0.55957   0.00000  Uiso   1.00
C923   C     0.01186   0.49292   0.59584   0.00000  Uiso   1.00
H924   H     0.01644   0.46125   0.58419   0.00000  Uiso   1.00
H925   H     0.30932   0.49202   0.61163   0.00000  Uiso   1.00
H926   H     0.04363   0.50302   0.62357   0.00000  Uiso   1.00
O927   O     0.15885   0.37222   0.41447   0.00000  Uiso   1.00
C928   C     0.20724   0.37457   0.39870   0.00000  Uiso   1.00
H929   H     0.23676   0.39291   0.42344   0.00000  Uiso   1.00
H930   H     0.20478   0.39031   0.36466   0.00000  Uiso   1.00
H931   H     0.21915   0.34354   0.39288   0.00000  Uiso   1.00
O932   O     0.17688   0.62779   0.58573   0.00000  Uiso   1.00
C933   C     0.12849   0.62372   0.60158   0.00000  Uiso   1.00
H934   H     0.13193   0.60843   0.63588   0.00000  Uiso   1.00
H935   H     0.09986   0.60427   0.57714   0.00000  Uiso   1.00
H936   H     0.11467   0.65410   0.60686   0.00000  Uiso   1.00
O937   O     0.14028   0.62301   0.41589   0.00000  Uiso   1.00
C938   C     0.08648   0.61640   0.40819   0.00000  Uiso   1.00
H939   H     0.07496   0.59862   0.37502   0.00000  Uiso   1.00
H940   H     0.06913   0.64597   0.40447   0.00000  Uiso   1.00
H941   H     0.07110   0.59809   0.43656   0.00000  Uiso   1.00
O942   O     0.19430   0.37713   0.58420   0.00000  Uiso   1.00
C943   C     0.24806   0.38436   0.59129   0.00000  Uiso   1.00
H944   H     0.26601   0.35504   0.59448   0.00000  Uiso   1.00
H945   H     0.25974   0.40200   0.62455   0.00000  Uiso   1.00
H946   H     0.26267   0.40308   0.56286   0.00000  Uiso   1.00
O947   O     0.11866   0.43519   0.37731   0.00000  Uiso   1.00
C948   C     0.06478   0.43052   0.36905   0.00000  Uiso   1.00
H949   H     0.05177   0.39849   0.35720   0.00000  Uiso   1.00
H950   H     0.04774   0.45116   0.34249   0.00000  Uiso   1.00
H951   H     0.04963   0.43481   0.40251   0.00000  Uiso   1.00
O952   O     0.21712   0.56346   0.62220   0.00000  Uiso   1.00
C953   C     0.27067   0.56856   0.63445   0.00000  Uiso   1.00
H954   H     0.28653   0.54303   0.65440   0.00000  Uiso   1.00
H955   H     0.28177   0.59749   0.65505   0.00000  Uiso   1.00
H956   H     0.28877   0.57175   0.60194   0.00000  Uiso   1.00
C957   C     0.11208   0.43364   0.61089   0.00000  Uiso   1.00
H958   H     0.09214   0.43833   0.57666   0.00000  Uiso   1.00
O959   O     0.11112   0.39874   0.62548   0.00000  Uiso   1.00
C960   C     0.21753   0.56914   0.38597   0.00000  Uiso   1.00
H961   H     0.21181   0.59886   0.37092   0.00000  Uiso   1.00
O962   O     0.24733   0.56769   0.42157   0.00000  Uiso   1.00
C963   C     0.50180   0.42093   0.49996   0.00000  Uiso   1.00
C964   C     0.49844   0.57908   0.50008   0.00000  Uiso   1.00
C965   C     0.40148   0.49964   0.48815   0.00000  Uiso   1.00
C966   C     0.59851   0.50021   0.51189   0.00000  Uiso   1.00
C967   C     0.34601   0.49589   0.48191   0.00000  Uiso   1.00
C968   C     0.65394   0.50361   0.51833   0.00000  Uiso   1.00
C969   C     0.49560   0.35347   0.45727   0.00000  Uiso   1.00
C970   C     0.50572   0.64656   0.54292   0.00000  Uiso   1.00
C971   C     0.48796   0.64421   0.45789   0.00000  Uiso   1.00
C972   C     0.51306   0.35587   0.54228   0.00000  Uiso   1.00
C973   C     0.49668   0.62368   0.50045   0.00000  Uiso   1.00
C974   C     0.50410   0.37636   0.49970   0.00000  Uiso   1.00
C975   C     0.47333   0.46883   0.35533   0.00000  Uiso   1.00
C976   C     0.52713   0.53083   0.64451   0.00000  Uiso   1.00
C977   C     0.47372   0.46851   0.63896   0.00000  Uiso   1.00
C978   C     0.52591   0.53168   0.36060   0.00000  Uiso   1.00
Cu979  Cu    0.50000   0.50001   0.54689   0.00000  Uiso   1.00
Cu980  Cu    0.50000   0.49999   0.45311   0.00000  Uiso   1.00
N981   N     0.50001   0.50001   0.61736   0.00000  Uiso   1.00
N982   N     0.49999   0.49999   0.38264   0.00000  Uiso   1.00
O983   O     0.50000   0.43989   0.53958   0.00000  Uiso   1.00
O984   O     0.50000   0.56011   0.46042   0.00000  Uiso   1.00
O985   O     0.50000   0.43988   0.46039   0.00000  Uiso   1.00
O986   O     0.50000   0.56012   0.53961   0.00000  Uiso   1.00
O987   O     0.42495   0.50000   0.53046   0.00000  Uiso   1.00
O988   O     0.57505   0.50000   0.46954   0.00000  Uiso   1.00
O989   O     0.42494   0.49999   0.45127   0.00000  Uiso   1.00
O990   O     0.57506   0.50001   0.54873   0.00000  Uiso   1.00
O991   O     0.65358   0.47766   0.44089   0.00000  Uiso   1.00
C992   C     0.65601   0.50533   0.40374   0.00000  Uiso   1.00
H993   H     0.35588   0.50156   0.38527   0.00000  Uiso   1.00
H994   H     0.65849   0.53811   0.41479   0.00000  Uiso   1.00
H995   H     0.62117   0.49792   0.37848   0.00000  Uiso   1.00
O996   O     0.34623   0.52157   0.55957   0.00000  Uiso   1.00
C997   C     0.34520   0.49292   0.59584   0.00000  Uiso   1.00
H998   H     0.34978   0.46125   0.58419   0.00000  Uiso   1.00
H999   H     0.64265   0.49202   0.61163   0.00000  Uiso   1.00
H1000  H     0.37696   0.50302   0.62357   0.00000  Uiso   1.00
O1001  O     0.49219   0.37222   0.41447   0.00000  Uiso   1.00
C1002  C     0.54057   0.37457   0.39870   0.00000  Uiso   1.00
H1003  H     0.57010   0.39291   0.42344   0.00000  Uiso   1.00
H1004  H     0.53812   0.39031   0.36466   0.00000  Uiso   1.00
H1005  H     0.55248   0.34354   0.39288   0.00000  Uiso   1.00
O1006  O     0.51021   0.62779   0.58573   0.00000  Uiso   1.00
C1007  C     0.46182   0.62372   0.60158   0.00000  Uiso   1.00
H1008  H     0.46527   0.60843   0.63588   0.00000  Uiso   1.00
H1009  H     0.43319   0.60427   0.57714   0.00000  Uiso   1.00
H1010  H     0.44800   0.65410   0.60686   0.00000  Uiso   1.00
O1011  O     0.47361   0.62301   0.41589   0.00000  Uiso   1.00
C1012  C     0.41982   0.61640   0.40819   0.00000  Uiso   1.00
H1013  H     0.40829   0.59862   0.37502   0.00000  Uiso   1.00
H1014  H     0.40247   0.64597   0.40447   0.00000  Uiso   1.00
H1015  H     0.40444   0.59809   0.43656   0.00000  Uiso   1.00
O1016  O     0.52763   0.37713   0.58420   0.00000  Uiso   1.00
C1017  C     0.58139   0.38436   0.59129   0.00000  Uiso   1.00
H1018  H     0.59935   0.35504   0.59448   0.00000  Uiso   1.00
H1019  H     0.59308   0.40200   0.62455   0.00000  Uiso   1.00
H1020  H     0.59601   0.40308   0.56286   0.00000  Uiso   1.00
O1021  O     0.45199   0.43519   0.37731   0.00000  Uiso   1.00
C1022  C     0.39811   0.43052   0.36905   0.00000  Uiso   1.00
H1023  H     0.38511   0.39849   0.35720   0.00000  Uiso   1.00
H1024  H     0.38108   0.45116   0.34249   0.00000  Uiso   1.00
H1025  H     0.38296   0.43481   0.40251   0.00000  Uiso   1.00
O1026  O     0.55045   0.56346   0.62220   0.00000  Uiso   1.00
C1027  C     0.60400   0.56856   0.63445   0.00000  Uiso   1.00
H1028  H     0.61987   0.54303   0.65440   0.00000  Uiso   1.00
H1029  H     0.61510   0.59749   0.65505   0.00000  Uiso   1.00
H1030  H     0.62210   0.57175   0.60194   0.00000  Uiso   1.00
C1031  C     0.44541   0.43364   0.61089   0.00000  Uiso   1.00
H1032  H     0.42548   0.43833   0.57666   0.00000  Uiso   1.00
O1033  O     0.44445   0.39874   0.62548   0.00000  Uiso   1.00
C1034  C     0.55086   0.56914   0.38597   0.00000  Uiso   1.00
H1035  H     0.54514   0.59886   0.37092   0.00000  Uiso   1.00
O1036  O     0.58066   0.56769   0.42157   0.00000  Uiso   1.00
C1037  C     0.83514   0.42093   0.49996   0.00000  Uiso   1.00
C1038  C     0.83177   0.57908   0.50008   0.00000  Uiso   1.00
C1039  C     0.73481   0.49964   0.48815   0.00000  Uiso   1.00
C1040  C     0.93184   0.50021   0.51189   0.00000  Uiso   1.00
C1041  C     0.67934   0.49589   0.48191   0.00000  Uiso   1.00
C1042  C     0.98728   0.50361   0.51833   0.00000  Uiso   1.00
C1043  C     0.82893   0.35347   0.45727   0.00000  Uiso   1.00
C1044  C     0.83905   0.64656   0.54292   0.00000  Uiso   1.00
C1045  C     0.82129   0.64421   0.45789   0.00000  Uiso   1.00
C1046  C     0.84639   0.35587   0.54228   0.00000  Uiso   1.00
C1047  C     0.83001   0.62368   0.50045   0.00000  Uiso   1.00
C1048  C     0.83744   0.37636   0.49970   0.00000  Uiso   1.00
C1049  C     0.80666   0.46883   0.35533   0.00000  Uiso   1.00
C1050  C     0.86047   0.53083   0.64451   0.00000  Uiso   1.00
C1051  C     0.80705   0.46851   0.63896   0.00000  Uiso   1.00
C1052  C     0.85924   0.53168   0.36060   0.00000  Uiso   1.00
Cu1053 Cu    0.83333   0.50001   0.54689   0.00000  Uiso   1.00
Cu1054 Cu    0.83333   0.49999   0.45311   0.00000  Uiso   1.00
N1055  N     0.83335   0.50001   0.61736   0.00000  Uiso   1.00
N1056  N     0.83332   0.49999   0.38264   0.00000  Uiso   1.00
O1057  O     0.83333   0.43989   0.53958   0.00000  Uiso   1.00
O1058  O     0.83334   0.56011   0.46042   0.00000  Uiso   1.00
O1059  O     0.83333   0.43988   0.46039   0.00000  Uiso   1.00
O1060  O     0.83334   0.56012   0.53961   0.00000  Uiso   1.00
O1061  O     0.75828   0.50000   0.53046   0.00000  Uiso   1.00
O1062  O     0.90839   0.50000   0.46954   0.00000  Uiso   1.00
O1063  O     0.75828   0.49999   0.45127   0.00000  Uiso   1.00
O1064  O     0.90839   0.50001   0.54873   0.00000  Uiso   1.00
O1065  O     0.98691   0.47766   0.44089   0.00000  Uiso   1.00
C1066  C     0.98935   0.50533   0.40374   0.00000  Uiso   1.00
H1067  H     0.68921   0.50156   0.38527   0.00000  Uiso   1.00
H1068  H     0.99182   0.53811   0.41479   0.00000  Uiso   1.00
H1069  H     0.95450   0.49792   0.37848   0.00000  Uiso   1.00
O1070  O     0.67956   0.52157   0.55957   0.00000  Uiso   1.00
C1071  C     0.67853   0.49292   0.59584   0.00000  Uiso   1.00
H1072  H     0.68311   0.46125   0.58419   0.00000  Uiso   1.00
H1073  H     0.97599   0.49202   0.61163   0.00000  Uiso   1.00
H1074  H     0.71029   0.50302   0.62357   0.00000  Uiso   1.00
O1075  O     0.82552   0.37222   0.41447   0.00000  Uiso   1.00
C1076  C     0.87390   0.37457   0.39870   0.00000  Uiso   1.00
H1077  H     0.90343   0.39291   0.42344   0.00000  Uiso   1.00
H1078  H     0.87145   0.39031   0.36466   0.00000  Uiso   1.00
H1079  H     0.88582   0.34354   0.39288   0.00000  Uiso   1.00
O1080  O     0.84354   0.62779   0.58573   0.00000  Uiso   1.00
C1081  C     0.79516   0.62372   0.60158   0.00000  Uiso   1.00
H1082  H     0.79860   0.60843   0.63588   0.00000  Uiso   1.00
H1083  H     0.76652   0.60427   0.57714   0.00000  Uiso   1.00
H1084  H     0.78133   0.65410   0.60686   0.00000  Uiso   1.00
O1085  O     0.80695   0.62301   0.41589   0.00000  Uiso   1.00
C1086  C     0.75315   0.61640   0.40819   0.00000  Uiso   1.00
H1087  H     0.74163   0.59862   0.37502   0.00000  Uiso   1.00
H1088  H     0.73580   0.64597   0.40447   0.00000  Uiso   1.00
H1089  H     0.73777   0.59809   0.43656   0.00000  Uiso   1.00
O1090  O     0.86097   0.37713   0.58420   0.00000  Uiso   1.00
C1091  C     0.91473   0.38436   0.59129   0.00000  Uiso   1.00
H1092  H     0.93268   0.35504   0.59448   0.00000  Uiso   1.00
H1093  H     0.92641   0.40200   0.62455   0.00000  Uiso   1.00
H1094  H     0.92934   0.40308   0.56286   0.00000  Uiso   1.00
O1095  O     0.78533   0.43519   0.37731   0.00000  Uiso   1.00
C1096  C     0.73144   0.43052   0.36905   0.00000  Uiso   1.00
H1097  H     0.71844   0.39849   0.35720   0.00000  Uiso   1.00
H1098  H     0.71441   0.45116   0.34249   0.00000  Uiso   1.00
H1099  H     0.71629   0.43481   0.40251   0.00000  Uiso   1.00
O1100  O     0.88379   0.56346   0.62220   0.00000  Uiso   1.00
C1101  C     0.93733   0.56856   0.63445   0.00000  Uiso   1.00
H1102  H     0.95320   0.54303   0.65440   0.00000  Uiso   1.00
H1103  H     0.94843   0.59749   0.65505   0.00000  Uiso   1.00
H1104  H     0.95543   0.57175   0.60194   0.00000  Uiso   1.00
C1105  C     0.77874   0.43364   0.61089   0.00000  Uiso   1.00
H1106  H     0.75881   0.43833   0.57666   0.00000  Uiso   1.00
O1107  O     0.77778   0.39874   0.62548   0.00000  Uiso   1.00
C1108  C     0.88419   0.56914   0.38597   0.00000  Uiso   1.00
H1109  H     0.87847   0.59886   0.37092   0.00000  Uiso   1.00
O1110  O     0.91399   0.56769   0.42157   0.00000  Uiso   1.00
C1111  C     0.16847   0.75427   0.49996   0.00000  Uiso   1.00
C1112  C     0.16510   0.91242   0.50008   0.00000  Uiso   1.00
C1113  C     0.06814   0.83297   0.48815   0.00000  Uiso   1.00
C1114  C     0.26517   0.83355   0.51189   0.00000  Uiso   1.00
C1115  C     0.01268   0.82922   0.48191   0.00000  Uiso   1.00
C1116  C     0.32061   0.83695   0.51833   0.00000  Uiso   1.00
C1117  C     0.16226   0.68681   0.45727   0.00000  Uiso   1.00
C1118  C     0.17239   0.97989   0.54292   0.00000  Uiso   1.00
C1119  C     0.15463   0.97754   0.45789   0.00000  Uiso   1.00
C1120  C     0.17973   0.68920   0.54228   0.00000  Uiso   1.00
C1121  C     0.16334   0.95702   0.50045   0.00000  Uiso   1.00
C1122  C     0.17077   0.70970   0.49970   0.00000  Uiso   1.00
C1123  C     0.14000   0.80216   0.35533   0.00000  Uiso   1.00
C1124  C     0.19380   0.86416   0.64451   0.00000  Uiso   1.00
C1125  C     0.14038   0.80184   0.63896   0.00000  Uiso   1.00
C1126  C     0.19257   0.86502   0.36060   0.00000  Uiso   1.00
Cu1127 Cu    0.16667   0.83334   0.54689   0.00000  Uiso   1.00
Cu1128 Cu    0.16667   0.83333   0.45311   0.00000  Uiso   1.00
N1129  N     0.16668   0.83334   0.61736   0.00000  Uiso   1.00
N1130  N     0.16665   0.83332   0.38264   0.00000  Uiso   1.00
O1131  O     0.16666   0.77322   0.53958   0.00000  Uiso   1.00
O1132  O     0.16667   0.89345   0.46042   0.00000  Uiso   1.00
O1133  O     0.16666   0.77321   0.46039   0.00000  Uiso   1.00
O1134  O     0.16667   0.89346   0.53961   0.00000  Uiso   1.00
O1135  O     0.09161   0.83334   0.53046   0.00000  Uiso   1.00
O1136  O     0.24172   0.83333   0.46954   0.00000  Uiso   1.00
O1137  O     0.09161   0.83333   0.45127   0.00000  Uiso   1.00
O1138  O     0.24172   0.83334   0.54873   0.00000  Uiso   1.00
O1139  O     0.32025   0.81100   0.44089   0.00000  Uiso   1.00
C1140  C     0.32268   0.83866   0.40374   0.00000  Uiso   1.00
H1141  H     0.02254   0.83489   0.38527   0.00000  Uiso   1.00
H1142  H     0.32515   0.87144   0.41479   0.00000  Uiso   1.00
H1143  H     0.28784   0.83125   0.37848   0.00000  Uiso   1.00
O1144  O     0.01290   0.85490   0.55957   0.00000  Uiso   1.00
C1145  C     0.01186   0.82625   0.59584   0.00000  Uiso   1.00
H1146  H     0.01644   0.79458   0.58419   0.00000  Uiso   1.00
H1147  H     0.30932   0.82536   0.61163   0.00000  Uiso   1.00
H1148  H     0.04363   0.83635   0.62357   0.00000  Uiso   1.00
O1149  O     0.15885   0.70555   0.41447   0.00000  Uiso   1.00
C1150  C     0.20724   0.70791   0.39870   0.00000  Uiso   1.00
H1151  H     0.23676   0.72624   0.42344   0.00000  Uiso   1.00
H1152  H     0.20478   0.72365   0.36466   0.00000  Uiso   1.00
H1153  H     0.21915   0.67687   0.39288   0.00000  Uiso   1.00
O1154  O     0.17688   0.96113   0.58573   0.00000  Uiso   1.00
C1155  C     0.12849   0.95705   0.60158   0.00000  Uiso   1.00
H1156  H     0.13193   0.94176   0.63588   0.00000  Uiso   1.00
H1157  H     0.09986   0.93760   0.57714   0.00000  Uiso   1.00
H1158  H     0.11467   0.98743   0.60686   0.00000  Uiso   1.00
O1159  O     0.14028   0.95634   0.41589   0.00000  Uiso   1.00
C1160  C     0.08648   0.94974   0.40819   0.00000  Uiso   1.00
H1161  H     0.07496   0.93195   0.37502   0.00000  Uiso   1.00
H1162  H     0.06913   0.97930   0.40447   0.00000  Uiso   1.00
H1163  H     0.07110   0.93143   0.43656   0.00000  Uiso   1.00
O1164  O     0.19430   0.71047   0.58420   0.00000  Uiso   1.00
C1165  C     0.24806   0.71770   0.59129   0.00000  Uiso   1.00
H1166  H     0.26601   0.68837   0.59448   0.00000  Uiso   1.00
H1167  H     0.25974   0.73533   0.62455   0.00000  Uiso   1.00
H1168  H     0.26267   0.73641   0.56286   0.00000  Uiso   1.00
O1169  O     0.11866   0.76852   0.37731   0.00000  Uiso   1.00
C1170  C     0.06478   0.76385   0.36905   0.00000  Uiso   1.00
H1171  H     0.05177   0.73182   0.35720   0.00000  Uiso   1.00
H1172  H     0.04774   0.78449   0.34249   0.00000  Uiso   1.00
H1173  H     0.04963   0.76814   0.40251   0.00000  Uiso   1.00
O1174  O     0.21712   0.89680   0.62220   0.00000  Uiso   1.00
C1175  C     0.27067   0.90189   0.63445   0.00000  Uiso   1.00
H1176  H     0.28653   0.87636   0.65440   0.00000  Uiso   1.00
H1177  H     0.28177   0.93083   0.65505   0.00000  Uiso   1.00
H1178  H     0.28877   0.90508   0.60194   0.00000  Uiso   1.00
C1179  C     0.11208   0.76698   0.61089   0.00000  Uiso   1.00
H1180  H     0.09214   0.77167   0.57666   0.00000  Uiso   1.00
O1181  O     0.11112   0.73207   0.62548   0.00000  Uiso   1.00
C1182  C     0.21753   0.90247   0.38597   0.00000  Uiso   1.00
H1183  H     0.21181   0.93219   0.37092   0.00000  Uiso   1.00
O1184  O     0.24733   0.90102   0.42157   0.00000  Uiso   1.00
C1185  C     0.50180   0.75427   0.49996   0.00000  Uiso   1.00
C1186  C     0.49844   0.91242   0.50008   0.00000  Uiso   1.00
C1187  C     0.40148   0.83297   0.48815   0.00000  Uiso   1.00
C1188  C     0.59851   0.83355   0.51189   0.00000  Uiso   1.00
C1189  C     0.34601   0.82922   0.48191   0.00000  Uiso   1.00
C1190  C     0.65394   0.83695   0.51833   0.00000  Uiso   1.00
C1191  C     0.49560   0.68681   0.45727   0.00000  Uiso   1.00
C1192  C     0.50572   0.97989   0.54292   0.00000  Uiso   1.00
C1193  C     0.48796   0.97754   0.45789   0.00000  Uiso   1.00
C1194  C     0.51306   0.68920   0.54228   0.00000  Uiso   1.00
C1195  C     0.49668   0.95702   0.50045   0.00000  Uiso   1.00
C1196  C     0.50410   0.70970   0.49970   0.00000  Uiso   1.00
C1197  C     0.47333   0.80216   0.35533   0.00000  Uiso   1.00
C1198  C     0.52713   0.86416   0.64451   0.00000  Uiso   1.00
C1199  C     0.47372   0.80184   0.63896   0.00000  Uiso   1.00
C1200  C     0.52591   0.86502   0.36060   0.00000  Uiso   1.00
Cu1201 Cu    0.50000   0.83334   0.54689   0.00000  Uiso   1.00
Cu1202 Cu    0.50000   0.83333   0.45311   0.00000  Uiso   1.00
N1203  N     0.50001   0.83334   0.61736   0.00000  Uiso   1.00
N1204  N     0.49999   0.83332   0.38264   0.00000  Uiso   1.00
O1205  O     0.50000   0.77322   0.53958   0.00000  Uiso   1.00
O1206  O     0.50000   0.89345   0.46042   0.00000  Uiso   1.00
O1207  O     0.50000   0.77321   0.46039   0.00000  Uiso   1.00
O1208  O     0.50000   0.89346   0.53961   0.00000  Uiso   1.00
O1209  O     0.42495   0.83334   0.53046   0.00000  Uiso   1.00
O1210  O     0.57505   0.83333   0.46954   0.00000  Uiso   1.00
O1211  O     0.42494   0.83333   0.45127   0.00000  Uiso   1.00
O1212  O     0.57506   0.83334   0.54873   0.00000  Uiso   1.00
O1213  O     0.65358   0.81100   0.44089   0.00000  Uiso   1.00
C1214  C     0.65601   0.83866   0.40374   0.00000  Uiso   1.00
H1215  H     0.35588   0.83489   0.38527   0.00000  Uiso   1.00
H1216  H     0.65849   0.87144   0.41479   0.00000  Uiso   1.00
H1217  H     0.62117   0.83125   0.37848   0.00000  Uiso   1.00
O1218  O     0.34623   0.85490   0.55957   0.00000  Uiso   1.00
C1219  C     0.34520   0.82625   0.59584   0.00000  Uiso   1.00
H1220  H     0.34978   0.79458   0.58419   0.00000  Uiso   1.00
H1221  H     0.64265   0.82536   0.61163   0.00000  Uiso   1.00
H1222  H     0.37696   0.83635   0.62357   0.00000  Uiso   1.00
O1223  O     0.49219   0.70555   0.41447   0.00000  Uiso   1.00
C1224  C     0.54057   0.70791   0.39870   0.00000  Uiso   1.00
H1225  H     0.57010   0.72624   0.42344   0.00000  Uiso   1.00
H1226  H     0.53812   0.72365   0.36466   0.00000  Uiso   1.00
H1227  H     0.55248   0.67687   0.39288   0.00000  Uiso   1.00
O1228  O     0.51021   0.96113   0.58573   0.00000  Uiso   1.00
C1229  C     0.46182   0.95705   0.60158   0.00000  Uiso   1.00
H1230  H     0.46527   0.94176   0.63588   0.00000  Uiso   1.00
H1231  H     0.43319   0.93760   0.57714   0.00000  Uiso   1.00
H1232  H     0.44800   0.98743   0.60686   0.00000  Uiso   1.00
O1233  O     0.47361   0.95634   0.41589   0.00000  Uiso   1.00
C1234  C     0.41982   0.94974   0.40819   0.00000  Uiso   1.00
H1235  H     0.40829   0.93195   0.37502   0.00000  Uiso   1.00
H1236  H     0.40247   0.97930   0.40447   0.00000  Uiso   1.00
H1237  H     0.40444   0.93143   0.43656   0.00000  Uiso   1.00
O1238  O     0.52763   0.71047   0.58420   0.00000  Uiso   1.00
C1239  C     0.58139   0.71770   0.59129   0.00000  Uiso   1.00
H1240  H     0.59935   0.68837   0.59448   0.00000  Uiso   1.00
H1241  H     0.59308   0.73533   0.62455   0.00000  Uiso   1.00
H1242  H     0.59601   0.73641   0.56286   0.00000  Uiso   1.00
O1243  O     0.45199   0.76852   0.37731   0.00000  Uiso   1.00
C1244  C     0.39811   0.76385   0.36905   0.00000  Uiso   1.00
H1245  H     0.38511   0.73182   0.35720   0.00000  Uiso   1.00
H1246  H     0.38108   0.78449   0.34249   0.00000  Uiso   1.00
H1247  H     0.38296   0.76814   0.40251   0.00000  Uiso   1.00
O1248  O     0.55045   0.89680   0.62220   0.00000  Uiso   1.00
C1249  C     0.60400   0.90189   0.63445   0.00000  Uiso   1.00
H1250  H     0.61987   0.87636   0.65440   0.00000  Uiso   1.00
H1251  H     0.61510   0.93083   0.65505   0.00000  Uiso   1.00
H1252  H     0.62210   0.90508   0.60194   0.00000  Uiso   1.00
C1253  C     0.44541   0.76698   0.61089   0.00000  Uiso   1.00
H1254  H     0.42548   0.77167   0.57666   0.00000  Uiso   1.00
O1255  O     0.44445   0.73207   0.62548   0.00000  Uiso   1.00
C1256  C     0.55086   0.90247   0.38597   0.00000  Uiso   1.00
H1257  H     0.54514   0.93219   0.37092   0.00000  Uiso   1.00
O1258  O     0.58066   0.90102   0.42157   0.00000  Uiso   1.00
C1259  C     0.83514   0.75427   0.49996   0.00000  Uiso   1.00
C1260  C     0.83177   0.91242   0.50008   0.00000  Uiso   1.00
C1261  C     0.73481   0.83297   0.48815   0.00000  Uiso   1.00
C1262  C     0.93184   0.83355   0.51189   0.00000  Uiso   1.00
C1263  C     0.67934   0.82922   0.48191   0.00000  Uiso   1.00
C1264  C     0.98728   0.83695   0.51833   0.00000  Uiso   1.00
C1265  C     0.82893   0.68681   0.45727   0.00000  Uiso   1.00
C1266  C     0.83905   0.97989   0.54292   0.00000  Uiso   1.00
C1267  C     0.82129   0.97754   0.45789   0.00000  Uiso   1.00
C1268  C     0.84639   0.68920   0.54228   0.00000  Uiso   1.00
C1269  C     0.83001   0.95702   0.50045   0.00000  Uiso   1.00
C1270  C     0.83744   0.70970   0.49970   0.00000  Uiso   1.00
C1271  C     0.80666   0.80216   0.35533   0.00000  Uiso   1.00
C1272  C     0.86047   0.86416   0.64451   0.00000  Uiso   1.00
C1273  C     0.80705   0.80184   0.63896   0.00000  Uiso   1.00
C1274  C     0.85924   0.86502   0.36060   0.00000  Uiso   1.00
Cu1275 Cu    0.83333   0.83334   0.54689   0.00000  Uiso   1.00
Cu1276 Cu    0.83333   0.83333   0.45311   0.00000  Uiso   1.00
N1277  N     0.83335   0.83334   0.61736   0.00000  Uiso   1.00
N1278  N     0.83332   0.83332   0.38264   0.00000  Uiso   1.00
O1279  O     0.83333   0.77322   0.53958   0.00000  Uiso   1.00
O1280  O     0.83334   0.89345   0.46042   0.00000  Uiso   1.00
O1281  O     0.83333   0.77321   0.46039   0.00000  Uiso   1.00
O1282  O     0.83334   0.89346   0.53961   0.00000  Uiso   1.00
O1283  O     0.75828   0.83334   0.53046   0.00000  Uiso   1.00
O1284  O     0.90839   0.83333   0.46954   0.00000  Uiso   1.00
O1285  O     0.75828   0.83333   0.45127   0.00000  Uiso   1.00
O1286  O     0.90839   0.83334   0.54873   0.00000  Uiso   1.00
O1287  O     0.98691   0.81100   0.44089   0.00000  Uiso   1.00
C1288  C     0.98935   0.83866   0.40374   0.00000  Uiso   1.00
H1289  H     0.68921   0.83489   0.38527   0.00000  Uiso   1.00
H1290  H     0.99182   0.87144   0.41479   0.00000  Uiso   1.00
H1291  H     0.95450   0.83125   0.37848   0.00000  Uiso   1.00
O1292  O     0.67956   0.85490   0.55957   0.00000  Uiso   1.00
C1293  C     0.67853   0.82625   0.59584   0.00000  Uiso   1.00
H1294  H     0.68311   0.79458   0.58419   0.00000  Uiso   1.00
H1295  H     0.97599   0.82536   0.61163   0.00000  Uiso   1.00
H1296  H     0.71029   0.83635   0.62357   0.00000  Uiso   1.00
O1297  O     0.82552   0.70555   0.41447   0.00000  Uiso   1.00
C1298  C     0.87390   0.70791   0.39870   0.00000  Uiso   1.00
H1299  H     0.90343   0.72624   0.42344   0.00000  Uiso   1.00
H1300  H     0.87145   0.72365   0.36466   0.00000  Uiso   1.00
H1301  H     0.88582   0.67687   0.39288   0.00000  Uiso   1.00
O1302  O     0.84354   0.96113   0.58573   0.00000  Uiso   1.00
C1303  C     0.79516   0.95705   0.60158   0.00000  Uiso   1.00
H1304  H     0.79860   0.94176   0.63588   0.00000  Uiso   1.00
H1305  H     0.76652   0.93760   0.57714   0.00000  Uiso   1.00
H1306  H     0.78133   0.98743   0.60686   0.00000  Uiso   1.00
O1307  O     0.80695   0.95634   0.41589   0.00000  Uiso   1.00
C1308  C     0.75315   0.94974   0.40819   0.00000  Uiso   1.00
H1309  H     0.74163   0.93195   0.37502   0.00000  Uiso   1.00
H1310  H     0.73580   0.97930   0.40447   0.00000  Uiso   1.00
H1311  H     0.73777   0.93143   0.43656   0.00000  Uiso   1.00
O1312  O     0.86097   0.71047   0.58420   0.00000  Uiso   1.00
C1313  C     0.91473   0.71770   0.59129   0.00000  Uiso   1.00
H1314  H     0.93268   0.68837   0.59448   0.00000  Uiso   1.00
H1315  H     0.92641   0.73533   0.62455   0.00000  Uiso   1.00
H1316  H     0.92934   0.73641   0.56286   0.00000  Uiso   1.00
O1317  O     0.78533   0.76852   0.37731   0.00000  Uiso   1.00
C1318  C     0.73144   0.76385   0.36905   0.00000  Uiso   1.00
H1319  H     0.71844   0.73182   0.35720   0.00000  Uiso   1.00
H1320  H     0.71441   0.78449   0.34249   0.00000  Uiso   1.00
H1321  H     0.71629   0.76814   0.40251   0.00000  Uiso   1.00
O1322  O     0.88379   0.89680   0.62220   0.00000  Uiso   1.00
C1323  C     0.93733   0.90189   0.63445   0.00000  Uiso   1.00
H1324  H     0.95320   0.87636   0.65440   0.00000  Uiso   1.00
H1325  H     0.94843   0.93083   0.65505   0.00000  Uiso   1.00
H1326  H     0.95543   0.90508   0.60194   0.00000  Uiso   1.00
C1327  C     0.77874   0.76698   0.61089   0.00000  Uiso   1.00
H1328  H     0.75881   0.77167   0.57666   0.00000  Uiso   1.00
O1329  O     0.77778   0.73207   0.62548   0.00000  Uiso   1.00
C1330  C     0.88419   0.90247   0.38597   0.00000  Uiso   1.00
H1331  H     0.87847   0.93219   0.37092   0.00000  Uiso   1.00
O1332  O     0.91399   0.90102   0.42157   0.00000  Uiso   1.00
C1333  C     0.16847   0.08760   0.83329   0.00000  Uiso   1.00
C1334  C     0.16510   0.24575   0.83341   0.00000  Uiso   1.00
C1335  C     0.06814   0.16630   0.82149   0.00000  Uiso   1.00
C1336  C     0.26517   0.16688   0.84522   0.00000  Uiso   1.00
C1337  C     0.01268   0.16255   0.81525   0.00000  Uiso   1.00
C1338  C     0.32061   0.17028   0.85166   0.00000  Uiso   1.00
C1339  C     0.16226   0.02014   0.79061   0.00000  Uiso   1.00
C1340  C     0.17239   0.31323   0.87625   0.00000  Uiso   1.00
C1341  C     0.15463   0.31087   0.79122   0.00000  Uiso   1.00
C1342  C     0.17973   0.02253   0.87561   0.00000  Uiso   1.00
C1343  C     0.16334   0.29035   0.83378   0.00000  Uiso   1.00
C1344  C     0.17077   0.04303   0.83303   0.00000  Uiso   1.00
C1345  C     0.14000   0.13549   0.68866   0.00000  Uiso   1.00
C1346  C     0.19380   0.19750   0.97784   0.00000  Uiso   1.00
C1347  C     0.14038   0.13517   0.97230   0.00000  Uiso   1.00
C1348  C     0.19257   0.19835   0.69394   0.00000  Uiso   1.00
Cu1349 Cu    0.16667   0.16667   0.88022   0.00000  Uiso   1.00
Cu1350 Cu    0.16667   0.16666   0.78645   0.00000  Uiso   1.00
N1351  N     0.16668   0.16668   0.95069   0.00000  Uiso   1.00
N1352  N     0.16665   0.16666   0.71597   0.00000  Uiso   1.00
O1353  O     0.16666   0.10655   0.87291   0.00000  Uiso   1.00
O1354  O     0.16667   0.22678   0.79375   0.00000  Uiso   1.00
O1355  O     0.16666   0.10654   0.79372   0.00000  Uiso   1.00
O1356  O     0.16667   0.22679   0.87294   0.00000  Uiso   1.00
O1357  O     0.09161   0.16667   0.86379   0.00000  Uiso   1.00
O1358  O     0.24172   0.16666   0.80288   0.00000  Uiso   1.00
O1359  O     0.09161   0.16666   0.78460   0.00000  Uiso   1.00
O1360  O     0.24172   0.16667   0.88207   0.00000  Uiso   1.00
O1361  O     0.32025   0.14433   0.77422   0.00000  Uiso   1.00
C1362  C     0.32268   0.17199   0.73708   0.00000  Uiso   1.00
H1363  H     0.02254   0.16822   0.71860   0.00000  Uiso   1.00
H1364  H     0.32515   0.20477   0.74812   0.00000  Uiso   1.00
H1365  H     0.28784   0.16458   0.71182   0.00000  Uiso   1.00
O1366  O     0.01290   0.18823   0.89290   0.00000  Uiso   1.00
C1367  C     0.01186   0.15958   0.92917   0.00000  Uiso   1.00
H1368  H     0.01644   0.12792   0.91753   0.00000  Uiso   1.00
H1369  H     0.30932   0.15869   0.94496   0.00000  Uiso   1.00
H1370  H     0.04363   0.16968   0.95690   0.00000  Uiso   1.00
O1371  O     0.15885   0.03888   0.74781   0.00000  Uiso   1.00
C1372  C     0.20724   0.04124   0.73203   0.00000  Uiso   1.00
H1373  H     0.23676   0.05957   0.75677   0.00000  Uiso   1.00
H1374  H     0.20478   0.05698   0.69799   0.00000  Uiso   1.00
H1375  H     0.21915   0.01021   0.72621   0.00000  Uiso   1.00
O1376  O     0.17688   0.29446   0.91907   0.00000  Uiso   1.00
C1377  C     0.12849   0.29039   0.93491   0.00000  Uiso   1.00
H1378  H     0.13193   0.27509   0.96921   0.00000  Uiso   1.00
H1379  H     0.09986   0.27094   0.91047   0.00000  Uiso   1.00
H1380  H     0.11467   0.32077   0.94019   0.00000  Uiso   1.00
O1381  O     0.14028   0.28967   0.74923   0.00000  Uiso   1.00
C1382  C     0.08648   0.28307   0.74152   0.00000  Uiso   1.00
H1383  H     0.07496   0.26528   0.70835   0.00000  Uiso   1.00
H1384  H     0.06913   0.31263   0.73781   0.00000  Uiso   1.00
H1385  H     0.07110   0.26476   0.76990   0.00000  Uiso   1.00
O1386  O     0.19430   0.04380   0.91754   0.00000  Uiso   1.00
C1387  C     0.24806   0.05103   0.92462   0.00000  Uiso   1.00
H1388  H     0.26601   0.02171   0.92781   0.00000  Uiso   1.00
H1389  H     0.25974   0.06867   0.95788   0.00000  Uiso   1.00
H1390  H     0.26267   0.06974   0.89619   0.00000  Uiso   1.00
O1391  O     0.11866   0.10186   0.71064   0.00000  Uiso   1.00
C1392  C     0.06478   0.09719   0.70238   0.00000  Uiso   1.00
H1393  H     0.05177   0.06515   0.69053   0.00000  Uiso   1.00
H1394  H     0.04774   0.11782   0.67583   0.00000  Uiso   1.00
H1395  H     0.04963   0.10148   0.73584   0.00000  Uiso   1.00
O1396  O     0.21712   0.23013   0.95553   0.00000  Uiso   1.00
C1397  C     0.27067   0.23523   0.96778   0.00000  Uiso   1.00
H1398  H     0.28653   0.20969   0.98773   0.00000  Uiso   1.00
H1399  H     0.28177   0.26416   0.98838   0.00000  Uiso   1.00
H1400  H     0.28877   0.23841   0.93528   0.00000  Uiso   1.00
C1401  C     0.11208   0.10031   0.94422   0.00000  Uiso   1.00
H1402  H     0.09214   0.10500   0.91000   0.00000  Uiso   1.00
O1403  O     0.11112   0.06541   0.95881   0.00000  Uiso   1.00
C1404  C     0.21753   0.23581   0.71930   0.00000  Uiso   1.00
H1405  H     0.21181   0.26552   0.70426   0.00000  Uiso   1.00
O1406  O     0.24733   0.23436   0.75490   0.00000  Uiso   1.00
C1407  C     0.50180   0.08760   0.83329   0.00000  Uiso   1.00
C1408  C     0.49844   0.24575   0.83341   0.00000  Uiso   1.00
C1409  C     0.40148   0.16630   0.82149   0.00000  Uiso   1.00
C1410  C     0.59851   0.16688   0.84522   0.00000  Uiso   1.00
C1411  C     0.34601   0.16255   0.81525   0.00000  Uiso   1.00
C1412  C     0.65394   0.17028   0.85166   0.00000  Uiso   1.00
C1413  C     0.49560   0.02014   0.79061   0.00000  Uiso   1.00
C1414  C     0.50572   0.31323   0.87625   0.00000  Uiso   1.00
C1415  C     0.48796   0.31087   0.79122   0.00000  Uiso   1.00
C1416  C     0.51306   0.02253   0.87561   0.00000  Uiso   1.00
C1417  C     0.49668   0.29035   0.83378   0.00000  Uiso   1.00
C1418  C     0.50410   0.04303   0.83303   0.00000  Uiso   1.00
C1419  C     0.47333   0.13549   0.68866   0.00000  Uiso   1.00
C1420  C     0.52713   0.19750   0.97784   0.00000  Uiso   1.00
C1421  C     0.47372   0.13517   0.97230   0.00000  Uiso   1.00
C1422  C     0.52591   0.19835   0.69394   0.00000  Uiso   1.00
Cu1423 Cu    0.50000   0.16667   0.88022   0.00000  Uiso   1.00
Cu1424 Cu    0.50000   0.16666   0.78645   0.00000  Uiso   1.00
N1425  N     0.50001   0.16668   0.95069   0.00000  Uiso   1.00
N1426  N     0.49999   0.16666   0.71597   0.00000  Uiso   1.00
O1427  O     0.50000   0.10655   0.87291   0.00000  Uiso   1.00
O1428  O     0.50000   0.22678   0.79375   0.00000  Uiso   1.00
O1429  O     0.50000   0.10654   0.79372   0.00000  Uiso   1.00
O1430  O     0.50000   0.22679   0.87294   0.00000  Uiso   1.00
O1431  O     0.42495   0.16667   0.86379   0.00000  Uiso   1.00
O1432  O     0.57505   0.16666   0.80288   0.00000  Uiso   1.00
O1433  O     0.42494   0.16666   0.78460   0.00000  Uiso   1.00
O1434  O     0.57506   0.16667   0.88207   0.00000  Uiso   1.00
O1435  O     0.65358   0.14433   0.77422   0.00000  Uiso   1.00
C1436  C     0.65601   0.17199   0.73708   0.00000  Uiso   1.00
H1437  H     0.35588   0.16822   0.71860   0.00000  Uiso   1.00
H1438  H     0.65849   0.20477   0.74812   0.00000  Uiso   1.00
H1439  H     0.62117   0.16458   0.71182   0.00000  Uiso   1.00
O1440  O     0.34623   0.18823   0.89290   0.00000  Uiso   1.00
C1441  C     0.34520   0.15958   0.92917   0.00000  Uiso   1.00
H1442  H     0.34978   0.12792   0.91753   0.00000  Uiso   1.00
H1443  H     0.64265   0.15869   0.94496   0.00000  Uiso   1.00
H1444  H     0.37696   0.16968   0.95690   0.00000  Uiso   1.00
O1445  O     0.49219   0.03888   0.74781   0.00000  Uiso   1.00
C1446  C     0.54057   0.04124   0.73203   0.00000  Uiso   1.00
H1447  H     0.57010   0.05957   0.75677   0.00000  Uiso   1.00
H1448  H     0.53812   0.05698   0.69799   0.00000  Uiso   1.00
H1449  H     0.55248   0.01021   0.72621   0.00000  Uiso   1.00
O1450  O     0.51021   0.29446   0.91907   0.00000  Uiso   1.00
C1451  C     0.46182   0.29039   0.93491   0.00000  Uiso   1.00
H1452  H     0.46527   0.27509   0.96921   0.00000  Uiso   1.00
H1453  H     0.43319   0.27094   0.91047   0.00000  Uiso   1.00
H1454  H     0.44800   0.32077   0.94019   0.00000  Uiso   1.00
O1455  O     0.47361   0.28967   0.74923   0.00000  Uiso   1.00
C1456  C     0.41982   0.28307   0.74152   0.00000  Uiso   1.00
H1457  H     0.40829   0.26528   0.70835   0.00000  Uiso   1.00
H1458  H     0.40247   0.31263   0.73781   0.00000  Uiso   1.00
H1459  H     0.40444   0.26476   0.76990   0.00000  Uiso   1.00
O1460  O     0.52763   0.04380   0.91754   0.00000  Uiso   1.00
C1461  C     0.58139   0.05103   0.92462   0.00000  Uiso   1.00
H1462  H     0.59935   0.02171   0.92781   0.00000  Uiso   1.00
H1463  H     0.59308   0.06867   0.95788   0.00000  Uiso   1.00
H1464  H     0.59601   0.06974   0.89619   0.00000  Uiso   1.00
O1465  O     0.45199   0.10186   0.71064   0.00000  Uiso   1.00
C1466  C     0.39811   0.09719   0.70238   0.00000  Uiso   1.00
H1467  H     0.38511   0.06515   0.69053   0.00000  Uiso   1.00
H1468  H     0.38108   0.11782   0.67583   0.00000  Uiso   1.00
H1469  H     0.38296   0.10148   0.73584   0.00000  Uiso   1.00
O1470  O     0.55045   0.23013   0.95553   0.00000  Uiso   1.00
C1471  C     0.60400   0.23523   0.96778   0.00000  Uiso   1.00
H1472  H     0.61987   0.20969   0.98773   0.00000  Uiso   1.00
H1473  H     0.61510   0.26416   0.98838   0.00000  Uiso   1.00
H1474  H     0.62210   0.23841   0.93528   0.00000  Uiso   1.00
C1475  C     0.44541   0.10031   0.94422   0.00000  Uiso   1.00
H1476  H     0.42548   0.10500   0.91000   0.00000  Uiso   1.00
O1477  O     0.44445   0.06541   0.95881   0.00000  Uiso   1.00
C1478  C     0.55086   0.23581   0.71930   0.00000  Uiso   1.00
H1479  H     0.54514   0.26552   0.70426   0.00000  Uiso   1.00
O1480  O     0.58066   0.23436   0.75490   0.00000  Uiso   1.00
C1481  C     0.83514   0.08760   0.83329   0.00000  Uiso   1.00
C1482  C     0.83177   0.24575   0.83341   0.00000  Uiso   1.00
C1483  C     0.73481   0.16630   0.82149   0.00000  Uiso   1.00
C1484  C     0.93184   0.16688   0.84522   0.00000  Uiso   1.00
C1485  C     0.67934   0.16255   0.81525   0.00000  Uiso   1.00
C1486  C     0.98728   0.17028   0.85166   0.00000  Uiso   1.00
C1487  C     0.82893   0.02014   0.79061   0.00000  Uiso   1.00
C1488  C     0.83905   0.31323   0.87625   0.00000  Uiso   1.00
C1489  C     0.82129   0.31087   0.79122   0.00000  Uiso   1.00
C1490  C     0.84639   0.02253   0.87561   0.00000  Uiso   1.00
C1491  C     0.83001   0.29035   0.83378   0.00000  Uiso   1.00
C1492  C     0.83744   0.04303   0.83303   0.00000  Uiso   1.00
C1493  C     0.80666   0.13549   0.68866   0.00000  Uiso   1.00
C1494  C     0.86047   0.19750   0.97784   0.00000  Uiso   1.00
C1495  C     0.80705   0.13517   0.97230   0.00000  Uiso   1.00
C1496  C     0.85924   0.19835   0.69394   0.00000  Uiso   1.00
Cu1497 Cu    0.83333   0.16667   0.88022   0.00000  Uiso   1.00
Cu1498 Cu    0.83333   0.16666   0.78645   0.00000  Uiso   1.00
N1499  N     0.83335   0.16668   0.95069   0.00000  Uiso   1.00
N1500  N     0.83332   0.16666   0.71597   0.00000  Uiso   1.00
O1501  O     0.83333   0.10655   0.87291   0.00000  Uiso   1.00
O1502  O     0.83334   0.22678   0.79375   0.00000  Uiso   1.00
O1503  O     0.83333   0.10654   0.79372   0.00000  Uiso   1.00
O1504  O     0.83334   0.22679   0.87294   0.00000  Uiso   1.00
O1505  O     0.75828   0.16667   0.86379   0.00000  Uiso   1.00
O1506  O     0.90839   0.16666   0.80288   0.00000  Uiso   1.00
O1507  O     0.75828   0.16666   0.78460   0.00000  Uiso   1.00
O1508  O     0.90839   0.16667   0.88207   0.00000  Uiso   1.00
O1509  O     0.98691   0.14433   0.77422   0.00000  Uiso   1.00
C1510  C     0.98935   0.17199   0.73708   0.00000  Uiso   1.00
H1511  H     0.68921   0.16822   0.71860   0.00000  Uiso   1.00
H1512  H     0.99182   0.20477   0.74812   0.00000  Uiso   1.00
H1513  H     0.95450   0.16458   0.71182   0.00000  Uiso   1.00
O1514  O     0.67956   0.18823   0.89290   0.00000  Uiso   1.00
C1515  C     0.67853   0.15958   0.92917   0.00000  Uiso   1.00
H1516  H     0.68311   0.12792   0.91753   0.00000  Uiso   1.00
H1517  H     0.97599   0.15869   0.94496   0.00000  Uiso   1.00
H1518  H     0.71029   0.16968   0.95690   0.00000  Uiso   1.00
O1519  O     0.82552   0.03888   0.74781   0.00000  Uiso   1.00
C1520  C     0.87390   0.04124   0.73203   0.00000  Uiso   1.00
H1521  H     0.90343   0.05957   0.75677   0.00000  Uiso   1.00
H1522  H     0.87145   0.05698   0.69799   0.00000  Uiso   1.00
H1523  H     0.88582   0.01021   0.72621   0.00000  Uiso   1.00
O1524  O     0.84354   0.29446   0.91907   0.00000  Uiso   1.00
C1525  C     0.79516   0.29039   0.93491   0.00000  Uiso   1.00
H1526  H     0.79860   0.27509   0.96921   0.00000  Uiso   1.00
H1527  H     0.76652   0.27094   0.91047   0.00000  Uiso   1.00
H1528  H     0.78133   0.32077   0.94019   0.00000  Uiso   1.00
O1529  O     0.80695   0.28967   0.74923   0.00000  Uiso   1.00
C1530  C     0.75315   0.28307   0.74152   0.00000  Uiso   1.00
H1531  H     0.74163   0.26528   0.70835   0.00000  Uiso   1.00
H1532  H     0.73580   0.31263   0.73781   0.00000  Uiso   1.00
H1533  H     0.73777   0.26476   0.76990   0.00000  Uiso   1.00
O1534  O     0.86097   0.04380   0.91754   0.00000  Uiso   1.00
C1535  C     0.91473   0.05103   0.92462   0.00000  Uiso   1.00
H1536  H     0.93268   0.02171   0.92781   0.00000  Uiso   1.00
H1537  H     0.92641   0.06867   0.95788   0.00000  Uiso   1.00
H1538  H     0.92934   0.06974   0.89619   0.00000  Uiso   1.00
O1539  O     0.78533   0.10186   0.71064   0.00000  Uiso   1.00
C1540  C     0.73144   0.09719   0.70238   0.00000  Uiso   1.00
H1541  H     0.71844   0.06515   0.69053   0.00000  Uiso   1.00
H1542  H     0.71441   0.11782   0.67583   0.00000  Uiso   1.00
H1543  H     0.71629   0.10148   0.73584   0.00000  Uiso   1.00
O1544  O     0.88379   0.23013   0.95553   0.00000  Uiso   1.00
C1545  C     0.93733   0.23523   0.96778   0.00000  Uiso   1.00
H1546  H     0.95320   0.20969   0.98773   0.00000  Uiso   1.00
H1547  H     0.94843   0.26416   0.98838   0.00000  Uiso   1.00
H1548  H     0.95543   0.23841   0.93528   0.00000  Uiso   1.00
C1549  C     0.77874   0.10031   0.94422   0.00000  Uiso   1.00
H1550  H     0.75881   0.10500   0.91000   0.00000  Uiso   1.00
O1551  O     0.77778   0.06541   0.95881   0.00000  Uiso   1.00
C1552  C     0.88419   0.23581   0.71930   0.00000  Uiso   1.00
H1553  H     0.87847   0.26552   0.70426   0.00000  Uiso   1.00
O1554  O     0.91399   0.23436   0.75490   0.00000  Uiso   1.00
C1555  C     0.16847   0.42093   0.83329   0.00000  Uiso   1.00
C1556  C     0.16510   0.57908   0.83341   0.00000  Uiso   1.00
C1557  C     0.06814   0.49964   0.82149   0.00000  Uiso   1.00
C1558  C     0.26517   0.50021   0.84522   0.00000  Uiso   1.00
C1559  C     0.01268   0.49589   0.81525   0.00000  Uiso   1.00
C1560  C     0.32061   0.50361   0.85166   0.00000  Uiso   1.00
C1561  C     0.16226   0.35347   0.79061   0.00000  Uiso   1.00
C1562  C     0.17239   0.64656   0.87625   0.00000  Uiso   1.00
C1563  C     0.15463   0.64421   0.79122   0.00000  Uiso   1.00
C1564  C     0.17973   0.35587   0.87561   0.00000  Uiso   1.00
C1565  C     0.16334   0.62368   0.83378   0.00000  Uiso   1.00
C1566  C     0.17077   0.37636   0.83303   0.00000  Uiso   1.00
C1567  C     0.14000   0.46883   0.68866   0.00000  Uiso   1.00
C1568  C     0.19380   0.53083   0.97784   0.00000  Uiso   1.00
C1569  C     0.14038   0.46851   0.97230   0.00000  Uiso   1.00
C1570  C     0.19257   0.53168   0.69394   0.00000  Uiso   1.00
Cu1571 Cu    0.16667   0.50001   0.88022   0.00000  Uiso   1.00
Cu1572 Cu    0.16667   0.49999   0.78645   0.00000  Uiso   1.00
N1573  N     0.16668   0.50001   0.95069   0.00000  Uiso   1.00
N1574  N     0.16665   0.49999   0.71597   0.00000  Uiso   1.00
O1575  O     0.16666   0.43989   0.87291   0.00000  Uiso   1.00
O1576  O     0.16667   0.56011   0.79375   0.00000  Uiso   1.00
O1577  O     0.16666   0.43988   0.79372   0.00000  Uiso   1.00
O1578  O     0.16667   0.56012   0.87294   0.00000  Uiso   1.00
O1579  O     0.09161   0.50000   0.86379   0.00000  Uiso   1.00
O1580  O     0.24172   0.50000   0.80288   0.00000  Uiso   1.00
O1581  O     0.09161   0.49999   0.78460   0.00000  Uiso   1.00
O1582  O     0.24172   0.50001   0.88207   0.00000  Uiso   1.00
O1583  O     0.32025   0.47766   0.77422   0.00000  Uiso   1.00
C1584  C     0.32268   0.50533   0.73708   0.00000  Uiso   1.00
H1585  H     0.02254   0.50156   0.71860   0.00000  Uiso   1.00
H1586  H     0.32515   0.53811   0.74812   0.00000  Uiso   1.00
H1587  H     0.28784   0.49792   0.71182   0.00000  Uiso   1.00
O1588  O     0.01290   0.52157   0.89290   0.00000  Uiso   1.00
C1589  C     0.01186   0.49292   0.92917   0.00000  Uiso   1.00
H1590  H     0.01644   0.46125   0.91753   0.00000  Uiso   1.00
H1591  H     0.30932   0.49202   0.94496   0.00000  Uiso   1.00
H1592  H     0.04363   0.50302   0.95690   0.00000  Uiso   1.00
O1593  O     0.15885   0.37222   0.74781   0.00000  Uiso   1.00
C1594  C     0.20724   0.37457   0.73203   0.00000  Uiso   1.00
H1595  H     0.23676   0.39291   0.75677   0.00000  Uiso   1.00
H1596  H     0.20478   0.39031   0.69799   0.00000  Uiso   1.00
H1597  H     0.21915   0.34354   0.72621   0.00000  Uiso   1.00
O1598  O     0.17688   0.62779   0.91907   0.00000  Uiso   1.00
C1599  C     0.12849   0.62372   0.93491   0.00000  Uiso   1.00
H1600  H     0.13193   0.60843   0.96921   0.00000  Uiso   1.00
H1601  H     0.09986   0.60427   0.91047   0.00000  Uiso   1.00
H1602  H     0.11467   0.65410   0.94019   0.00000  Uiso   1.00
O1603  O     0.14028   0.62301   0.74923   0.00000  Uiso   1.00
C1604  C     0.08648   0.61640   0.74152   0.00000  Uiso   1.00
H1605  H     0.07496   0.59862   0.70835   0.00000  Uiso   1.00
H1606  H     0.06913   0.64597   0.73781   0.00000  Uiso   1.00
H1607  H     0.07110   0.59809   0.76990   0.00000  Uiso   1.00
O1608  O     0.19430   0.37713   0.91754   0.00000  Uiso   1.00
C1609  C     0.24806   0.38436   0.92462   0.00000  Uiso   1.00
H1610  H     0.26601   0.35504   0.92781   0.00000  Uiso   1.00
H1611  H     0.25974   0.40200   0.95788   0.00000  Uiso   1.00
H1612  H     0.26267   0.40308   0.89619   0.00000  Uiso   1.00
O1613  O     0.11866   0.43519   0.71064   0.00000  Uiso   1.00
C1614  C     0.06478   0.43052   0.70238   0.00000  Uiso   1.00
H1615  H     0.05177   0.39849   0.69053   0.00000  Uiso   1.00
H1616  H     0.04774   0.45116   0.67583   0.00000  Uiso   1.00
H1617  H     0.04963   0.43481   0.73584   0.00000  Uiso   1.00
O1618  O     0.21712   0.56346   0.95553   0.00000  Uiso   1.00
C1619  C     0.27067   0.56856   0.96778   0.00000  Uiso   1.00
H1620  H     0.28653   0.54303   0.98773   0.00000  Uiso   1.00
H1621  H     0.28177   0.59749   0.98838   0.00000  Uiso   1.00
H1622  H     0.28877   0.57175   0.93528   0.00000  Uiso   1.00
C1623  C     0.11208   0.43364   0.94422   0.00000  Uiso   1.00
H1624  H     0.09214   0.43833   0.91000   0.00000  Uiso   1.00
O1625  O     0.11112   0.39874   0.95881   0.00000  Uiso   1.00
C1626  C     0.21753   0.56914   0.71930   0.00000  Uiso   1.00
H1627  H     0.21181   0.59886   0.70426   0.00000  Uiso   1.00
O1628  O     0.24733   0.56769   0.75490   0.00000  Uiso   1.00
C1629  C     0.50180   0.42093   0.83329   0.00000  Uiso   1.00
C1630  C     0.49844   0.57908   0.83341   0.00000  Uiso   1.00
C1631  C     0.40148   0.49964   0.82149   0.00000  Uiso   1.00
C1632  C     0.59851   0.50021   0.84522   0.00000  Uiso   1.00
C1633  C     0.34601   0.49589   0.81525   0.00000  Uiso   1.00
C1634  C     0.65394   0.50361   0.85166   0.00000  Uiso   1.00
C1635  C     0.49560   0.35347   0.79061   0.00000  Uiso   1.00
C1636  C     0.50572   0.64656   0.87625   0.00000  Uiso   1.00
C1637  C     0.48796   0.64421   0.79122   0.00000  Uiso   1.00
C1638  C     0.51306   0.35587   0.87561   0.00000  Uiso   1.00
C1639  C     0.49668   0.62368   0.83378   0.00000  Uiso   1.00
C1640  C     0.50410   0.37636   0.83303   0.00000  Uiso   1.00
C1641  C     0.47333   0.46883   0.68866   0.00000  Uiso   1.00
C1642  C     0.52713   0.53083   0.97784   0.00000  Uiso   1.00
C1643  C     0.47372   0.46851   0.97230   0.00000  Uiso   1.00
C1644  C     0.52591   0.53168   0.69394   0.00000  Uiso   1.00
Cu1645 Cu    0.50000   0.50001   0.88022   0.00000  Uiso   1.00
Cu1646 Cu    0.50000   0.49999   0.78645   0.00000  Uiso   1.00
N1647  N     0.50001   0.50001   0.95069   0.00000  Uiso   1.00
N1648  N     0.49999   0.49999   0.71597   0.00000  Uiso   1.00
O1649  O     0.50000   0.43989   0.87291   0.00000  Uiso   1.00
O1650  O     0.50000   0.56011   0.79375   0.00000  Uiso   1.00
O1651  O     0.50000   0.43988   0.79372   0.00000  Uiso   1.00
O1652  O     0.50000   0.56012   0.87294   0.00000  Uiso   1.00
O1653  O     0.42495   0.50000   0.86379   0.00000  Uiso   1.00
O1654  O     0.57505   0.50000   0.80288   0.00000  Uiso   1.00
O1655  O     0.42494   0.49999   0.78460   0.00000  Uiso   1.00
O1656  O     0.57506   0.50001   0.88207   0.00000  Uiso   1.00
O1657  O     0.65358   0.47766   0.77422   0.00000  Uiso   1.00
C1658  C     0.65601   0.50533   0.73708   0.00000  Uiso   1.00
H1659  H     0.35588   0.50156   0.71860   0.00000  Uiso   1.00
H1660  H     0.65849   0.53811   0.74812   0.00000  Uiso   1.00
H1661  H     0.62117   0.49792   0.71182   0.00000  Uiso   1.00
O1662  O     0.34623   0.52157   0.89290   0.00000  Uiso   1.00
C1663  C     0.34520   0.49292   0.92917   0.00000  Uiso   1.00
H1664  H     0.34978   0.46125   0.91753   0.00000  Uiso   1.00
H1665  H     0.64265   0.49202   0.94496   0.00000  Uiso   1.00
H1666  H     0.37696   0.50302   0.95690   0.00000  Uiso   1.00
O1667  O     0.49219   0.37222   0.74781   0.00000  Uiso   1.00
C1668  C     0.54057   0.37457   0.73203   0.00000  Uiso   1.00
H1669  H     0.57010   0.39291   0.75677   0.00000  Uiso   1.00
H1670  H     0.53812   0.39031   0.69799   0.00000  Uiso   1.00
H1671  H     0.55248   0.34354   0.72621   0.00000  Uiso   1.00
O1672  O     0.51021   0.62779   0.91907   0.00000  Uiso   1.00
C1673  C     0.46182   0.62372   0.93491   0.00000  Uiso   1.00
H1674  H     0.46527   0.60843   0.96921   0.00000  Uiso   1.00
H1675  H     0.43319   0.60427   0.91047   0.00000  Uiso   1.00
H1676  H     0.44800   0.65410   0.94019   0.00000  Uiso   1.00
O1677  O     0.47361   0.62301   0.74923   0.00000  Uiso   1.00
C1678  C     0.41982   0.61640   0.74152   0.00000  Uiso   1.00
H1679  H     0.40829   0.59862   0.70835   0.00000  Uiso   1.00
H1680  H     0.40247   0.64597   0.73781   0.00000  Uiso   1.00
H1681  H     0.40444   0.59809   0.76990   0.00000  Uiso   1.00
O1682  O     0.52763   0.37713   0.91754   0.00000  Uiso   1.00
C1683  C     0.58139   0.38436   0.92462   0.00000  Uiso   1.00
H1684  H     0.59935   0.35504   0.92781   0.00000  Uiso   1.00
H1685  H     0.59308   0.40200   0.95788   0.00000  Uiso   1.00
H1686  H     0.59601   0.40308   0.89619   0.00000  Uiso   1.00
O1687  O     0.45199   0.43519   0.71064   0.00000  Uiso   1.00
C1688  C     0.39811   0.43052   0.70238   0.00000  Uiso   1.00
H1689  H     0.38511   0.39849   0.69053   0.00000  Uiso   1.00
H1690  H     0.38108   0.45116   0.67583   0.00000  Uiso   1.00
H1691  H     0.38296   0.43481   0.73584   0.00000  Uiso   1.00
O1692  O     0.55045   0.56346   0.95553   0.00000  Uiso   1.00
C1693  C     0.60400   0.56856   0.96778   0.00000  Uiso   1.00
H1694  H     0.61987   0.54303   0.98773   0.00000  Uiso   1.00
H1695  H     0.61510   0.59749   0.98838   0.00000  Uiso   1.00
H1696  H     0.62210   0.57175   0.93528   0.00000  Uiso   1.00
C1697  C     0.44541   0.43364   0.94422   0.00000  Uiso   1.00
H1698  H     0.42548   0.43833   0.91000   0.00000  Uiso   1.00
O1699  O     0.44445   0.39874   0.95881   0.00000  Uiso   1.00
C1700  C     0.55086   0.56914   0.71930   0.00000  Uiso   1.00
H1701  H     0.54514   0.59886   0.70426   0.00000  Uiso   1.00
O1702  O     0.58066   0.56769   0.75490   0.00000  Uiso   1.00
C1703  C     0.83514   0.42093   0.83329   0.00000  Uiso   1.00
C1704  C     0.83177   0.57908   0.83341   0.00000  Uiso   1.00
C1705  C     0.73481   0.49964   0.82149   0.00000  Uiso   1.00
C1706  C     0.93184   0.50021   0.84522   0.00000  Uiso   1.00
C1707  C     0.67934   0.49589   0.81525   0.00000  Uiso   1.00
C1708  C     0.98728   0.50361   0.85166   0.00000  Uiso   1.00
C1709  C     0.82893   0.35347   0.79061   0.00000  Uiso   1.00
C1710  C     0.83905   0.64656   0.87625   0.00000  Uiso   1.00
C1711  C     0.82129   0.64421   0.79122   0.00000  Uiso   1.00
C1712  C     0.84639   0.35587   0.87561   0.00000  Uiso   1.00
C1713  C     0.83001   0.62368   0.83378   0.00000  Uiso   1.00
C1714  C     0.83744   0.37636   0.83303   0.00000  Uiso   1.00
C1715  C     0.80666   0.46883   0.68866   0.00000  Uiso   1.00
C1716  C     0.86047   0.53083   0.97784   0.00000  Uiso   1.00
C1717  C     0.80705   0.46851   0.97230   0.00000  Uiso   1.00
C1718  C     0.85924   0.53168   0.69394   0.00000  Uiso   1.00
Cu1719 Cu    0.83333   0.50001   0.88022   0.00000  Uiso   1.00
Cu1720 Cu    0.83333   0.49999   0.78645   0.00000  Uiso   1.00
N1721  N     0.83335   0.50001   0.95069   0.00000  Uiso   1.00
N1722  N     0.83332   0.49999   0.71597   0.00000  Uiso   1.00
O1723  O     0.83333   0.43989   0.87291   0.00000  Uiso   1.00
O1724  O     0.83334   0.56011   0.79375   0.00000  Uiso   1.00
O1725  O     0.83333   0.43988   0.79372   0.00000  Uiso   1.00
O1726  O     0.83334   0.56012   0.87294   0.00000  Uiso   1.00
O1727  O     0.75828   0.50000   0.86379   0.00000  Uiso   1.00
O1728  O     0.90839   0.50000   0.80288   0.00000  Uiso   1.00
O1729  O     0.75828   0.49999   0.78460   0.00000  Uiso   1.00
O1730  O     0.90839   0.50001   0.88207   0.00000  Uiso   1.00
O1731  O     0.98691   0.47766   0.77422   0.00000  Uiso   1.00
C1732  C     0.98935   0.50533   0.73708   0.00000  Uiso   1.00
H1733  H     0.68921   0.50156   0.71860   0.00000  Uiso   1.00
H1734  H     0.99182   0.53811   0.74812   0.00000  Uiso   1.00
H1735  H     0.95450   0.49792   0.71182   0.00000  Uiso   1.00
O1736  O     0.67956   0.52157   0.89290   0.00000  Uiso   1.00
C1737  C     0.67853   0.49292   0.92917   0.00000  Uiso   1.00
H1738  H     0.68311   0.46125   0.91753   0.00000  Uiso   1.00
H1739  H     0.97599   0.49202   0.94496   0.00000  Uiso   1.00
H1740  H     0.71029   0.50302   0.95690   0.00000  Uiso   1.00
O1741  O     0.82552   0.37222   0.74781   0.00000  Uiso   1.00
C1742  C     0.87390   0.37457   0.73203   0.00000  Uiso   1.00
H1743  H     0.90343   0.39291   0.75677   0.00000  Uiso   1.00
H1744  H     0.87145   0.39031   0.69799   0.00000  Uiso   1.00
H1745  H     0.88582   0.34354   0.72621   0.00000  Uiso   1.00
O1746  O     0.84354   0.62779   0.91907   0.00000  Uiso   1.00
C1747  C     0.79516   0.62372   0.93491   0.00000  Uiso   1.00
H1748  H     0.79860   0.60843   0.96921   0.00000  Uiso   1.00
H1749  H     0.76652   0.60427   0.91047   0.00000  Uiso   1.00
H1750  H     0.78133   0.65410   0.94019   0.00000  Uiso   1.00
O1751  O     0.80695   0.62301   0.74923   0.00000  Uiso   1.00
C1752  C     0.75315   0.61640   0.74152   0.00000  Uiso   1.00
H1753  H     0.74163   0.59862   0.70835   0.00000  Uiso   1.00
H1754  H     0.73580   0.64597   0.73781   0.00000  Uiso   1.00
H1755  H     0.73777   0.59809   0.76990   0.00000  Uiso   1.00
O1756  O     0.86097   0.37713   0.91754   0.00000  Uiso   1.00
C1757  C     0.91473   0.38436   0.92462   0.00000  Uiso   1.00
H1758  H     0.93268   0.35504   0.92781   0.00000  Uiso   1.00
H1759  H     0.92641   0.40200   0.95788   0.00000  Uiso   1.00
H1760  H     0.92934   0.40308   0.89619   0.00000  Uiso   1.00
O1761  O     0.78533   0.43519   0.71064   0.00000  Uiso   1.00
C1762  C     0.73144   0.43052   0.70238   0.00000  Uiso   1.00
H1763  H     0.71844   0.39849   0.69053   0.00000  Uiso   1.00
H1764  H     0.71441   0.45116   0.67583   0.00000  Uiso   1.00
H1765  H     0.71629   0.43481   0.73584   0.00000  Uiso   1.00
O1766  O     0.88379   0.56346   0.95553   0.00000  Uiso   1.00
C1767  C     0.93733   0.56856   0.96778   0.00000  Uiso   1.00
H1768  H     0.95320   0.54303   0.98773   0.00000  Uiso   1.00
H1769  H     0.94843   0.59749   0.98838   0.00000  Uiso   1.00
H1770  H     0.95543   0.57175   0.93528   0.00000  Uiso   1.00
C1771  C     0.77874   0.43364   0.94422   0.00000  Uiso   1.00
H1772  H     0.75881   0.43833   0.91000   0.00000  Uiso   1.00
O1773  O     0.77778   0.39874   0.95881   0.00000  Uiso   1.00
C1774  C     0.88419   0.56914   0.71930   0.00000  Uiso   1.00
H1775  H     0.87847   0.59886   0.70426   0.00000  Uiso   1.00
O1776  O     0.91399   0.56769   0.75490   0.00000  Uiso   1.00
C1777  C     0.16847   0.75427   0.83329   0.00000  Uiso   1.00
C1778  C     0.16510   0.91242   0.83341   0.00000  Uiso   1.00
C1779  C     0.06814   0.83297   0.82149   0.00000  Uiso   1.00
C1780  C     0.26517   0.83355   0.84522   0.00000  Uiso   1.00
C1781  C     0.01268   0.82922   0.81525   0.00000  Uiso   1.00
C1782  C     0.32061   0.83695   0.85166   0.00000  Uiso   1.00
C1783  C     0.16226   0.68681   0.79061   0.00000  Uiso   1.00
C1784  C     0.17239   0.97989   0.87625   0.00000  Uiso   1.00
C1785  C     0.15463   0.97754   0.79122   0.00000  Uiso   1.00
C1786  C     0.17973   0.68920   0.87561   0.00000  Uiso   1.00
C1787  C     0.16334   0.95702   0.83378   0.00000  Uiso   1.00
C1788  C     0.17077   0.70970   0.83303   0.00000  Uiso   1.00
C1789  C     0.14000   0.80216   0.68866   0.00000  Uiso   1.00
C1790  C     0.19380   0.86416   0.97784   0.00000  Uiso   1.00
C1791  C     0.14038   0.80184   0.97230   0.00000  Uiso   1.00
C1792  C     0.19257   0.86502   0.69394   0.00000  Uiso   1.00
Cu1793 Cu    0.16667   0.83334   0.88022   0.00000  Uiso   1.00
Cu1794 Cu    0.16667   0.83333   0.78645   0.00000  Uiso   1.00
N1795  N     0.16668   0.83334   0.95069   0.00000  Uiso   1.00
N1796  N     0.16665   0.83332   0.71597   0.00000  Uiso   1.00
O1797  O     0.16666   0.77322   0.87291   0.00000  Uiso   1.00
O1798  O     0.16667   0.89345   0.79375   0.00000  Uiso   1.00
O1799  O     0.16666   0.77321   0.79372   0.00000  Uiso   1.00
O1800  O     0.16667   0.89346   0.87294   0.00000  Uiso   1.00
O1801  O     0.09161   0.83334   0.86379   0.00000  Uiso   1.00
O1802  O     0.24172   0.83333   0.80288   0.00000  Uiso   1.00
O1803  O     0.09161   0.83333   0.78460   0.00000  Uiso   1.00
O1804  O     0.24172   0.83334   0.88207   0.00000  Uiso   1.00
O1805  O     0.32025   0.81100   0.77422   0.00000  Uiso   1.00
C1806  C     0.32268   0.83866   0.73708   0.00000  Uiso   1.00
H1807  H     0.02254   0.83489   0.71860   0.00000  Uiso   1.00
H1808  H     0.32515   0.87144   0.74812   0.00000  Uiso   1.00
H1809  H     0.28784   0.83125   0.71182   0.00000  Uiso   1.00
O1810  O     0.01290   0.85490   0.89290   0.00000  Uiso   1.00
C1811  C     0.01186   0.82625   0.92917   0.00000  Uiso   1.00
H1812  H     0.01644   0.79458   0.91753   0.00000  Uiso   1.00
H1813  H     0.30932   0.82536   0.94496   0.00000  Uiso   1.00
H1814  H     0.04363   0.83635   0.95690   0.00000  Uiso   1.00
O1815  O     0.15885   0.70555   0.74781   0.00000  Uiso   1.00
C1816  C     0.20724   0.70791   0.73203   0.00000  Uiso   1.00
H1817  H     0.23676   0.72624   0.75677   0.00000  Uiso   1.00
H1818  H     0.20478   0.72365   0.69799   0.00000  Uiso   1.00
H1819  H     0.21915   0.67687   0.72621   0.00000  Uiso   1.00
O1820  O     0.17688   0.96113   0.91907   0.00000  Uiso   1.00
C1821  C     0.12849   0.95705   0.93491   0.00000  Uiso   1.00
H1822  H     0.13193   0.94176   0.96921   0.00000  Uiso   1.00
H1823  H     0.09986   0.93760   0.91047   0.00000  Uiso   1.00
H1824  H     0.11467   0.98743   0.94019   0.00000  Uiso   1.00
O1825  O     0.14028   0.95634   0.74923   0.00000  Uiso   1.00
C1826  C     0.08648   0.94974   0.74152   0.00000  Uiso   1.00
H1827  H     0.07496   0.93195   0.70835   0.00000  Uiso   1.00
H1828  H     0.06913   0.97930   0.73781   0.00000  Uiso   1.00
H1829  H     0.07110   0.93143   0.76990   0.00000  Uiso   1.00
O1830  O     0.19430   0.71047   0.91754   0.00000  Uiso   1.00
C1831  C     0.24806   0.71770   0.92462   0.00000  Uiso   1.00
H1832  H     0.26601   0.68837   0.92781   0.00000  Uiso   1.00
H1833  H     0.25974   0.73533   0.95788   0.00000  Uiso   1.00
H1834  H     0.26267   0.73641   0.89619   0.00000  Uiso   1.00
O1835  O     0.11866   0.76852   0.71064   0.00000  Uiso   1.00
C1836  C     0.06478   0.76385   0.70238   0.00000  Uiso   1.00
H1837  H     0.05177   0.73182   0.69053   0.00000  Uiso   1.00
H1838  H     0.04774   0.78449   0.67583   0.00000  Uiso   1.00
H1839  H     0.04963   0.76814   0.73584   0.00000  Uiso   1.00
O1840  O     0.21712   0.89680   0.95553   0.00000  Uiso   1.00
C1841  C     0.27067   0.90189   0.96778   0.00000  Uiso   1.00
H1842  H     0.28653   0.87636   0.98773   0.00000  Uiso   1.00
H1843  H     0.28177   0.93083   0.98838   0.00000  Uiso   1.00
H1844  H     0.28877   0.90508   0.93528   0.00000  Uiso   1.00
C1845  C     0.11208   0.76698   0.94422   0.00000  Uiso   1.00
H1846  H     0.09214   0.77167   0.91000   0.00000  Uiso   1.00
O1847  O     0.11112   0.73207   0.95881   0.00000  Uiso   1.00
C1848  C     0.21753   0.90247   0.71930   0.00000  Uiso   1.00
H1849  H     0.21181   0.93219   0.70426   0.00000  Uiso   1.00
O1850  O     0.24733   0.90102   0.75490   0.00000  Uiso   1.00
C1851  C     0.50180   0.75427   0.83329   0.00000  Uiso   1.00
C1852  C     0.49844   0.91242   0.83341   0.00000  Uiso   1.00
C1853  C     0.40148   0.83297   0.82149   0.00000  Uiso   1.00
C1854  C     0.59851   0.83355   0.84522   0.00000  Uiso   1.00
C1855  C     0.34601   0.82922   0.81525   0.00000  Uiso   1.00
C1856  C     0.65394   0.83695   0.85166   0.00000  Uiso   1.00
C1857  C     0.49560   0.68681   0.79061   0.00000  Uiso   1.00
C1858  C     0.50572   0.97989   0.87625   0.00000  Uiso   1.00
C1859  C     0.48796   0.97754   0.79122   0.00000  Uiso   1.00
C1860  C     0.51306   0.68920   0.87561   0.00000  Uiso   1.00
C1861  C     0.49668   0.95702   0.83378   0.00000  Uiso   1.00
C1862  C     0.50410   0.70970   0.83303   0.00000  Uiso   1.00
C1863  C     0.47333   0.80216   0.68866   0.00000  Uiso   1.00
C1864  C     0.52713   0.86416   0.97784   0.00000  Uiso   1.00
C1865  C     0.47372   0.80184   0.97230   0.00000  Uiso   1.00
C1866  C     0.52591   0.86502   0.69394   0.00000  Uiso   1.00
Cu1867 Cu    0.50000   0.83334   0.88022   0.00000  Uiso   1.00
Cu1868 Cu    0.50000   0.83333   0.78645   0.00000  Uiso   1.00
N1869  N     0.50001   0.83334   0.95069   0.00000  Uiso   1.00
N1870  N     0.49999   0.83332   0.71597   0.00000  Uiso   1.00
O1871  O     0.50000   0.77322   0.87291   0.00000  Uiso   1.00
O1872  O     0.50000   0.89345   0.79375   0.00000  Uiso   1.00
O1873  O     0.50000   0.77321   0.79372   0.00000  Uiso   1.00
O1874  O     0.50000   0.89346   0.87294   0.00000  Uiso   1.00
O1875  O     0.42495   0.83334   0.86379   0.00000  Uiso   1.00
O1876  O     0.57505   0.83333   0.80288   0.00000  Uiso   1.00
O1877  O     0.42494   0.83333   0.78460   0.00000  Uiso   1.00
O1878  O     0.57506   0.83334   0.88207   0.00000  Uiso   1.00
O1879  O     0.65358   0.81100   0.77422   0.00000  Uiso   1.00
C1880  C     0.65601   0.83866   0.73708   0.00000  Uiso   1.00
H1881  H     0.35588   0.83489   0.71860   0.00000  Uiso   1.00
H1882  H     0.65849   0.87144   0.74812   0.00000  Uiso   1.00
H1883  H     0.62117   0.83125   0.71182   0.00000  Uiso   1.00
O1884  O     0.34623   0.85490   0.89290   0.00000  Uiso   1.00
C1885  C     0.34520   0.82625   0.92917   0.00000  Uiso   1.00
H1886  H     0.34978   0.79458   0.91753   0.00000  Uiso   1.00
H1887  H     0.64265   0.82536   0.94496   0.00000  Uiso   1.00
H1888  H     0.37696   0.83635   0.95690   0.00000  Uiso   1.00
O1889  O     0.49219   0.70555   0.74781   0.00000  Uiso   1.00
C1890  C     0.54057   0.70791   0.73203   0.00000  Uiso   1.00
H1891  H     0.57010   0.72624   0.75677   0.00000  Uiso   1.00
H1892  H     0.53812   0.72365   0.69799   0.00000  Uiso   1.00
H1893  H     0.55248   0.67687   0.72621   0.00000  Uiso   1.00
O1894  O     0.51021   0.96113   0.91907   0.00000  Uiso   1.00
C1895  C     0.46182   0.95705   0.93491   0.00000  Uiso   1.00
H1896  H     0.46527   0.94176   0.96921   0.00000  Uiso   1.00
H1897  H     0.43319   0.93760   0.91047   0.00000  Uiso   1.00
H1898  H     0.44800   0.98743   0.94019   0.00000  Uiso   1.00
O1899  O     0.47361   0.95634   0.74923   0.00000  Uiso   1.00
C1900  C     0.41982   0.94974   0.74152   0.00000  Uiso   1.00
H1901  H     0.40829   0.93195   0.70835   0.00000  Uiso   1.00
H1902  H     0.40247   0.97930   0.73781   0.00000  Uiso   1.00
H1903  H     0.40444   0.93143   0.76990   0.00000  Uiso   1.00
O1904  O     0.52763   0.71047   0.91754   0.00000  Uiso   1.00
C1905  C     0.58139   0.71770   0.92462   0.00000  Uiso   1.00
H1906  H     0.59935   0.68837   0.92781   0.00000  Uiso   1.00
H1907  H     0.59308   0.73533   0.95788   0.00000  Uiso   1.00
H1908  H     0.59601   0.73641   0.89619   0.00000  Uiso   1.00
O1909  O     0.45199   0.76852   0.71064   0.00000  Uiso   1.00
C1910  C     0.39811   0.76385   0.70238   0.00000  Uiso   1.00
H1911  H     0.38511   0.73182   0.69053   0.00000  Uiso   1.00
H1912  H     0.38108   0.78449   0.67583   0.00000  Uiso   1.00
H1913  H     0.38296   0.76814   0.73584   0.00000  Uiso   1.00
O1914  O     0.55045   0.89680   0.95553   0.00000  Uiso   1.00
C1915  C     0.60400   0.90189   0.96778   0.00000  Uiso   1.00
H1916  H     0.61987   0.87636   0.98773   0.00000  Uiso   1.00
H1917  H     0.61510   0.93083   0.98838   0.00000  Uiso   1.00
H1918  H     0.62210   0.90508   0.93528   0.00000  Uiso   1.00
C1919  C     0.44541   0.76698   0.94422   0.00000  Uiso   1.00
H1920  H     0.42548   0.77167   0.91000   0.00000  Uiso   1.00
O1921  O     0.44445   0.73207   0.95881   0.00000  Uiso   1.00
C1922  C     0.55086   0.90247   0.71930   0.00000  Uiso   1.00
H1923  H     0.54514   0.93219   0.70426   0.00000  Uiso   1.00
O1924  O     0.58066   0.90102   0.75490   0.00000  Uiso   1.00
C1925  C     0.83514   0.75427   0.83329   0.00000  Uiso   1.00
C1926  C     0.83177   0.91242   0.83341   0.00000  Uiso   1.00
C1927  C     0.73481   0.83297   0.82149   0.00000  Uiso   1.00
C1928  C     0.93184   0.83355   0.84522   0.00000  Uiso   1.00
C1929  C     0.67934   0.82922   0.81525   0.00000  Uiso   1.00
C1930  C     0.98728   0.83695   0.85166   0.00000  Uiso   1.00
C1931  C     0.82893   0.68681   0.79061   0.00000  Uiso   1.00
C1932  C     0.83905   0.97989   0.87625   0.00000  Uiso   1.00
C1933  C     0.82129   0.97754   0.79122   0.00000  Uiso   1.00
C1934  C     0.84639   0.68920   0.87561   0.00000  Uiso   1.00
C1935  C     0.83001   0.95702   0.83378   0.00000  Uiso   1.00
C1936  C     0.83744   0.70970   0.83303   0.00000  Uiso   1.00
C1937  C     0.80666   0.80216   0.68866   0.00000  Uiso   1.00
C1938  C     0.86047   0.86416   0.97784   0.00000  Uiso   1.00
C1939  C     0.80705   0.80184   0.97230   0.00000  Uiso   1.00
C1940  C     0.85924   0.86502   0.69394   0.00000  Uiso   1.00
Cu1941 Cu    0.83333   0.83334   0.88022   0.00000  Uiso   1.00
Cu1942 Cu    0.83333   0.83333   0.78645   0.00000  Uiso   1.00
N1943  N     0.83335   0.83334   0.95069   0.00000  Uiso   1.00
N1944  N     0.83332   0.83332   0.71597   0.00000  Uiso   1.00
O1945  O     0.83333   0.77322   0.87291   0.00000  Uiso   1.00
O1946  O     0.83334   0.89345   0.79375   0.00000  Uiso   1.00
O1947  O     0.83333   0.77321   0.79372   0.00000  Uiso   1.00
O1948  O     0.83334   0.89346   0.87294   0.00000  Uiso   1.00
O1949  O     0.75828   0.83334   0.86379   0.00000  Uiso   1.00
O1950  O     0.90839   0.83333   0.80288   0.00000  Uiso   1.00
O1951  O     0.75828   0.83333   0.78460   0.00000  Uiso   1.00
O1952  O     0.90839   0.83334   0.88207   0.00000  Uiso   1.00
O1953  O     0.98691   0.81100   0.77422   0.00000  Uiso   1.00
C1954  C     0.98935   0.83866   0.73708   0.00000  Uiso   1.00
H1955  H     0.68921   0.83489   0.71860   0.00000  Uiso   1.00
H1956  H     0.99182   0.87144   0.74812   0.00000  Uiso   1.00
H1957  H     0.95450   0.83125   0.71182   0.00000  Uiso   1.00
O1958  O     0.67956   0.85490   0.89290   0.00000  Uiso   1.00
C1959  C     0.67853   0.82625   0.92917   0.00000  Uiso   1.00
H1960  H     0.68311   0.79458   0.91753   0.00000  Uiso   1.00
H1961  H     0.97599   0.82536   0.94496   0.00000  Uiso   1.00
H1962  H     0.71029   0.83635   0.95690   0.00000  Uiso   1.00
O1963  O     0.82552   0.70555   0.74781   0.00000  Uiso   1.00
C1964  C     0.87390   0.70791   0.73203   0.00000  Uiso   1.00
H1965  H     0.90343   0.72624   0.75677   0.00000  Uiso   1.00
H1966  H     0.87145   0.72365   0.69799   0.00000  Uiso   1.00
H1967  H     0.88582   0.67687   0.72621   0.00000  Uiso   1.00
O1968  O     0.84354   0.96113   0.91907   0.00000  Uiso   1.00
C1969  C     0.79516   0.95705   0.93491   0.00000  Uiso   1.00
H1970  H     0.79860   0.94176   0.96921   0.00000  Uiso   1.00
H1971  H     0.76652   0.93760   0.91047   0.00000  Uiso   1.00
H1972  H     0.78133   0.98743   0.94019   0.00000  Uiso   1.00
O1973  O     0.80695   0.95634   0.74923   0.00000  Uiso   1.00
C1974  C     0.75315   0.94974   0.74152   0.00000  Uiso   1.00
H1975  H     0.74163   0.93195   0.70835   0.00000  Uiso   1.00
H1976  H     0.73580   0.97930   0.73781   0.00000  Uiso   1.00
H1977  H     0.73777   0.93143   0.76990   0.00000  Uiso   1.00
O1978  O     0.86097   0.71047   0.91754   0.00000  Uiso   1.00
C1979  C     0.91473   0.71770   0.92462   0.00000  Uiso   1.00
H1980  H     0.93268   0.68837   0.92781   0.00000  Uiso   1.00
H1981  H     0.92641   0.73533   0.95788   0.00000  Uiso   1.00
H1982  H     0.92934   0.73641   0.89619   0.00000  Uiso   1.00
O1983  O     0.78533   0.76852   0.71064   0.00000  Uiso   1.00
C1984  C     0.73144   0.76385   0.70238   0.00000  Uiso   1.00
H1985  H     0.71844   0.73182   0.69053   0.00000  Uiso   1.00
H1986  H     0.71441   0.78449   0.67583   0.00000  Uiso   1.00
H1987  H     0.71629   0.76814   0.73584   0.00000  Uiso   1.00
O1988  O     0.88379   0.89680   0.95553   0.00000  Uiso   1.00
C1989  C     0.93733   0.90189   0.96778   0.00000  Uiso   1.00
H1990  H     0.95320   0.87636   0.98773   0.00000  Uiso   1.00
H1991  H     0.94843   0.93083   0.98838   0.00000  Uiso   1.00
H1992  H     0.95543   0.90508   0.93528   0.00000  Uiso   1.00
C1993  C     0.77874   0.76698   0.94422   0.00000  Uiso   1.00
H1994  H     0.75881   0.77167   0.91000   0.00000  Uiso   1.00
O1995  O     0.77778   0.73207   0.95881   0.00000  Uiso   1.00
C1996  C     0.88419   0.90247   0.71930   0.00000  Uiso   1.00
H1997  H     0.87847   0.93219   0.70426   0.00000  Uiso   1.00
O1998  O     0.91399   0.90102   0.75490   0.00000  Uiso   1.00
loop_
_geom_bond_atom_site_label_1
_geom_bond_atom_site_label_2
_geom_bond_distance
_geom_bond_site_symmetry_2
_ccdc_geom_bond_type
C1     O21     1.306   .     A
C1     O23     1.300   .     A
C1     C12     1.468   .     S
C2     O22     1.306   .     A
C2     C11     1.467   .     S
C2     O24     1.300   .     A
C3     C5      1.452   .     S
C3     O27     1.300   .     A
C3     O25     1.296   .     A
C4     O26     1.297   .     A
C4     C6      1.451   .     S
C4     O28     1.299   .     A
C5     C154    1.355   1_455 S
C5     O177    1.388   1_455 S
C6     C79     1.355   .     S
C6     O108    1.388   .     S
C7     C12     1.413   .     A
C7     O39     1.379   .     S
C7     C453    1.391   1_545 S
C8     O44     1.380   .     S
C8     C11     1.414   .     A
C8     C232    1.392   .     S
C9     C11     1.407   .     A
C9     O49     1.383   .     S
C9     C229    1.391   .     S
C10    C12     1.408   .     A
C10    O54     1.383   .     S
C10    C452    1.392   1_545 S
C13    O59     1.383   .     S
C13    N20     1.366   .     A
C13    C1347   1.435   1_554 S
C14    O64     1.386   .     S
C14    N19     1.360   .     A
C14    C682    1.431   .     S
C15    C69     1.478   .     S
C15    N19     1.385   .     A
C15    C679    1.435   .     S
C16    N20     1.391   .     A
C16    C72     1.477   .     S
C16    C1346   1.431   1_554 S
Cu17   Cu18    2.706   .     S
Cu17   O25     1.986   .     S
Cu17   N19     2.033   .     S
Cu17   O24     1.982   .     S
Cu17   O28     1.985   .     S
Cu17   O21     1.980   .     S
Cu18   N20     2.033   .     S
Cu18   O26     1.986   .     S
Cu18   O22     1.980   .     S
Cu18   O23     1.982   .     S
Cu18   O27     1.985   .     S
O29    C30     1.411   .     S
O29    C79     1.388   .     S
C30    H33     1.106   .     S
C30    H32     1.112   .     S
C30    H105    1.103   .     S
H31    C178    1.103   1_455 S
O34    C35     1.411   .     S
O34    C154    1.388   1_455 S
C35    H36     1.112   .     S
C35    H38     1.107   .     S
C35    H185    1.105   1_455 S
H37    C109    1.105   .     S
O39    C40     1.412   .     S
C40    H43     1.113   .     S
C40    H42     1.109   .     S
C40    H41     1.114   .     S
O44    C45     1.412   .     S
C45    H46     1.109   .     S
C45    H47     1.113   .     S
C45    H48     1.111   .     S
O49    C50     1.410   .     S
C50    H52     1.113   .     S
C50    H51     1.110   .     S
C50    H53     1.114   .     S
O54    C55     1.410   .     S
C55    H56     1.113   .     S
C55    H57     1.110   .     S
C55    H58     1.114   .     S
O59    C60     1.411   .     S
C60    H62     1.107   .     S
C60    H63     1.106   .     S
C60    H61     1.109   .     S
O64    C65     1.412   .     S
C65    H68     1.109   .     S
C65    H66     1.105   .     S
C65    H67     1.109   .     S
C69    H70     1.078   .     S
C69    O71     1.220   .     D
C72    O74     1.217   .     D
C72    H73     1.085   .     S
C75    O95     1.306   .     A
C75    O97     1.300   .     A
C75    C86     1.468   .     S
C76    O96     1.306   .     A
C76    C85     1.467   .     S
C76    O98     1.300   .     A
C77    C79     1.452   .     S
C77    O101    1.300   .     A
C77    O99     1.296   .     A
C78    O100    1.297   .     A
C78    C80     1.451   .     S
C78    O102    1.299   .     A
C80    C153    1.355   .     S
C80    O182    1.388   .     S
C81    C86     1.413   .     A
C81    O113    1.379   .     S
C81    C527    1.391   1_545 S
C82    O118    1.380   .     S
C82    C85     1.414   .     A
C82    C306    1.392   .     S
C83    C85     1.407   .     A
C83    O123    1.383   .     S
C83    C303    1.391   .     S
C84    C86     1.408   .     A
C84    O128    1.383   .     S
C84    C526    1.392   1_545 S
C87    O133    1.383   .     S
C87    N94     1.366   .     A
C87    C1421   1.435   1_554 S
C88    O138    1.386   .     S
C88    N93     1.360   .     A
C88    C756    1.431   .     S
C89    C143    1.478   .     S
C89    N93     1.385   .     A
C89    C753    1.435   .     S
C90    N94     1.391   .     A
C90    C146    1.477   .     S
C90    C1420   1.431   1_554 S
Cu91   Cu92    2.706   .     S
Cu91   O99     1.986   .     S
Cu91   N93     2.033   .     S
Cu91   O98     1.982   .     S
Cu91   O102    1.985   .     S
Cu91   O95     1.980   .     S
Cu92   N94     2.033   .     S
Cu92   O100    1.986   .     S
Cu92   O96     1.980   .     S
Cu92   O97     1.982   .     S
Cu92   O101    1.985   .     S
O103   C104    1.411   .     S
O103   C153    1.388   .     S
C104   H107    1.106   .     S
C104   H106    1.112   .     S
C104   H179    1.103   .     S
O108   C109    1.411   .     S
C109   H110    1.112   .     S
C109   H112    1.107   .     S
H111   C183    1.105   .     S
O113   C114    1.412   .     S
C114   H117    1.113   .     S
C114   H116    1.109   .     S
C114   H115    1.114   .     S
O118   C119    1.412   .     S
C119   H120    1.109   .     S
C119   H121    1.113   .     S
C119   H122    1.111   .     S
O123   C124    1.410   .     S
C124   H126    1.113   .     S
C124   H125    1.110   .     S
C124   H127    1.114   .     S
O128   C129    1.410   .     S
C129   H130    1.113   .     S
C129   H131    1.110   .     S
C129   H132    1.114   .     S
O133   C134    1.411   .     S
C134   H136    1.107   .     S
C134   H137    1.106   .     S
C134   H135    1.109   .     S
O138   C139    1.412   .     S
C139   H142    1.109   .     S
C139   H140    1.105   .     S
C139   H141    1.109   .     S
C143   H144    1.078   .     S
C143   O145    1.220   .     D
C146   O148    1.217   .     D
C146   H147    1.085   .     S
C149   O169    1.306   .     A
C149   O171    1.300   .     A
C149   C160    1.468   .     S
C150   O170    1.306   .     A
C150   C159    1.467   .     S
C150   O172    1.300   .     A
C151   C153    1.452   .     S
C151   O175    1.300   .     A
C151   O173    1.296   .     A
C152   O174    1.297   .     A
C152   C154    1.451   .     S
C152   O176    1.299   .     A
C154   C5      1.355   1_655 S
C154   O34     1.388   1_655 S
C155   C160    1.413   .     A
C155   O187    1.379   .     S
C155   C601    1.391   1_545 S
C156   O192    1.380   .     S
C156   C159    1.414   .     A
C156   C380    1.392   .     S
C157   C159    1.407   .     A
C157   O197    1.383   .     S
C157   C377    1.391   .     S
C158   C160    1.408   .     A
C158   O202    1.383   .     S
C158   C600    1.392   1_545 S
C161   O207    1.383   .     S
C161   N168    1.366   .     A
C161   C1495   1.435   1_554 S
C162   O212    1.386   .     S
C162   N167    1.360   .     A
C162   C830    1.431   .     S
C163   C217    1.478   .     S
C163   N167    1.385   .     A
C163   C827    1.435   .     S
C164   N168    1.391   .     A
C164   C220    1.477   .     S
C164   C1494   1.431   1_554 S
Cu165  Cu166   2.706   .     S
Cu165  O173    1.986   .     S
Cu165  N167    2.033   .     S
Cu165  O172    1.982   .     S
Cu165  O176    1.985   .     S
Cu165  O169    1.980   .     S
Cu166  N168    2.033   .     S
Cu166  O174    1.986   .     S
Cu166  O170    1.980   .     S
Cu166  O171    1.982   .     S
Cu166  O175    1.985   .     S
O177   C178    1.411   .     S
O177   C5      1.388   1_655 S
C178   H181    1.106   .     S
C178   H180    1.112   .     S
C178   H31     1.103   1_655 S
O182   C183    1.411   .     S
C183   H184    1.112   .     S
C183   H186    1.107   .     S
H185   C35     1.105   1_655 S
O187   C188    1.412   .     S
C188   H191    1.113   .     S
C188   H190    1.109   .     S
C188   H189    1.114   .     S
O192   C193    1.412   .     S
C193   H194    1.109   .     S
C193   H195    1.113   .     S
C193   H196    1.111   .     S
O197   C198    1.410   .     S
C198   H200    1.113   .     S
C198   H199    1.110   .     S
C198   H201    1.114   .     S
O202   C203    1.410   .     S
C203   H204    1.113   .     S
C203   H205    1.110   .     S
C203   H206    1.114   .     S
O207   C208    1.411   .     S
C208   H210    1.107   .     S
C208   H211    1.106   .     S
C208   H209    1.109   .     S
O212   C213    1.412   .     S
C213   H216    1.109   .     S
C213   H214    1.105   .     S
C213   H215    1.109   .     S
C217   H218    1.078   .     S
C217   O219    1.220   .     D
C220   O222    1.217   .     D
C220   H221    1.085   .     S
C223   O243    1.306   .     A
C223   O245    1.300   .     A
C223   C234    1.468   .     S
C224   O244    1.306   .     A
C224   C233    1.467   .     S
C224   O246    1.300   .     A
C225   C227    1.452   .     S
C225   O249    1.300   .     A
C225   O247    1.296   .     A
C226   O248    1.297   .     A
C226   C228    1.451   .     S
C226   O250    1.299   .     A
C227   C376    1.355   1_455 S
C227   O399    1.388   1_455 S
C228   C301    1.355   .     S
C228   O330    1.388   .     S
C229   C234    1.413   .     A
C229   O261    1.379   .     S
C230   O266    1.380   .     S
C230   C233    1.414   .     A
C230   C454    1.392   .     S
C231   C233    1.407   .     A
C231   O271    1.383   .     S
C231   C451    1.391   .     S
C232   C234    1.408   .     A
C232   O276    1.383   .     S
C235   O281    1.383   .     S
C235   N242    1.366   .     A
C235   C1569   1.435   1_554 S
C236   O286    1.386   .     S
C236   N241    1.360   .     A
C236   C904    1.431   .     S
C237   C291    1.478   .     S
C237   N241    1.385   .     A
C237   C901    1.435   .     S
C238   N242    1.391   .     A
C238   C294    1.477   .     S
C238   C1568   1.431   1_554 S
Cu239  Cu240   2.706   .     S
Cu239  O247    1.986   .     S
Cu239  N241    2.033   .     S
Cu239  O246    1.982   .     S
Cu239  O250    1.985   .     S
Cu239  O243    1.980   .     S
Cu240  N242    2.033   .     S
Cu240  O248    1.986   .     S
Cu240  O244    1.980   .     S
Cu240  O245    1.982   .     S
Cu240  O249    1.985   .     S
O251   C252    1.411   .     S
O251   C301    1.388   .     S
C252   H255    1.106   .     S
C252   H254    1.112   .     S
C252   H327    1.103   .     S
H253   C400    1.103   1_455 S
O256   C257    1.411   .     S
O256   C376    1.388   1_455 S
C257   H258    1.112   .     S
C257   H260    1.107   .     S
C257   H407    1.105   1_455 S
H259   C331    1.105   .     S
O261   C262    1.412   .     S
C262   H265    1.113   .     S
C262   H264    1.109   .     S
C262   H263    1.114   .     S
O266   C267    1.412   .     S
C267   H268    1.109   .     S
C267   H269    1.113   .     S
C267   H270    1.111   .     S
O271   C272    1.410   .     S
C272   H274    1.113   .     S
C272   H273    1.110   .     S
C272   H275    1.114   .     S
O276   C277    1.410   .     S
C277   H278    1.113   .     S
C277   H279    1.110   .     S
C277   H280    1.114   .     S
O281   C282    1.411   .     S
C282   H284    1.107   .     S
C282   H285    1.106   .     S
C282   H283    1.109   .     S
O286   C287    1.412   .     S
C287   H290    1.109   .     S
C287   H288    1.105   .     S
C287   H289    1.109   .     S
C291   H292    1.078   .     S
C291   O293    1.220   .     D
C294   O296    1.217   .     D
C294   H295    1.085   .     S
C297   O317    1.306   .     A
C297   O319    1.300   .     A
C297   C308    1.468   .     S
C298   O318    1.306   .     A
C298   C307    1.467   .     S
C298   O320    1.300   .     A
C299   C301    1.452   .     S
C299   O323    1.300   .     A
C299   O321    1.296   .     A
C300   O322    1.297   .     A
C300   C302    1.451   .     S
C300   O324    1.299   .     A
C302   C375    1.355   .     S
C302   O404    1.388   .     S
C303   C308    1.413   .     A
C303   O335    1.379   .     S
C304   O340    1.380   .     S
C304   C307    1.414   .     A
C304   C528    1.392   .     S
C305   C307    1.407   .     A
C305   O345    1.383   .     S
C305   C525    1.391   .     S
C306   C308    1.408   .     A
C306   O350    1.383   .     S
C309   O355    1.383   .     S
C309   N316    1.366   .     A
C309   C1643   1.435   1_554 S
C310   O360    1.386   .     S
C310   N315    1.360   .     A
C310   C978    1.431   .     S
C311   C365    1.478   .     S
C311   N315    1.385   .     A
C311   C975    1.435   .     S
C312   N316    1.391   .     A
C312   C368    1.477   .     S
C312   C1642   1.431   1_554 S
Cu313  Cu314   2.706   .     S
Cu313  O321    1.986   .     S
Cu313  N315    2.033   .     S
Cu313  O320    1.982   .     S
Cu313  O324    1.985   .     S
Cu313  O317    1.980   .     S
Cu314  N316    2.033   .     S
Cu314  O322    1.986   .     S
Cu314  O318    1.980   .     S
Cu314  O319    1.982   .     S
Cu314  O323    1.985   .     S
O325   C326    1.411   .     S
O325   C375    1.388   .     S
C326   H329    1.106   .     S
C326   H328    1.112   .     S
C326   H401    1.103   .     S
O330   C331    1.411   .     S
C331   H332    1.112   .     S
C331   H334    1.107   .     S
H333   C405    1.105   .     S
O335   C336    1.412   .     S
C336   H339    1.113   .     S
C336   H338    1.109   .     S
C336   H337    1.114   .     S
O340   C341    1.412   .     S
C341   H342    1.109   .     S
C341   H343    1.113   .     S
C341   H344    1.111   .     S
O345   C346    1.410   .     S
C346   H348    1.113   .     S
C346   H347    1.110   .     S
C346   H349    1.114   .     S
O350   C351    1.410   .     S
C351   H352    1.113   .     S
C351   H353    1.110   .     S
C351   H354    1.114   .     S
O355   C356    1.411   .     S
C356   H358    1.107   .     S
C356   H359    1.106   .     S
C356   H357    1.109   .     S
O360   C361    1.412   .     S
C361   H364    1.109   .     S
C361   H362    1.105   .     S
C361   H363    1.109   .     S
C365   H366    1.078   .     S
C365   O367    1.220   .     D
C368   O370    1.217   .     D
C368   H369    1.085   .     S
C371   O391    1.306   .     A
C371   O393    1.300   .     A
C371   C382    1.468   .     S
C372   O392    1.306   .     A
C372   C381    1.467   .     S
C372   O394    1.300   .     A
C373   C375    1.452   .     S
C373   O397    1.300   .     A
C373   O395    1.296   .     A
C374   O396    1.297   .     A
C374   C376    1.451   .     S
C374   O398    1.299   .     A
C376   C227    1.355   1_655 S
C376   O256    1.388   1_655 S
C377   C382    1.413   .     A
C377   O409    1.379   .     S
C378   O414    1.380   .     S
C378   C381    1.414   .     A
C378   C602    1.392   .     S
C379   C381    1.407   .     A
C379   O419    1.383   .     S
C379   C599    1.391   .     S
C380   C382    1.408   .     A
C380   O424    1.383   .     S
C383   O429    1.383   .     S
C383   N390    1.366   .     A
C383   C1717   1.435   1_554 S
C384   O434    1.386   .     S
C384   N389    1.360   .     A
C384   C1052   1.431   .     S
C385   C439    1.478   .     S
C385   N389    1.385   .     A
C385   C1049   1.435   .     S
C386   N390    1.391   .     A
C386   C442    1.477   .     S
C386   C1716   1.431   1_554 S
Cu387  Cu388   2.706   .     S
Cu387  O395    1.986   .     S
Cu387  N389    2.033   .     S
Cu387  O394    1.982   .     S
Cu387  O398    1.985   .     S
Cu387  O391    1.980   .     S
Cu388  N390    2.033   .     S
Cu388  O396    1.986   .     S
Cu388  O392    1.980   .     S
Cu388  O393    1.982   .     S
Cu388  O397    1.985   .     S
O399   C400    1.411   .     S
O399   C227    1.388   1_655 S
C400   H403    1.106   .     S
C400   H402    1.112   .     S
C400   H253    1.103   1_655 S
O404   C405    1.411   .     S
C405   H406    1.112   .     S
C405   H408    1.107   .     S
H407   C257    1.105   1_655 S
O409   C410    1.412   .     S
C410   H413    1.113   .     S
C410   H412    1.109   .     S
C410   H411    1.114   .     S
O414   C415    1.412   .     S
C415   H416    1.109   .     S
C415   H417    1.113   .     S
C415   H418    1.111   .     S
O419   C420    1.410   .     S
C420   H422    1.113   .     S
C420   H421    1.110   .     S
C420   H423    1.114   .     S
O424   C425    1.410   .     S
C425   H426    1.113   .     S
C425   H427    1.110   .     S
C425   H428    1.114   .     S
O429   C430    1.411   .     S
C430   H432    1.107   .     S
C430   H433    1.106   .     S
C430   H431    1.109   .     S
O434   C435    1.412   .     S
C435   H438    1.109   .     S
C435   H436    1.105   .     S
C435   H437    1.109   .     S
C439   H440    1.078   .     S
C439   O441    1.220   .     D
C442   O444    1.217   .     D
C442   H443    1.085   .     S
C445   O465    1.306   .     A
C445   O467    1.300   .     A
C445   C456    1.468   .     S
C446   O466    1.306   .     A
C446   C455    1.467   .     S
C446   O468    1.300   .     A
C447   C449    1.452   .     S
C447   O471    1.300   .     A
C447   O469    1.296   .     A
C448   O470    1.297   .     A
C448   C450    1.451   .     S
C448   O472    1.299   .     A
C449   C598    1.355   1_455 S
C449   O621    1.388   1_455 S
C450   C523    1.355   .     S
C450   O552    1.388   .     S
C451   C456    1.413   .     A
C451   O483    1.379   .     S
C452   O488    1.380   .     S
C452   C455    1.414   .     A
C452   C10     1.392   1_565 S
C453   C455    1.407   .     A
C453   O493    1.383   .     S
C453   C7      1.391   1_565 S
C454   C456    1.408   .     A
C454   O498    1.383   .     S
C457   O503    1.383   .     S
C457   N464    1.366   .     A
C457   C1791   1.435   1_554 S
C458   O508    1.386   .     S
C458   N463    1.360   .     A
C458   C1126   1.431   .     S
C459   C513    1.478   .     S
C459   N463    1.385   .     A
C459   C1123   1.435   .     S
C460   N464    1.391   .     A
C460   C516    1.477   .     S
C460   C1790   1.431   1_554 S
Cu461  Cu462   2.706   .     S
Cu461  O469    1.986   .     S
Cu461  N463    2.033   .     S
Cu461  O468    1.982   .     S
Cu461  O472    1.985   .     S
Cu461  O465    1.980   .     S
Cu462  N464    2.033   .     S
Cu462  O470    1.986   .     S
Cu462  O466    1.980   .     S
Cu462  O467    1.982   .     S
Cu462  O471    1.985   .     S
O473   C474    1.411   .     S
O473   C523    1.388   .     S
C474   H477    1.106   .     S
C474   H476    1.112   .     S
C474   H549    1.103   .     S
H475   C622    1.103   1_455 S
O478   C479    1.411   .     S
O478   C598    1.388   1_455 S
C479   H480    1.112   .     S
C479   H482    1.107   .     S
C479   H629    1.105   1_455 S
H481   C553    1.105   .     S
O483   C484    1.412   .     S
C484   H487    1.113   .     S
C484   H486    1.109   .     S
C484   H485    1.114   .     S
O488   C489    1.412   .     S
C489   H490    1.109   .     S
C489   H491    1.113   .     S
C489   H492    1.111   .     S
O493   C494    1.410   .     S
C494   H496    1.113   .     S
C494   H495    1.110   .     S
C494   H497    1.114   .     S
O498   C499    1.410   .     S
C499   H500    1.113   .     S
C499   H501    1.110   .     S
C499   H502    1.114   .     S
O503   C504    1.411   .     S
C504   H506    1.107   .     S
C504   H507    1.106   .     S
C504   H505    1.109   .     S
O508   C509    1.412   .     S
C509   H512    1.109   .     S
C509   H510    1.105   .     S
C509   H511    1.109   .     S
C513   H514    1.078   .     S
C513   O515    1.220   .     D
C516   O518    1.217   .     D
C516   H517    1.085   .     S
C519   O539    1.306   .     A
C519   O541    1.300   .     A
C519   C530    1.468   .     S
C520   O540    1.306   .     A
C520   C529    1.467   .     S
C520   O542    1.300   .     A
C521   C523    1.452   .     S
C521   O545    1.300   .     A
C521   O543    1.296   .     A
C522   O544    1.297   .     A
C522   C524    1.451   .     S
C522   O546    1.299   .     A
C524   C597    1.355   .     S
C524   O626    1.388   .     S
C525   C530    1.413   .     A
C525   O557    1.379   .     S
C526   O562    1.380   .     S
C526   C529    1.414   .     A
C526   C84     1.392   1_565 S
C527   C529    1.407   .     A
C527   O567    1.383   .     S
C527   C81     1.391   1_565 S
C528   C530    1.408   .     A
C528   O572    1.383   .     S
C531   O577    1.383   .     S
C531   N538    1.366   .     A
C531   C1865   1.435   1_554 S
C532   O582    1.386   .     S
C532   N537    1.360   .     A
C532   C1200   1.431   .     S
C533   C587    1.478   .     S
C533   N537    1.385   .     A
C533   C1197   1.435   .     S
C534   N538    1.391   .     A
C534   C590    1.477   .     S
C534   C1864   1.431   1_554 S
Cu535  Cu536   2.706   .     S
Cu535  O543    1.986   .     S
Cu535  N537    2.033   .     S
Cu535  O542    1.982   .     S
Cu535  O546    1.985   .     S
Cu535  O539    1.980   .     S
Cu536  N538    2.033   .     S
Cu536  O544    1.986   .     S
Cu536  O540    1.980   .     S
Cu536  O541    1.982   .     S
Cu536  O545    1.985   .     S
O547   C548    1.411   .     S
O547   C597    1.388   .     S
C548   H551    1.106   .     S
C548   H550    1.112   .     S
C548   H623    1.103   .     S
O552   C553    1.411   .     S
C553   H554    1.112   .     S
C553   H556    1.107   .     S
H555   C627    1.105   .     S
O557   C558    1.412   .     S
C558   H561    1.113   .     S
C558   H560    1.109   .     S
C558   H559    1.114   .     S
O562   C563    1.412   .     S
C563   H564    1.109   .     S
C563   H565    1.113   .     S
C563   H566    1.111   .     S
O567   C568    1.410   .     S
C568   H570    1.113   .     S
C568   H569    1.110   .     S
C568   H571    1.114   .     S
O572   C573    1.410   .     S
C573   H574    1.113   .     S
C573   H575    1.110   .     S
C573   H576    1.114   .     S
O577   C578    1.411   .     S
C578   H580    1.107   .     S
C578   H581    1.106   .     S
C578   H579    1.109   .     S
O582   C583    1.412   .     S
C583   H586    1.109   .     S
C583   H584    1.105   .     S
C583   H585    1.109   .     S
C587   H588    1.078   .     S
C587   O589    1.220   .     D
C590   O592    1.217   .     D
C590   H591    1.085   .     S
C593   O613    1.306   .     A
C593   O615    1.300   .     A
C593   C604    1.468   .     S
C594   O614    1.306   .     A
C594   C603    1.467   .     S
C594   O616    1.300   .     A
C595   C597    1.452   .     S
C595   O619    1.300   .     A
C595   O617    1.296   .     A
C596   O618    1.297   .     A
C596   C598    1.451   .     S
C596   O620    1.299   .     A
C598   C449    1.355   1_655 S
C598   O478    1.388   1_655 S
C599   C604    1.413   .     A
C599   O631    1.379   .     S
C600   O636    1.380   .     S
C600   C603    1.414   .     A
C600   C158    1.392   1_565 S
C601   C603    1.407   .     A
C601   O641    1.383   .     S
C601   C155    1.391   1_565 S
C602   C604    1.408   .     A
C602   O646    1.383   .     S
C605   O651    1.383   .     S
C605   N612    1.366   .     A
C605   C1939   1.435   1_554 S
C606   O656    1.386   .     S
C606   N611    1.360   .     A
C606   C1274   1.431   .     S
C607   C661    1.478   .     S
C607   N611    1.385   .     A
C607   C1271   1.435   .     S
C608   N612    1.391   .     A
C608   C664    1.477   .     S
C608   C1938   1.431   1_554 S
Cu609  Cu610   2.706   .     S
Cu609  O617    1.986   .     S
Cu609  N611    2.033   .     S
Cu609  O616    1.982   .     S
Cu609  O620    1.985   .     S
Cu609  O613    1.980   .     S
Cu610  N612    2.033   .     S
Cu610  O618    1.986   .     S
Cu610  O614    1.980   .     S
Cu610  O615    1.982   .     S
Cu610  O619    1.985   .     S
O621   C622    1.411   .     S
O621   C449    1.388   1_655 S
C622   H625    1.106   .     S
C622   H624    1.112   .     S
C622   H475    1.103   1_655 S
O626   C627    1.411   .     S
C627   H628    1.112   .     S
C627   H630    1.107   .     S
H629   C479    1.105   1_655 S
O631   C632    1.412   .     S
C632   H635    1.113   .     S
C632   H634    1.109   .     S
C632   H633    1.114   .     S
O636   C637    1.412   .     S
C637   H638    1.109   .     S
C637   H639    1.113   .     S
C637   H640    1.111   .     S
O641   C642    1.410   .     S
C642   H644    1.113   .     S
C642   H643    1.110   .     S
C642   H645    1.114   .     S
O646   C647    1.410   .     S
C647   H648    1.113   .     S
C647   H649    1.110   .     S
C647   H650    1.114   .     S
O651   C652    1.411   .     S
C652   H654    1.107   .     S
C652   H655    1.106   .     S
C652   H653    1.109   .     S
O656   C657    1.412   .     S
C657   H660    1.109   .     S
C657   H658    1.105   .     S
C657   H659    1.109   .     S
C661   H662    1.078   .     S
C661   O663    1.220   .     D
C664   O666    1.217   .     D
C664   H665    1.085   .     S
C667   O687    1.306   .     A
C667   O689    1.300   .     A
C667   C678    1.468   .     S
C668   O688    1.306   .     A
C668   C677    1.467   .     S
C668   O690    1.300   .     A
C669   C671    1.452   .     S
C669   O693    1.300   .     A
C669   O691    1.296   .     A
C670   O692    1.297   .     A
C670   C672    1.451   .     S
C670   O694    1.299   .     A
C671   C820    1.355   1_455 S
C671   O843    1.388   1_455 S
C672   C745    1.355   .     S
C672   O774    1.388   .     S
C673   C678    1.413   .     A
C673   O705    1.379   .     S
C673   C1119   1.391   1_545 S
C674   O710    1.380   .     S
C674   C677    1.414   .     A
C674   C898    1.392   .     S
C675   C677    1.407   .     A
C675   O715    1.383   .     S
C675   C895    1.391   .     S
C676   C678    1.408   .     A
C676   O720    1.383   .     S
C676   C1118   1.392   1_545 S
C679   O725    1.383   .     S
C679   N686    1.366   .     A
C680   O730    1.386   .     S
C680   N685    1.360   .     A
C680   C1348   1.431   .     S
C681   C735    1.478   .     S
C681   N685    1.385   .     A
C681   C1345   1.435   .     S
C682   N686    1.391   .     A
C682   C738    1.477   .     S
Cu683  Cu684   2.706   .     S
Cu683  O691    1.986   .     S
Cu683  N685    2.033   .     S
Cu683  O690    1.982   .     S
Cu683  O694    1.985   .     S
Cu683  O687    1.980   .     S
Cu684  N686    2.033   .     S
Cu684  O692    1.986   .     S
Cu684  O688    1.980   .     S
Cu684  O689    1.982   .     S
Cu684  O693    1.985   .     S
O695   C696    1.411   .     S
O695   C745    1.388   .     S
C696   H699    1.106   .     S
C696   H698    1.112   .     S
C696   H771    1.103   .     S
H697   C844    1.103   1_455 S
O700   C701    1.411   .     S
O700   C820    1.388   1_455 S
C701   H702    1.112   .     S
C701   H704    1.107   .     S
C701   H851    1.105   1_455 S
H703   C775    1.105   .     S
O705   C706    1.412   .     S
C706   H709    1.113   .     S
C706   H708    1.109   .     S
C706   H707    1.114   .     S
O710   C711    1.412   .     S
C711   H712    1.109   .     S
C711   H713    1.113   .     S
C711   H714    1.111   .     S
O715   C716    1.410   .     S
C716   H718    1.113   .     S
C716   H717    1.110   .     S
C716   H719    1.114   .     S
O720   C721    1.410   .     S
C721   H722    1.113   .     S
C721   H723    1.110   .     S
C721   H724    1.114   .     S
O725   C726    1.411   .     S
C726   H728    1.107   .     S
C726   H729    1.106   .     S
C726   H727    1.109   .     S
O730   C731    1.412   .     S
C731   H734    1.109   .     S
C731   H732    1.105   .     S
C731   H733    1.109   .     S
C735   H736    1.078   .     S
C735   O737    1.220   .     D
C738   O740    1.217   .     D
C738   H739    1.085   .     S
C741   O761    1.306   .     A
C741   O763    1.300   .     A
C741   C752    1.468   .     S
C742   O762    1.306   .     A
C742   C751    1.467   .     S
C742   O764    1.300   .     A
C743   C745    1.452   .     S
C743   O767    1.300   .     A
C743   O765    1.296   .     A
C744   O766    1.297   .     A
C744   C746    1.451   .     S
C744   O768    1.299   .     A
C746   C819    1.355   .     S
C746   O848    1.388   .     S
C747   C752    1.413   .     A
C747   O779    1.379   .     S
C747   C1193   1.391   1_545 S
C748   O784    1.380   .     S
C748   C751    1.414   .     A
C748   C972    1.392   .     S
C749   C751    1.407   .     A
C749   O789    1.383   .     S
C749   C969    1.391   .     S
C750   C752    1.408   .     A
C750   O794    1.383   .     S
C750   C1192   1.392   1_545 S
C753   O799    1.383   .     S
C753   N760    1.366   .     A
C754   O804    1.386   .     S
C754   N759    1.360   .     A
C754   C1422   1.431   .     S
C755   C809    1.478   .     S
C755   N759    1.385   .     A
C755   C1419   1.435   .     S
C756   N760    1.391   .     A
C756   C812    1.477   .     S
Cu757  Cu758   2.706   .     S
Cu757  O765    1.986   .     S
Cu757  N759    2.033   .     S
Cu757  O764    1.982   .     S
Cu757  O768    1.985   .     S
Cu757  O761    1.980   .     S
Cu758  N760    2.033   .     S
Cu758  O766    1.986   .     S
Cu758  O762    1.980   .     S
Cu758  O763    1.982   .     S
Cu758  O767    1.985   .     S
O769   C770    1.411   .     S
O769   C819    1.388   .     S
C770   H773    1.106   .     S
C770   H772    1.112   .     S
C770   H845    1.103   .     S
O774   C775    1.411   .     S
C775   H776    1.112   .     S
C775   H778    1.107   .     S
H777   C849    1.105   .     S
O779   C780    1.412   .     S
C780   H783    1.113   .     S
C780   H782    1.109   .     S
C780   H781    1.114   .     S
O784   C785    1.412   .     S
C785   H786    1.109   .     S
C785   H787    1.113   .     S
C785   H788    1.111   .     S
O789   C790    1.410   .     S
C790   H792    1.113   .     S
C790   H791    1.110   .     S
C790   H793    1.114   .     S
O794   C795    1.410   .     S
C795   H796    1.113   .     S
C795   H797    1.110   .     S
C795   H798    1.114   .     S
O799   C800    1.411   .     S
C800   H802    1.107   .     S
C800   H803    1.106   .     S
C800   H801    1.109   .     S
O804   C805    1.412   .     S
C805   H808    1.109   .     S
C805   H806    1.105   .     S
C805   H807    1.109   .     S
C809   H810    1.078   .     S
C809   O811    1.220   .     D
C812   O814    1.217   .     D
C812   H813    1.085   .     S
C815   O835    1.306   .     A
C815   O837    1.300   .     A
C815   C826    1.468   .     S
C816   O836    1.306   .     A
C816   C825    1.467   .     S
C816   O838    1.300   .     A
C817   C819    1.452   .     S
C817   O841    1.300   .     A
C817   O839    1.296   .     A
C818   O840    1.297   .     A
C818   C820    1.451   .     S
C818   O842    1.299   .     A
C820   C671    1.355   1_655 S
C820   O700    1.388   1_655 S
C821   C826    1.413   .     A
C821   O853    1.379   .     S
C821   C1267   1.391   1_545 S
C822   O858    1.380   .     S
C822   C825    1.414   .     A
C822   C1046   1.392   .     S
C823   C825    1.407   .     A
C823   O863    1.383   .     S
C823   C1043   1.391   .     S
C824   C826    1.408   .     A
C824   O868    1.383   .     S
C824   C1266   1.392   1_545 S
C827   O873    1.383   .     S
C827   N834    1.366   .     A
C828   O878    1.386   .     S
C828   N833    1.360   .     A
C828   C1496   1.431   .     S
C829   C883    1.478   .     S
C829   N833    1.385   .     A
C829   C1493   1.435   .     S
C830   N834    1.391   .     A
C830   C886    1.477   .     S
Cu831  Cu832   2.706   .     S
Cu831  O839    1.986   .     S
Cu831  N833    2.033   .     S
Cu831  O838    1.982   .     S
Cu831  O842    1.985   .     S
Cu831  O835    1.980   .     S
Cu832  N834    2.033   .     S
Cu832  O840    1.986   .     S
Cu832  O836    1.980   .     S
Cu832  O837    1.982   .     S
Cu832  O841    1.985   .     S
O843   C844    1.411   .     S
O843   C671    1.388   1_655 S
C844   H847    1.106   .     S
C844   H846    1.112   .     S
C844   H697    1.103   1_655 S
O848   C849    1.411   .     S
C849   H850    1.112   .     S
C849   H852    1.107   .     S
H851   C701    1.105   1_655 S
O853   C854    1.412   .     S
C854   H857    1.113   .     S
C854   H856    1.109   .     S
C854   H855    1.114   .     S
O858   C859    1.412   .     S
C859   H860    1.109   .     S
C859   H861    1.113   .     S
C859   H862    1.111   .     S
O863   C864    1.410   .     S
C864   H866    1.113   .     S
C864   H865    1.110   .     S
C864   H867    1.114   .     S
O868   C869    1.410   .     S
C869   H870    1.113   .     S
C869   H871    1.110   .     S
C869   H872    1.114   .     S
O873   C874    1.411   .     S
C874   H876    1.107   .     S
C874   H877    1.106   .     S
C874   H875    1.109   .     S
O878   C879    1.412   .     S
C879   H882    1.109   .     S
C879   H880    1.105   .     S
C879   H881    1.109   .     S
C883   H884    1.078   .     S
C883   O885    1.220   .     D
C886   O888    1.217   .     D
C886   H887    1.085   .     S
C889   O909    1.306   .     A
C889   O911    1.300   .     A
C889   C900    1.468   .     S
C890   O910    1.306   .     A
C890   C899    1.467   .     S
C890   O912    1.300   .     A
C891   C893    1.452   .     S
C891   O915    1.300   .     A
C891   O913    1.296   .     A
C892   O914    1.297   .     A
C892   C894    1.451   .     S
C892   O916    1.299   .     A
C893   C1042   1.355   1_455 S
C893   O1065   1.388   1_455 S
C894   C967    1.355   .     S
C894   O996    1.388   .     S
C895   C900    1.413   .     A
C895   O927    1.379   .     S
C896   O932    1.380   .     S
C896   C899    1.414   .     A
C896   C1120   1.392   .     S
C897   C899    1.407   .     A
C897   O937    1.383   .     S
C897   C1117   1.391   .     S
C898   C900    1.408   .     A
C898   O942    1.383   .     S
C901   O947    1.383   .     S
C901   N908    1.366   .     A
C902   O952    1.386   .     S
C902   N907    1.360   .     A
C902   C1570   1.431   .     S
C903   C957    1.478   .     S
C903   N907    1.385   .     A
C903   C1567   1.435   .     S
C904   N908    1.391   .     A
C904   C960    1.477   .     S
Cu905  Cu906   2.706   .     S
Cu905  O913    1.986   .     S
Cu905  N907    2.033   .     S
Cu905  O912    1.982   .     S
Cu905  O916    1.985   .     S
Cu905  O909    1.980   .     S
Cu906  N908    2.033   .     S
Cu906  O914    1.986   .     S
Cu906  O910    1.980   .     S
Cu906  O911    1.982   .     S
Cu906  O915    1.985   .     S
O917   C918    1.411   .     S
O917   C967    1.388   .     S
C918   H921    1.106   .     S
C918   H920    1.112   .     S
C918   H993    1.103   .     S
H919   C1066   1.103   1_455 S
O922   C923    1.411   .     S
O922   C1042   1.388   1_455 S
C923   H924    1.112   .     S
C923   H926    1.107   .     S
C923   H1073   1.105   1_455 S
H925   C997    1.105   .     S
O927   C928    1.412   .     S
C928   H931    1.113   .     S
C928   H930    1.109   .     S
C928   H929    1.114   .     S
O932   C933    1.412   .     S
C933   H934    1.109   .     S
C933   H935    1.113   .     S
C933   H936    1.111   .     S
O937   C938    1.410   .     S
C938   H940    1.113   .     S
C938   H939    1.110   .     S
C938   H941    1.114   .     S
O942   C943    1.410   .     S
C943   H944    1.113   .     S
C943   H945    1.110   .     S
C943   H946    1.114   .     S
O947   C948    1.411   .     S
C948   H950    1.107   .     S
C948   H951    1.106   .     S
C948   H949    1.109   .     S
O952   C953    1.412   .     S
C953   H956    1.109   .     S
C953   H954    1.105   .     S
C953   H955    1.109   .     S
C957   H958    1.078   .     S
C957   O959    1.220   .     D
C960   O962    1.217   .     D
C960   H961    1.085   .     S
C963   O983    1.306   .     A
C963   O985    1.300   .     A
C963   C974    1.468   .     S
C964   O984    1.306   .     A
C964   C973    1.467   .     S
C964   O986    1.300   .     A
C965   C967    1.452   .     S
C965   O989    1.300   .     A
C965   O987    1.296   .     A
C966   O988    1.297   .     A
C966   C968    1.451   .     S
C966   O990    1.299   .     A
C968   C1041   1.355   .     S
C968   O1070   1.388   .     S
C969   C974    1.413   .     A
C969   O1001   1.379   .     S
C970   O1006   1.380   .     S
C970   C973    1.414   .     A
C970   C1194   1.392   .     S
C971   C973    1.407   .     A
C971   O1011   1.383   .     S
C971   C1191   1.391   .     S
C972   C974    1.408   .     A
C972   O1016   1.383   .     S
C975   O1021   1.383   .     S
C975   N982    1.366   .     A
C976   O1026   1.386   .     S
C976   N981    1.360   .     A
C976   C1644   1.431   .     S
C977   C1031   1.478   .     S
C977   N981    1.385   .     A
C977   C1641   1.435   .     S
C978   N982    1.391   .     A
C978   C1034   1.477   .     S
Cu979  Cu980   2.706   .     S
Cu979  O987    1.986   .     S
Cu979  N981    2.033   .     S
Cu979  O986    1.982   .     S
Cu979  O990    1.985   .     S
Cu979  O983    1.980   .     S
Cu980  N982    2.033   .     S
Cu980  O988    1.986   .     S
Cu980  O984    1.980   .     S
Cu980  O985    1.982   .     S
Cu980  O989    1.985   .     S
O991   C992    1.411   .     S
O991   C1041   1.388   .     S
C992   H995    1.106   .     S
C992   H994    1.112   .     S
C992   H1067   1.103   .     S
O996   C997    1.411   .     S
C997   H998    1.112   .     S
C997   H1000   1.107   .     S
H999   C1071   1.105   .     S
O1001  C1002   1.412   .     S
C1002  H1005   1.113   .     S
C1002  H1004   1.109   .     S
C1002  H1003   1.114   .     S
O1006  C1007   1.412   .     S
C1007  H1008   1.109   .     S
C1007  H1009   1.113   .     S
C1007  H1010   1.111   .     S
O1011  C1012   1.410   .     S
C1012  H1014   1.113   .     S
C1012  H1013   1.110   .     S
C1012  H1015   1.114   .     S
O1016  C1017   1.410   .     S
C1017  H1018   1.113   .     S
C1017  H1019   1.110   .     S
C1017  H1020   1.114   .     S
O1021  C1022   1.411   .     S
C1022  H1024   1.107   .     S
C1022  H1025   1.106   .     S
C1022  H1023   1.109   .     S
O1026  C1027   1.412   .     S
C1027  H1030   1.109   .     S
C1027  H1028   1.105   .     S
C1027  H1029   1.109   .     S
C1031  H1032   1.078   .     S
C1031  O1033   1.220   .     D
C1034  O1036   1.217   .     D
C1034  H1035   1.085   .     S
C1037  O1057   1.306   .     A
C1037  O1059   1.300   .     A
C1037  C1048   1.468   .     S
C1038  O1058   1.306   .     A
C1038  C1047   1.467   .     S
C1038  O1060   1.300   .     A
C1039  C1041   1.452   .     S
C1039  O1063   1.300   .     A
C1039  O1061   1.296   .     A
C1040  O1062   1.297   .     A
C1040  C1042   1.451   .     S
C1040  O1064   1.299   .     A
C1042  C893    1.355   1_655 S
C1042  O922    1.388   1_655 S
C1043  C1048   1.413   .     A
C1043  O1075   1.379   .     S
C1044  O1080   1.380   .     S
C1044  C1047   1.414   .     A
C1044  C1268   1.392   .     S
C1045  C1047   1.407   .     A
C1045  O1085   1.383   .     S
C1045  C1265   1.391   .     S
C1046  C1048   1.408   .     A
C1046  O1090   1.383   .     S
C1049  O1095   1.383   .     S
C1049  N1056   1.366   .     A
C1050  O1100   1.386   .     S
C1050  N1055   1.360   .     A
C1050  C1718   1.431   .     S
C1051  C1105   1.478   .     S
C1051  N1055   1.385   .     A
C1051  C1715   1.435   .     S
C1052  N1056   1.391   .     A
C1052  C1108   1.477   .     S
Cu1053 Cu1054  2.706   .     S
Cu1053 O1061   1.986   .     S
Cu1053 N1055   2.033   .     S
Cu1053 O1060   1.982   .     S
Cu1053 O1064   1.985   .     S
Cu1053 O1057   1.980   .     S
Cu1054 N1056   2.033   .     S
Cu1054 O1062   1.986   .     S
Cu1054 O1058   1.980   .     S
Cu1054 O1059   1.982   .     S
Cu1054 O1063   1.985   .     S
O1065  C1066   1.411   .     S
O1065  C893    1.388   1_655 S
C1066  H1069   1.106   .     S
C1066  H1068   1.112   .     S
C1066  H919    1.103   1_655 S
O1070  C1071   1.411   .     S
C1071  H1072   1.112   .     S
C1071  H1074   1.107   .     S
H1073  C923    1.105   1_655 S
O1075  C1076   1.412   .     S
C1076  H1079   1.113   .     S
C1076  H1078   1.109   .     S
C1076  H1077   1.114   .     S
O1080  C1081   1.412   .     S
C1081  H1082   1.109   .     S
C1081  H1083   1.113   .     S
C1081  H1084   1.111   .     S
O1085  C1086   1.410   .     S
C1086  H1088   1.113   .     S
C1086  H1087   1.110   .     S
C1086  H1089   1.114   .     S
O1090  C1091   1.410   .     S
C1091  H1092   1.113   .     S
C1091  H1093   1.110   .     S
C1091  H1094   1.114   .     S
O1095  C1096   1.411   .     S
C1096  H1098   1.107   .     S
C1096  H1099   1.106   .     S
C1096  H1097   1.109   .     S
O1100  C1101   1.412   .     S
C1101  H1104   1.109   .     S
C1101  H1102   1.105   .     S
C1101  H1103   1.109   .     S
C1105  H1106   1.078   .     S
C1105  O1107   1.220   .     D
C1108  O1110   1.217   .     D
C1108  H1109   1.085   .     S
C1111  O1131   1.306   .     A
C1111  O1133   1.300   .     A
C1111  C1122   1.468   .     S
C1112  O1132   1.306   .     A
C1112  C1121   1.467   .     S
C1112  O1134   1.300   .     A
C1113  C1115   1.452   .     S
C1113  O1137   1.300   .     A
C1113  O1135   1.296   .     A
C1114  O1136   1.297   .     A
C1114  C1116   1.451   .     S
C1114  O1138   1.299   .     A
C1115  C1264   1.355   1_455 S
C1115  O1287   1.388   1_455 S
C1116  C1189   1.355   .     S
C1116  O1218   1.388   .     S
C1117  C1122   1.413   .     A
C1117  O1149   1.379   .     S
C1118  O1154   1.380   .     S
C1118  C1121   1.414   .     A
C1118  C676    1.392   1_565 S
C1119  C1121   1.407   .     A
C1119  O1159   1.383   .     S
C1119  C673    1.391   1_565 S
C1120  C1122   1.408   .     A
C1120  O1164   1.383   .     S
C1123  O1169   1.383   .     S
C1123  N1130   1.366   .     A
C1124  O1174   1.386   .     S
C1124  N1129   1.360   .     A
C1124  C1792   1.431   .     S
C1125  C1179   1.478   .     S
C1125  N1129   1.385   .     A
C1125  C1789   1.435   .     S
C1126  N1130   1.391   .     A
C1126  C1182   1.477   .     S
Cu1127 Cu1128  2.706   .     S
Cu1127 O1135   1.986   .     S
Cu1127 N1129   2.033   .     S
Cu1127 O1134   1.982   .     S
Cu1127 O1138   1.985   .     S
Cu1127 O1131   1.980   .     S
Cu1128 N1130   2.033   .     S
Cu1128 O1136   1.986   .     S
Cu1128 O1132   1.980   .     S
Cu1128 O1133   1.982   .     S
Cu1128 O1137   1.985   .     S
O1139  C1140   1.411   .     S
O1139  C1189   1.388   .     S
C1140  H1143   1.106   .     S
C1140  H1142   1.112   .     S
C1140  H1215   1.103   .     S
H1141  C1288   1.103   1_455 S
O1144  C1145   1.411   .     S
O1144  C1264   1.388   1_455 S
C1145  H1146   1.112   .     S
C1145  H1148   1.107   .     S
C1145  H1295   1.105   1_455 S
H1147  C1219   1.105   .     S
O1149  C1150   1.412   .     S
C1150  H1153   1.113   .     S
C1150  H1152   1.109   .     S
C1150  H1151   1.114   .     S
O1154  C1155   1.412   .     S
C1155  H1156   1.109   .     S
C1155  H1157   1.113   .     S
C1155  H1158   1.111   .     S
O1159  C1160   1.410   .     S
C1160  H1162   1.113   .     S
C1160  H1161   1.110   .     S
C1160  H1163   1.114   .     S
O1164  C1165   1.410   .     S
C1165  H1166   1.113   .     S
C1165  H1167   1.110   .     S
C1165  H1168   1.114   .     S
O1169  C1170   1.411   .     S
C1170  H1172   1.107   .     S
C1170  H1173   1.106   .     S
C1170  H1171   1.109   .     S
O1174  C1175   1.412   .     S
C1175  H1178   1.109   .     S
C1175  H1176   1.105   .     S
C1175  H1177   1.109   .     S
C1179  H1180   1.078   .     S
C1179  O1181   1.220   .     D
C1182  O1184   1.217   .     D
C1182  H1183   1.085   .     S
C1185  O1205   1.306   .     A
C1185  O1207   1.300   .     A
C1185  C1196   1.468   .     S
C1186  O1206   1.306   .     A
C1186  C1195   1.467   .     S
C1186  O1208   1.300   .     A
C1187  C1189   1.452   .     S
C1187  O1211   1.300   .     A
C1187  O1209   1.296   .     A
C1188  O1210   1.297   .     A
C1188  C1190   1.451   .     S
C1188  O1212   1.299   .     A
C1190  C1263   1.355   .     S
C1190  O1292   1.388   .     S
C1191  C1196   1.413   .     A
C1191  O1223   1.379   .     S
C1192  O1228   1.380   .     S
C1192  C1195   1.414   .     A
C1192  C750    1.392   1_565 S
C1193  C1195   1.407   .     A
C1193  O1233   1.383   .     S
C1193  C747    1.391   1_565 S
C1194  C1196   1.408   .     A
C1194  O1238   1.383   .     S
C1197  O1243   1.383   .     S
C1197  N1204   1.366   .     A
C1198  O1248   1.386   .     S
C1198  N1203   1.360   .     A
C1198  C1866   1.431   .     S
C1199  C1253   1.478   .     S
C1199  N1203   1.385   .     A
C1199  C1863   1.435   .     S
C1200  N1204   1.391   .     A
C1200  C1256   1.477   .     S
Cu1201 Cu1202  2.706   .     S
Cu1201 O1209   1.986   .     S
Cu1201 N1203   2.033   .     S
Cu1201 O1208   1.982   .     S
Cu1201 O1212   1.985   .     S
Cu1201 O1205   1.980   .     S
Cu1202 N1204   2.033   .     S
Cu1202 O1210   1.986   .     S
Cu1202 O1206   1.980   .     S
Cu1202 O1207   1.982   .     S
Cu1202 O1211   1.985   .     S
O1213  C1214   1.411   .     S
O1213  C1263   1.388   .     S
C1214  H1217   1.106   .     S
C1214  H1216   1.112   .     S
C1214  H1289   1.103   .     S
O1218  C1219   1.411   .     S
C1219  H1220   1.112   .     S
C1219  H1222   1.107   .     S
H1221  C1293   1.105   .     S
O1223  C1224   1.412   .     S
C1224  H1227   1.113   .     S
C1224  H1226   1.109   .     S
C1224  H1225   1.114   .     S
O1228  C1229   1.412   .     S
C1229  H1230   1.109   .     S
C1229  H1231   1.113   .     S
C1229  H1232   1.111   .     S
O1233  C1234   1.410   .     S
C1234  H1236   1.113   .     S
C1234  H1235   1.110   .     S
C1234  H1237   1.114   .     S
O1238  C1239   1.410   .     S
C1239  H1240   1.113   .     S
C1239  H1241   1.110   .     S
C1239  H1242   1.114   .     S
O1243  C1244   1.411   .     S
C1244  H1246   1.107   .     S
C1244  H1247   1.106   .     S
C1244  H1245   1.109   .     S
O1248  C1249   1.412   .     S
C1249  H1252   1.109   .     S
C1249  H1250   1.105   .     S
C1249  H1251   1.109   .     S
C1253  H1254   1.078   .     S
C1253  O1255   1.220   .     D
C1256  O1258   1.217   .     D
C1256  H1257   1.085   .     S
C1259  O1279   1.306   .     A
C1259  O1281   1.300   .     A
C1259  C1270   1.468   .     S
C1260  O1280   1.306   .     A
C1260  C1269   1.467   .     S
C1260  O1282   1.300   .     A
C1261  C1263   1.452   .     S
C1261  O1285   1.300   .     A
C1261  O1283   1.296   .     A
C1262  O1284   1.297   .     A
C1262  C1264   1.451   .     S
C1262  O1286   1.299   .     A
C1264  C1115   1.355   1_655 S
C1264  O1144   1.388   1_655 S
C1265  C1270   1.413   .     A
C1265  O1297   1.379   .     S
C1266  O1302   1.380   .     S
C1266  C1269   1.414   .     A
C1266  C824    1.392   1_565 S
C1267  C1269   1.407   .     A
C1267  O1307   1.383   .     S
C1267  C821    1.391   1_565 S
C1268  C1270   1.408   .     A
C1268  O1312   1.383   .     S
C1271  O1317   1.383   .     S
C1271  N1278   1.366   .     A
C1272  O1322   1.386   .     S
C1272  N1277   1.360   .     A
C1272  C1940   1.431   .     S
C1273  C1327   1.478   .     S
C1273  N1277   1.385   .     A
C1273  C1937   1.435   .     S
C1274  N1278   1.391   .     A
C1274  C1330   1.477   .     S
Cu1275 Cu1276  2.706   .     S
Cu1275 O1283   1.986   .     S
Cu1275 N1277   2.033   .     S
Cu1275 O1282   1.982   .     S
Cu1275 O1286   1.985   .     S
Cu1275 O1279   1.980   .     S
Cu1276 N1278   2.033   .     S
Cu1276 O1284   1.986   .     S
Cu1276 O1280   1.980   .     S
Cu1276 O1281   1.982   .     S
Cu1276 O1285   1.985   .     S
O1287  C1288   1.411   .     S
O1287  C1115   1.388   1_655 S
C1288  H1291   1.106   .     S
C1288  H1290   1.112   .     S
C1288  H1141   1.103   1_655 S
O1292  C1293   1.411   .     S
C1293  H1294   1.112   .     S
C1293  H1296   1.107   .     S
H1295  C1145   1.105   1_655 S
O1297  C1298   1.412   .     S
C1298  H1301   1.113   .     S
C1298  H1300   1.109   .     S
C1298  H1299   1.114   .     S
O1302  C1303   1.412   .     S
C1303  H1304   1.109   .     S
C1303  H1305   1.113   .     S
C1303  H1306   1.111   .     S
O1307  C1308   1.410   .     S
C1308  H1310   1.113   .     S
C1308  H1309   1.110   .     S
C1308  H1311   1.114   .     S
O1312  C1313   1.410   .     S
C1313  H1314   1.113   .     S
C1313  H1315   1.110   .     S
C1313  H1316   1.114   .     S
O1317  C1318   1.411   .     S
C1318  H1320   1.107   .     S
C1318  H1321   1.106   .     S
C1318  H1319   1.109   .     S
O1322  C1323   1.412   .     S
C1323  H1326   1.109   .     S
C1323  H1324   1.105   .     S
C1323  H1325   1.109   .     S
C1327  H1328   1.078   .     S
C1327  O1329   1.220   .     D
C1330  O1332   1.217   .     D
C1330  H1331   1.085   .     S
C1333  O1353   1.306   .     A
C1333  O1355   1.300   .     A
C1333  C1344   1.468   .     S
C1334  O1354   1.306   .     A
C1334  C1343   1.467   .     S
C1334  O1356   1.300   .     A
C1335  C1337   1.452   .     S
C1335  O1359   1.300   .     A
C1335  O1357   1.296   .     A
C1336  O1358   1.297   .     A
C1336  C1338   1.451   .     S
C1336  O1360   1.299   .     A
C1337  C1486   1.355   1_455 S
C1337  O1509   1.388   1_455 S
C1338  C1411   1.355   .     S
C1338  O1440   1.388   .     S
C1339  C1344   1.413   .     A
C1339  O1371   1.379   .     S
C1339  C1785   1.391   1_545 S
C1340  O1376   1.380   .     S
C1340  C1343   1.414   .     A
C1340  C1564   1.392   .     S
C1341  C1343   1.407   .     A
C1341  O1381   1.383   .     S
C1341  C1561   1.391   .     S
C1342  C1344   1.408   .     A
C1342  O1386   1.383   .     S
C1342  C1784   1.392   1_545 S
C1345  O1391   1.383   .     S
C1345  N1352   1.366   .     A
C1346  O1396   1.386   .     S
C1346  N1351   1.360   .     A
C1346  C16     1.431   1_556 S
C1347  C1401   1.478   .     S
C1347  N1351   1.385   .     A
C1347  C13     1.435   1_556 S
C1348  N1352   1.391   .     A
C1348  C1404   1.477   .     S
Cu1349 Cu1350  2.706   .     S
Cu1349 O1357   1.986   .     S
Cu1349 N1351   2.033   .     S
Cu1349 O1356   1.982   .     S
Cu1349 O1360   1.985   .     S
Cu1349 O1353   1.980   .     S
Cu1350 N1352   2.033   .     S
Cu1350 O1358   1.986   .     S
Cu1350 O1354   1.980   .     S
Cu1350 O1355   1.982   .     S
Cu1350 O1359   1.985   .     S
O1361  C1362   1.411   .     S
O1361  C1411   1.388   .     S
C1362  H1365   1.106   .     S
C1362  H1364   1.112   .     S
C1362  H1437   1.103   .     S
H1363  C1510   1.103   1_455 S
O1366  C1367   1.411   .     S
O1366  C1486   1.388   1_455 S
C1367  H1368   1.112   .     S
C1367  H1370   1.107   .     S
C1367  H1517   1.105   1_455 S
H1369  C1441   1.105   .     S
O1371  C1372   1.412   .     S
C1372  H1375   1.113   .     S
C1372  H1374   1.109   .     S
C1372  H1373   1.114   .     S
O1376  C1377   1.412   .     S
C1377  H1378   1.109   .     S
C1377  H1379   1.113   .     S
C1377  H1380   1.111   .     S
O1381  C1382   1.410   .     S
C1382  H1384   1.113   .     S
C1382  H1383   1.110   .     S
C1382  H1385   1.114   .     S
O1386  C1387   1.410   .     S
C1387  H1388   1.113   .     S
C1387  H1389   1.110   .     S
C1387  H1390   1.114   .     S
O1391  C1392   1.411   .     S
C1392  H1394   1.107   .     S
C1392  H1395   1.106   .     S
C1392  H1393   1.109   .     S
O1396  C1397   1.412   .     S
C1397  H1400   1.109   .     S
C1397  H1398   1.105   .     S
C1397  H1399   1.109   .     S
C1401  H1402   1.078   .     S
C1401  O1403   1.220   .     D
C1404  O1406   1.217   .     D
C1404  H1405   1.085   .     S
C1407  O1427   1.306   .     A
C1407  O1429   1.300   .     A
C1407  C1418   1.468   .     S
C1408  O1428   1.306   .     A
C1408  C1417   1.467   .     S
C1408  O1430   1.300   .     A
C1409  C1411   1.452   .     S
C1409  O1433   1.300   .     A
C1409  O1431   1.296   .     A
C1410  O1432   1.297   .     A
C1410  C1412   1.451   .     S
C1410  O1434   1.299   .     A
C1412  C1485   1.355   .     S
C1412  O1514   1.388   .     S
C1413  C1418   1.413   .     A
C1413  O1445   1.379   .     S
C1413  C1859   1.391   1_545 S
C1414  O1450   1.380   .     S
C1414  C1417   1.414   .     A
C1414  C1638   1.392   .     S
C1415  C1417   1.407   .     A
C1415  O1455   1.383   .     S
C1415  C1635   1.391   .     S
C1416  C1418   1.408   .     A
C1416  O1460   1.383   .     S
C1416  C1858   1.392   1_545 S
C1419  O1465   1.383   .     S
C1419  N1426   1.366   .     A
C1420  O1470   1.386   .     S
C1420  N1425   1.360   .     A
C1420  C90     1.431   1_556 S
C1421  C1475   1.478   .     S
C1421  N1425   1.385   .     A
C1421  C87     1.435   1_556 S
C1422  N1426   1.391   .     A
C1422  C1478   1.477   .     S
Cu1423 Cu1424  2.706   .     S
Cu1423 O1431   1.986   .     S
Cu1423 N1425   2.033   .     S
Cu1423 O1430   1.982   .     S
Cu1423 O1434   1.985   .     S
Cu1423 O1427   1.980   .     S
Cu1424 N1426   2.033   .     S
Cu1424 O1432   1.986   .     S
Cu1424 O1428   1.980   .     S
Cu1424 O1429   1.982   .     S
Cu1424 O1433   1.985   .     S
O1435  C1436   1.411   .     S
O1435  C1485   1.388   .     S
C1436  H1439   1.106   .     S
C1436  H1438   1.112   .     S
C1436  H1511   1.103   .     S
O1440  C1441   1.411   .     S
C1441  H1442   1.112   .     S
C1441  H1444   1.107   .     S
H1443  C1515   1.105   .     S
O1445  C1446   1.412   .     S
C1446  H1449   1.113   .     S
C1446  H1448   1.109   .     S
C1446  H1447   1.114   .     S
O1450  C1451   1.412   .     S
C1451  H1452   1.109   .     S
C1451  H1453   1.113   .     S
C1451  H1454   1.111   .     S
O1455  C1456   1.410   .     S
C1456  H1458   1.113   .     S
C1456  H1457   1.110   .     S
C1456  H1459   1.114   .     S
O1460  C1461   1.410   .     S
C1461  H1462   1.113   .     S
C1461  H1463   1.110   .     S
C1461  H1464   1.114   .     S
O1465  C1466   1.411   .     S
C1466  H1468   1.107   .     S
C1466  H1469   1.106   .     S
C1466  H1467   1.109   .     S
O1470  C1471   1.412   .     S
C1471  H1474   1.109   .     S
C1471  H1472   1.105   .     S
C1471  H1473   1.109   .     S
C1475  H1476   1.078   .     S
C1475  O1477   1.220   .     D
C1478  O1480   1.217   .     D
C1478  H1479   1.085   .     S
C1481  O1501   1.306   .     A
C1481  O1503   1.300   .     A
C1481  C1492   1.468   .     S
C1482  O1502   1.306   .     A
C1482  C1491   1.467   .     S
C1482  O1504   1.300   .     A
C1483  C1485   1.452   .     S
C1483  O1507   1.300   .     A
C1483  O1505   1.296   .     A
C1484  O1506   1.297   .     A
C1484  C1486   1.451   .     S
C1484  O1508   1.299   .     A
C1486  C1337   1.355   1_655 S
C1486  O1366   1.388   1_655 S
C1487  C1492   1.413   .     A
C1487  O1519   1.379   .     S
C1487  C1933   1.391   1_545 S
C1488  O1524   1.380   .     S
C1488  C1491   1.414   .     A
C1488  C1712   1.392   .     S
C1489  C1491   1.407   .     A
C1489  O1529   1.383   .     S
C1489  C1709   1.391   .     S
C1490  C1492   1.408   .     A
C1490  O1534   1.383   .     S
C1490  C1932   1.392   1_545 S
C1493  O1539   1.383   .     S
C1493  N1500   1.366   .     A
C1494  O1544   1.386   .     S
C1494  N1499   1.360   .     A
C1494  C164    1.431   1_556 S
C1495  C1549   1.478   .     S
C1495  N1499   1.385   .     A
C1495  C161    1.435   1_556 S
C1496  N1500   1.391   .     A
C1496  C1552   1.477   .     S
Cu1497 Cu1498  2.706   .     S
Cu1497 O1505   1.986   .     S
Cu1497 N1499   2.033   .     S
Cu1497 O1504   1.982   .     S
Cu1497 O1508   1.985   .     S
Cu1497 O1501   1.980   .     S
Cu1498 N1500   2.033   .     S
Cu1498 O1506   1.986   .     S
Cu1498 O1502   1.980   .     S
Cu1498 O1503   1.982   .     S
Cu1498 O1507   1.985   .     S
O1509  C1510   1.411   .     S
O1509  C1337   1.388   1_655 S
C1510  H1513   1.106   .     S
C1510  H1512   1.112   .     S
C1510  H1363   1.103   1_655 S
O1514  C1515   1.411   .     S
C1515  H1516   1.112   .     S
C1515  H1518   1.107   .     S
H1517  C1367   1.105   1_655 S
O1519  C1520   1.412   .     S
C1520  H1523   1.113   .     S
C1520  H1522   1.109   .     S
C1520  H1521   1.114   .     S
O1524  C1525   1.412   .     S
C1525  H1526   1.109   .     S
C1525  H1527   1.113   .     S
C1525  H1528   1.111   .     S
O1529  C1530   1.410   .     S
C1530  H1532   1.113   .     S
C1530  H1531   1.110   .     S
C1530  H1533   1.114   .     S
O1534  C1535   1.410   .     S
C1535  H1536   1.113   .     S
C1535  H1537   1.110   .     S
C1535  H1538   1.114   .     S
O1539  C1540   1.411   .     S
C1540  H1542   1.107   .     S
C1540  H1543   1.106   .     S
C1540  H1541   1.109   .     S
O1544  C1545   1.412   .     S
C1545  H1548   1.109   .     S
C1545  H1546   1.105   .     S
C1545  H1547   1.109   .     S
C1549  H1550   1.078   .     S
C1549  O1551   1.220   .     D
C1552  O1554   1.217   .     D
C1552  H1553   1.085   .     S
C1555  O1575   1.306   .     A
C1555  O1577   1.300   .     A
C1555  C1566   1.468   .     S
C1556  O1576   1.306   .     A
C1556  C1565   1.467   .     S
C1556  O1578   1.300   .     A
C1557  C1559   1.452   .     S
C1557  O1581   1.300   .     A
C1557  O1579   1.296   .     A
C1558  O1580   1.297   .     A
C1558  C1560   1.451   .     S
C1558  O1582   1.299   .     A
C1559  C1708   1.355   1_455 S
C1559  O1731   1.388   1_455 S
C1560  C1633   1.355   .     S
C1560  O1662   1.388   .     S
C1561  C1566   1.413   .     A
C1561  O1593   1.379   .     S
C1562  O1598   1.380   .     S
C1562  C1565   1.414   .     A
C1562  C1786   1.392   .     S
C1563  C1565   1.407   .     A
C1563  O1603   1.383   .     S
C1563  C1783   1.391   .     S
C1564  C1566   1.408   .     A
C1564  O1608   1.383   .     S
C1567  O1613   1.383   .     S
C1567  N1574   1.366   .     A
C1568  O1618   1.386   .     S
C1568  N1573   1.360   .     A
C1568  C238    1.431   1_556 S
C1569  C1623   1.478   .     S
C1569  N1573   1.385   .     A
C1569  C235    1.435   1_556 S
C1570  N1574   1.391   .     A
C1570  C1626   1.477   .     S
Cu1571 Cu1572  2.706   .     S
Cu1571 O1579   1.986   .     S
Cu1571 N1573   2.033   .     S
Cu1571 O1578   1.982   .     S
Cu1571 O1582   1.985   .     S
Cu1571 O1575   1.980   .     S
Cu1572 N1574   2.033   .     S
Cu1572 O1580   1.986   .     S
Cu1572 O1576   1.980   .     S
Cu1572 O1577   1.982   .     S
Cu1572 O1581   1.985   .     S
O1583  C1584   1.411   .     S
O1583  C1633   1.388   .     S
C1584  H1587   1.106   .     S
C1584  H1586   1.112   .     S
C1584  H1659   1.103   .     S
H1585  C1732   1.103   1_455 S
O1588  C1589   1.411   .     S
O1588  C1708   1.388   1_455 S
C1589  H1590   1.112   .     S
C1589  H1592   1.107   .     S
C1589  H1739   1.105   1_455 S
H1591  C1663   1.105   .     S
O1593  C1594   1.412   .     S
C1594  H1597   1.113   .     S
C1594  H1596   1.109   .     S
C1594  H1595   1.114   .     S
O1598  C1599   1.412   .     S
C1599  H1600   1.109   .     S
C1599  H1601   1.113   .     S
C1599  H1602   1.111   .     S
O1603  C1604   1.410   .     S
C1604  H1606   1.113   .     S
C1604  H1605   1.110   .     S
C1604  H1607   1.114   .     S
O1608  C1609   1.410   .     S
C1609  H1610   1.113   .     S
C1609  H1611   1.110   .     S
C1609  H1612   1.114   .     S
O1613  C1614   1.411   .     S
C1614  H1616   1.107   .     S
C1614  H1617   1.106   .     S
C1614  H1615   1.109   .     S
O1618  C1619   1.412   .     S
C1619  H1622   1.109   .     S
C1619  H1620   1.105   .     S
C1619  H1621   1.109   .     S
C1623  H1624   1.078   .     S
C1623  O1625   1.220   .     D
C1626  O1628   1.217   .     D
C1626  H1627   1.085   .     S
C1629  O1649   1.306   .     A
C1629  O1651   1.300   .     A
C1629  C1640   1.468   .     S
C1630  O1650   1.306   .     A
C1630  C1639   1.467   .     S
C1630  O1652   1.300   .     A
C1631  C1633   1.452   .     S
C1631  O1655   1.300   .     A
C1631  O1653   1.296   .     A
C1632  O1654   1.297   .     A
C1632  C1634   1.451   .     S
C1632  O1656   1.299   .     A
C1634  C1707   1.355   .     S
C1634  O1736   1.388   .     S
C1635  C1640   1.413   .     A
C1635  O1667   1.379   .     S
C1636  O1672   1.380   .     S
C1636  C1639   1.414   .     A
C1636  C1860   1.392   .     S
C1637  C1639   1.407   .     A
C1637  O1677   1.383   .     S
C1637  C1857   1.391   .     S
C1638  C1640   1.408   .     A
C1638  O1682   1.383   .     S
C1641  O1687   1.383   .     S
C1641  N1648   1.366   .     A
C1642  O1692   1.386   .     S
C1642  N1647   1.360   .     A
C1642  C312    1.431   1_556 S
C1643  C1697   1.478   .     S
C1643  N1647   1.385   .     A
C1643  C309    1.435   1_556 S
C1644  N1648   1.391   .     A
C1644  C1700   1.477   .     S
Cu1645 Cu1646  2.706   .     S
Cu1645 O1653   1.986   .     S
Cu1645 N1647   2.033   .     S
Cu1645 O1652   1.982   .     S
Cu1645 O1656   1.985   .     S
Cu1645 O1649   1.980   .     S
Cu1646 N1648   2.033   .     S
Cu1646 O1654   1.986   .     S
Cu1646 O1650   1.980   .     S
Cu1646 O1651   1.982   .     S
Cu1646 O1655   1.985   .     S
O1657  C1658   1.411   .     S
O1657  C1707   1.388   .     S
C1658  H1661   1.106   .     S
C1658  H1660   1.112   .     S
C1658  H1733   1.103   .     S
O1662  C1663   1.411   .     S
C1663  H1664   1.112   .     S
C1663  H1666   1.107   .     S
H1665  C1737   1.105   .     S
O1667  C1668   1.412   .     S
C1668  H1671   1.113   .     S
C1668  H1670   1.109   .     S
C1668  H1669   1.114   .     S
O1672  C1673   1.412   .     S
C1673  H1674   1.109   .     S
C1673  H1675   1.113   .     S
C1673  H1676   1.111   .     S
O1677  C1678   1.410   .     S
C1678  H1680   1.113   .     S
C1678  H1679   1.110   .     S
C1678  H1681   1.114   .     S
O1682  C1683   1.410   .     S
C1683  H1684   1.113   .     S
C1683  H1685   1.110   .     S
C1683  H1686   1.114   .     S
O1687  C1688   1.411   .     S
C1688  H1690   1.107   .     S
C1688  H1691   1.106   .     S
C1688  H1689   1.109   .     S
O1692  C1693   1.412   .     S
C1693  H1696   1.109   .     S
C1693  H1694   1.105   .     S
C1693  H1695   1.109   .     S
C1697  H1698   1.078   .     S
C1697  O1699   1.220   .     D
C1700  O1702   1.217   .     D
C1700  H1701   1.085   .     S
C1703  O1723   1.306   .     A
C1703  O1725   1.300   .     A
C1703  C1714   1.468   .     S
C1704  O1724   1.306   .     A
C1704  C1713   1.467   .     S
C1704  O1726   1.300   .     A
C1705  C1707   1.452   .     S
C1705  O1729   1.300   .     A
C1705  O1727   1.296   .     A
C1706  O1728   1.297   .     A
C1706  C1708   1.451   .     S
C1706  O1730   1.299   .     A
C1708  C1559   1.355   1_655 S
C1708  O1588   1.388   1_655 S
C1709  C1714   1.413   .     A
C1709  O1741   1.379   .     S
C1710  O1746   1.380   .     S
C1710  C1713   1.414   .     A
C1710  C1934   1.392   .     S
C1711  C1713   1.407   .     A
C1711  O1751   1.383   .     S
C1711  C1931   1.391   .     S
C1712  C1714   1.408   .     A
C1712  O1756   1.383   .     S
C1715  O1761   1.383   .     S
C1715  N1722   1.366   .     A
C1716  O1766   1.386   .     S
C1716  N1721   1.360   .     A
C1716  C386    1.431   1_556 S
C1717  C1771   1.478   .     S
C1717  N1721   1.385   .     A
C1717  C383    1.435   1_556 S
C1718  N1722   1.391   .     A
C1718  C1774   1.477   .     S
Cu1719 Cu1720  2.706   .     S
Cu1719 O1727   1.986   .     S
Cu1719 N1721   2.033   .     S
Cu1719 O1726   1.982   .     S
Cu1719 O1730   1.985   .     S
Cu1719 O1723   1.980   .     S
Cu1720 N1722   2.033   .     S
Cu1720 O1728   1.986   .     S
Cu1720 O1724   1.980   .     S
Cu1720 O1725   1.982   .     S
Cu1720 O1729   1.985   .     S
O1731  C1732   1.411   .     S
O1731  C1559   1.388   1_655 S
C1732  H1735   1.106   .     S
C1732  H1734   1.112   .     S
C1732  H1585   1.103   1_655 S
O1736  C1737   1.411   .     S
C1737  H1738   1.112   .     S
C1737  H1740   1.107   .     S
H1739  C1589   1.105   1_655 S
O1741  C1742   1.412   .     S
C1742  H1745   1.113   .     S
C1742  H1744   1.109   .     S
C1742  H1743   1.114   .     S
O1746  C1747   1.412   .     S
C1747  H1748   1.109   .     S
C1747  H1749   1.113   .     S
C1747  H1750   1.111   .     S
O1751  C1752   1.410   .     S
C1752  H1754   1.113   .     S
C1752  H1753   1.110   .     S
C1752  H1755   1.114   .     S
O1756  C1757   1.410   .     S
C1757  H1758   1.113   .     S
C1757  H1759   1.110   .     S
C1757  H1760   1.114   .     S
O1761  C1762   1.411   .     S
C1762  H1764   1.107   .     S
C1762  H1765   1.106   .     S
C1762  H1763   1.109   .     S
O1766  C1767   1.412   .     S
C1767  H1770   1.109   .     S
C1767  H1768   1.105   .     S
C1767  H1769   1.109   .     S
C1771  H1772   1.078   .     S
C1771  O1773   1.220   .     D
C1774  O1776   1.217   .     D
C1774  H1775   1.085   .     S
C1777  O1797   1.306   .     A
C1777  O1799   1.300   .     A
C1777  C1788   1.468   .     S
C1778  O1798   1.306   .     A
C1778  C1787   1.467   .     S
C1778  O1800   1.300   .     A
C1779  C1781   1.452   .     S
C1779  O1803   1.300   .     A
C1779  O1801   1.296   .     A
C1780  O1802   1.297   .     A
C1780  C1782   1.451   .     S
C1780  O1804   1.299   .     A
C1781  C1930   1.355   1_455 S
C1781  O1953   1.388   1_455 S
C1782  C1855   1.355   .     S
C1782  O1884   1.388   .     S
C1783  C1788   1.413   .     A
C1783  O1815   1.379   .     S
C1784  O1820   1.380   .     S
C1784  C1787   1.414   .     A
C1784  C1342   1.392   1_565 S
C1785  C1787   1.407   .     A
C1785  O1825   1.383   .     S
C1785  C1339   1.391   1_565 S
C1786  C1788   1.408   .     A
C1786  O1830   1.383   .     S
C1789  O1835   1.383   .     S
C1789  N1796   1.366   .     A
C1790  O1840   1.386   .     S
C1790  N1795   1.360   .     A
C1790  C460    1.431   1_556 S
C1791  C1845   1.478   .     S
C1791  N1795   1.385   .     A
C1791  C457    1.435   1_556 S
C1792  N1796   1.391   .     A
C1792  C1848   1.477   .     S
Cu1793 Cu1794  2.706   .     S
Cu1793 O1801   1.986   .     S
Cu1793 N1795   2.033   .     S
Cu1793 O1800   1.982   .     S
Cu1793 O1804   1.985   .     S
Cu1793 O1797   1.980   .     S
Cu1794 N1796   2.033   .     S
Cu1794 O1802   1.986   .     S
Cu1794 O1798   1.980   .     S
Cu1794 O1799   1.982   .     S
Cu1794 O1803   1.985   .     S
O1805  C1806   1.411   .     S
O1805  C1855   1.388   .     S
C1806  H1809   1.106   .     S
C1806  H1808   1.112   .     S
C1806  H1881   1.103   .     S
H1807  C1954   1.103   1_455 S
O1810  C1811   1.411   .     S
O1810  C1930   1.388   1_455 S
C1811  H1812   1.112   .     S
C1811  H1814   1.107   .     S
C1811  H1961   1.105   1_455 S
H1813  C1885   1.105   .     S
O1815  C1816   1.412   .     S
C1816  H1819   1.113   .     S
C1816  H1818   1.109   .     S
C1816  H1817   1.114   .     S
O1820  C1821   1.412   .     S
C1821  H1822   1.109   .     S
C1821  H1823   1.113   .     S
C1821  H1824   1.111   .     S
O1825  C1826   1.410   .     S
C1826  H1828   1.113   .     S
C1826  H1827   1.110   .     S
C1826  H1829   1.114   .     S
O1830  C1831   1.410   .     S
C1831  H1832   1.113   .     S
C1831  H1833   1.110   .     S
C1831  H1834   1.114   .     S
O1835  C1836   1.411   .     S
C1836  H1838   1.107   .     S
C1836  H1839   1.106   .     S
C1836  H1837   1.109   .     S
O1840  C1841   1.412   .     S
C1841  H1844   1.109   .     S
C1841  H1842   1.105   .     S
C1841  H1843   1.109   .     S
C1845  H1846   1.078   .     S
C1845  O1847   1.220   .     D
C1848  O1850   1.217   .     D
C1848  H1849   1.085   .     S
C1851  O1871   1.306   .     A
C1851  O1873   1.300   .     A
C1851  C1862   1.468   .     S
C1852  O1872   1.306   .     A
C1852  C1861   1.467   .     S
C1852  O1874   1.300   .     A
C1853  C1855   1.452   .     S
C1853  O1877   1.300   .     A
C1853  O1875   1.296   .     A
C1854  O1876   1.297   .     A
C1854  C1856   1.451   .     S
C1854  O1878   1.299   .     A
C1856  C1929   1.355   .     S
C1856  O1958   1.388   .     S
C1857  C1862   1.413   .     A
C1857  O1889   1.379   .     S
C1858  O1894   1.380   .     S
C1858  C1861   1.414   .     A
C1858  C1416   1.392   1_565 S
C1859  C1861   1.407   .     A
C1859  O1899   1.383   .     S
C1859  C1413   1.391   1_565 S
C1860  C1862   1.408   .     A
C1860  O1904   1.383   .     S
C1863  O1909   1.383   .     S
C1863  N1870   1.366   .     A
C1864  O1914   1.386   .     S
C1864  N1869   1.360   .     A
C1864  C534    1.431   1_556 S
C1865  C1919   1.478   .     S
C1865  N1869   1.385   .     A
C1865  C531    1.435   1_556 S
C1866  N1870   1.391   .     A
C1866  C1922   1.477   .     S
Cu1867 Cu1868  2.706   .     S
Cu1867 O1875   1.986   .     S
Cu1867 N1869   2.033   .     S
Cu1867 O1874   1.982   .     S
Cu1867 O1878   1.985   .     S
Cu1867 O1871   1.980   .     S
Cu1868 N1870   2.033   .     S
Cu1868 O1876   1.986   .     S
Cu1868 O1872   1.980   .     S
Cu1868 O1873   1.982   .     S
Cu1868 O1877   1.985   .     S
O1879  C1880   1.411   .     S
O1879  C1929   1.388   .     S
C1880  H1883   1.106   .     S
C1880  H1882   1.112   .     S
C1880  H1955   1.103   .     S
O1884  C1885   1.411   .     S
C1885  H1886   1.112   .     S
C1885  H1888   1.107   .     S
H1887  C1959   1.105   .     S
O1889  C1890   1.412   .     S
C1890  H1893   1.113   .     S
C1890  H1892   1.109   .     S
C1890  H1891   1.114   .     S
O1894  C1895   1.412   .     S
C1895  H1896   1.109   .     S
C1895  H1897   1.113   .     S
C1895  H1898   1.111   .     S
O1899  C1900   1.410   .     S
C1900  H1902   1.113   .     S
C1900  H1901   1.110   .     S
C1900  H1903   1.114   .     S
O1904  C1905   1.410   .     S
C1905  H1906   1.113   .     S
C1905  H1907   1.110   .     S
C1905  H1908   1.114   .     S
O1909  C1910   1.411   .     S
C1910  H1912   1.107   .     S
C1910  H1913   1.106   .     S
C1910  H1911   1.109   .     S
O1914  C1915   1.412   .     S
C1915  H1918   1.109   .     S
C1915  H1916   1.105   .     S
C1915  H1917   1.109   .     S
C1919  H1920   1.078   .     S
C1919  O1921   1.220   .     D
C1922  O1924   1.217   .     D
C1922  H1923   1.085   .     S
C1925  O1945   1.306   .     A
C1925  O1947   1.300   .     A
C1925  C1936   1.468   .     S
C1926  O1946   1.306   .     A
C1926  C1935   1.467   .     S
C1926  O1948   1.300   .     A
C1927  C1929   1.452   .     S
C1927  O1951   1.300   .     A
C1927  O1949   1.296   .     A
C1928  O1950   1.297   .     A
C1928  C1930   1.451   .     S
C1928  O1952   1.299   .     A
C1930  C1781   1.355   1_655 S
C1930  O1810   1.388   1_655 S
C1931  C1936   1.413   .     A
C1931  O1963   1.379   .     S
C1932  O1968   1.380   .     S
C1932  C1935   1.414   .     A
C1932  C1490   1.392   1_565 S
C1933  C1935   1.407   .     A
C1933  O1973   1.383   .     S
C1933  C1487   1.391   1_565 S
C1934  C1936   1.408   .     A
C1934  O1978   1.383   .     S
C1937  O1983   1.383   .     S
C1937  N1944   1.366   .     A
C1938  O1988   1.386   .     S
C1938  N1943   1.360   .     A
C1938  C608    1.431   1_556 S
C1939  C1993   1.478   .     S
C1939  N1943   1.385   .     A
C1939  C605    1.435   1_556 S
C1940  N1944   1.391   .     A
C1940  C1996   1.477   .     S
Cu1941 Cu1942  2.706   .     S
Cu1941 O1949   1.986   .     S
Cu1941 N1943   2.033   .     S
Cu1941 O1948   1.982   .     S
Cu1941 O1952   1.985   .     S
Cu1941 O1945   1.980   .     S
Cu1942 N1944   2.033   .     S
Cu1942 O1950   1.986   .     S
Cu1942 O1946   1.980   .     S
Cu1942 O1947   1.982   .     S
Cu1942 O1951   1.985   .     S
O1953  C1954   1.411   .     S
O1953  C1781   1.388   1_655 S
C1954  H1957   1.106   .     S
C1954  H1956   1.112   .     S
C1954  H1807   1.103   1_655 S
O1958  C1959   1.411   .     S
C1959  H1960   1.112   .     S
C1959  H1962   1.107   .     S
H1961  C1811   1.105   1_655 S
O1963  C1964   1.412   .     S
C1964  H1967   1.113   .     S
C1964  H1966   1.109   .     S
C1964  H1965   1.114   .     S
O1968  C1969   1.412   .     S
C1969  H1970   1.109   .     S
C1969  H1971   1.113   .     S
C1969  H1972   1.111   .     S
O1973  C1974   1.410   .     S
C1974  H1976   1.113   .     S
C1974  H1975   1.110   .     S
C1974  H1977   1.114   .     S
O1978  C1979   1.410   .     S
C1979  H1980   1.113   .     S
C1979  H1981   1.110   .     S
C1979  H1982   1.114   .     S
O1983  C1984   1.411   .     S
C1984  H1986   1.107   .     S
C1984  H1987   1.106   .     S
C1984  H1985   1.109   .     S
O1988  C1989   1.412   .     S
C1989  H1992   1.109   .     S
C1989  H1990   1.105   .     S
C1989  H1991   1.109   .     S
C1993  H1994   1.078   .     S
C1993  O1995   1.220   .     D
C1996  O1998   1.217   .     D
C1996  H1997   1.085   .     S
