data_str_m2_o2_o10_pcu_sym.51
_audit_creation_date              2020-01-03
_audit_creation_method            'Materials Studio'
_symmetry_space_group_name_H-M    'P1'
_symmetry_Int_Tables_number       1
_symmetry_cell_setting            triclinic
loop_
_symmetry_equiv_pos_as_xyz
  x,y,z
_cell_length_a                    26.1693
_cell_length_b                    30.2140
_cell_length_c                    28.0136
_cell_angle_alpha                 90.1058
_cell_angle_beta                  97.8915
_cell_angle_gamma                 92.1679
loop_
_atom_site_label
_atom_site_type_symbol
_atom_site_fract_x
_atom_site_fract_y
_atom_site_fract_z
_atom_site_U_iso_or_equiv
_atom_site_adp_type
_atom_site_occupancy
Br1    Br    0.24523   0.32101   0.14464   0.00000  Uiso   1.00
Br2    Br    0.08247   0.18387   0.35507   0.00000  Uiso   1.00
Br3    Br    0.08794   0.17924   0.12435   0.00000  Uiso   1.00
Br4    Br    0.25191   0.31508   0.37698   0.00000  Uiso   1.00
C5     C     0.16685   0.16506   0.24993   0.00000  Uiso   1.00
C6     C     0.20276   0.27570   0.45077   0.00000  Uiso   1.00
C7     C     0.16662   0.25002   0.02732   0.00000  Uiso   1.00
C8     C     0.16662   0.25003   0.47278   0.00000  Uiso   1.00
C9     C     0.06801   0.24994   0.23762   0.00000  Uiso   1.00
C10    C     0.26532   0.25022   0.26237   0.00000  Uiso   1.00
C11    C     0.01266   0.24967   0.23086   0.00000  Uiso   1.00
C12    C     0.32066   0.25078   0.26909   0.00000  Uiso   1.00
C13    C     0.14559   0.04619   0.28286   0.00000  Uiso   1.00
C14    C     0.14828   0.45214   0.20888   0.00000  Uiso   1.00
C15    C     0.14480   0.09212   0.28354   0.00000  Uiso   1.00
C16    C     0.16681   0.33498   0.25004   0.00000  Uiso   1.00
C17    C     0.14715   0.40610   0.20880   0.00000  Uiso   1.00
C18    C     0.16804   0.11683   0.24962   0.00000  Uiso   1.00
C19    C     0.16776   0.38334   0.25009   0.00000  Uiso   1.00
C20    C     0.19272   0.09522   0.21534   0.00000  Uiso   1.00
C21    C     0.19012   0.40706   0.29120   0.00000  Uiso   1.00
C22    C     0.19488   0.04921   0.21529   0.00000  Uiso   1.00
C23    C     0.19265   0.45315   0.29109   0.00000  Uiso   1.00
C24    C     0.17099   0.02445   0.24921   0.00000  Uiso   1.00
C25    C     0.17128   0.47595   0.24975   0.00000  Uiso   1.00
C26    C     0.19763   0.28028   0.05804   0.00000  Uiso   1.00
C27    C     0.13057   0.22427   0.44140   0.00000  Uiso   1.00
C28    C     0.19808   0.27939   0.10826   0.00000  Uiso   1.00
C29    C     0.13167   0.22379   0.39137   0.00000  Uiso   1.00
C30    C     0.13520   0.22066   0.10012   0.00000  Uiso   1.00
C31    C     0.20178   0.27607   0.40046   0.00000  Uiso   1.00
C32    C     0.13561   0.21976   0.04999   0.00000  Uiso   1.00
Cl33   Cl    0.22965   0.02403   0.17370   0.00000  Uiso   1.00
Cl34   Cl    0.22466   0.48101   0.34265   0.00000  Uiso   1.00
Cu35   Cu    0.16667   0.25000   0.29821   0.00000  Uiso   1.00
Cu36   Cu    0.16667   0.25001   0.20178   0.00000  Uiso   1.00
H37    H     0.32601   0.24836   0.19418   0.00000  Uiso   1.00
H38    H     0.10086   0.20405   0.45469   0.00000  Uiso   1.00
H39    H     0.11122   0.19482   0.02971   0.00000  Uiso   1.00
H40    H     0.23257   0.29581   0.47177   0.00000  Uiso   1.00
H41    H     0.00729   0.25225   0.30576   0.00000  Uiso   1.00
H42    H     0.12645   0.02749   0.30870   0.00000  Uiso   1.00
H43    H     0.13107   0.46930   0.17709   0.00000  Uiso   1.00
H44    H     0.12531   0.10819   0.31004   0.00000  Uiso   1.00
H45    H     0.12946   0.38830   0.17677   0.00000  Uiso   1.00
H46    H     0.21136   0.11417   0.18933   0.00000  Uiso   1.00
H47    H     0.20665   0.38986   0.32310   0.00000  Uiso   1.00
H48    H     0.22195   0.30525   0.04408   0.00000  Uiso   1.00
N49    N     0.16667   0.25001   0.12934   0.00000  Uiso   1.00
N50    N     0.16667   0.24999   0.37065   0.00000  Uiso   1.00
O51    O     0.16667   0.18573   0.29071   0.00000  Uiso   1.00
O52    O     0.16666   0.31428   0.20928   0.00000  Uiso   1.00
O53    O     0.16667   0.18573   0.20928   0.00000  Uiso   1.00
O54    O     0.16666   0.31427   0.29072   0.00000  Uiso   1.00
O55    O     0.09161   0.25000   0.28132   0.00000  Uiso   1.00
O56    O     0.24172   0.25001   0.21868   0.00000  Uiso   1.00
O57    O     0.09161   0.25000   0.19988   0.00000  Uiso   1.00
O58    O     0.24172   0.25000   0.30011   0.00000  Uiso   1.00
Br59   Br    0.57856   0.32101   0.14464   0.00000  Uiso   1.00
Br60   Br    0.41580   0.18387   0.35507   0.00000  Uiso   1.00
Br61   Br    0.42127   0.17924   0.12435   0.00000  Uiso   1.00
Br62   Br    0.58524   0.31508   0.37698   0.00000  Uiso   1.00
C63    C     0.50018   0.16506   0.24993   0.00000  Uiso   1.00
C64    C     0.53609   0.27570   0.45077   0.00000  Uiso   1.00
C65    C     0.49995   0.25002   0.02732   0.00000  Uiso   1.00
C66    C     0.49995   0.25003   0.47278   0.00000  Uiso   1.00
C67    C     0.40134   0.24994   0.23762   0.00000  Uiso   1.00
C68    C     0.59865   0.25022   0.26237   0.00000  Uiso   1.00
C69    C     0.34599   0.24967   0.23086   0.00000  Uiso   1.00
C70    C     0.65400   0.25078   0.26909   0.00000  Uiso   1.00
C71    C     0.47892   0.04619   0.28286   0.00000  Uiso   1.00
C72    C     0.48161   0.45214   0.20888   0.00000  Uiso   1.00
C73    C     0.47813   0.09212   0.28354   0.00000  Uiso   1.00
C74    C     0.50014   0.33498   0.25004   0.00000  Uiso   1.00
C75    C     0.48048   0.40610   0.20880   0.00000  Uiso   1.00
C76    C     0.50137   0.11683   0.24962   0.00000  Uiso   1.00
C77    C     0.50109   0.38334   0.25009   0.00000  Uiso   1.00
C78    C     0.52606   0.09522   0.21534   0.00000  Uiso   1.00
C79    C     0.52345   0.40706   0.29120   0.00000  Uiso   1.00
C80    C     0.52822   0.04921   0.21529   0.00000  Uiso   1.00
C81    C     0.52599   0.45315   0.29109   0.00000  Uiso   1.00
C82    C     0.50432   0.02445   0.24921   0.00000  Uiso   1.00
C83    C     0.50462   0.47595   0.24975   0.00000  Uiso   1.00
C84    C     0.53096   0.28028   0.05804   0.00000  Uiso   1.00
C85    C     0.46390   0.22427   0.44140   0.00000  Uiso   1.00
C86    C     0.53142   0.27939   0.10826   0.00000  Uiso   1.00
C87    C     0.46500   0.22379   0.39137   0.00000  Uiso   1.00
C88    C     0.46854   0.22066   0.10012   0.00000  Uiso   1.00
C89    C     0.53511   0.27607   0.40046   0.00000  Uiso   1.00
C90    C     0.46894   0.21976   0.04999   0.00000  Uiso   1.00
Cl91   Cl    0.56298   0.02403   0.17370   0.00000  Uiso   1.00
Cl92   Cl    0.55800   0.48101   0.34265   0.00000  Uiso   1.00
Cu93   Cu    0.50000   0.25000   0.29821   0.00000  Uiso   1.00
Cu94   Cu    0.50000   0.25001   0.20178   0.00000  Uiso   1.00
H95    H     0.65934   0.24836   0.19418   0.00000  Uiso   1.00
H96    H     0.43420   0.20405   0.45469   0.00000  Uiso   1.00
H97    H     0.44455   0.19482   0.02971   0.00000  Uiso   1.00
H98    H     0.56590   0.29581   0.47177   0.00000  Uiso   1.00
H99    H     0.34062   0.25225   0.30576   0.00000  Uiso   1.00
H100   H     0.45978   0.02749   0.30870   0.00000  Uiso   1.00
H101   H     0.46440   0.46930   0.17709   0.00000  Uiso   1.00
H102   H     0.45865   0.10819   0.31004   0.00000  Uiso   1.00
H103   H     0.46280   0.38830   0.17677   0.00000  Uiso   1.00
H104   H     0.54469   0.11417   0.18933   0.00000  Uiso   1.00
H105   H     0.53999   0.38986   0.32310   0.00000  Uiso   1.00
H106   H     0.55528   0.30525   0.04408   0.00000  Uiso   1.00
N107   N     0.50000   0.25001   0.12934   0.00000  Uiso   1.00
N108   N     0.50000   0.24999   0.37065   0.00000  Uiso   1.00
O109   O     0.50000   0.18573   0.29071   0.00000  Uiso   1.00
O110   O     0.50000   0.31428   0.20928   0.00000  Uiso   1.00
O111   O     0.50000   0.18573   0.20928   0.00000  Uiso   1.00
O112   O     0.50000   0.31427   0.29072   0.00000  Uiso   1.00
O113   O     0.42495   0.25000   0.28132   0.00000  Uiso   1.00
O114   O     0.57505   0.25001   0.21868   0.00000  Uiso   1.00
O115   O     0.42495   0.25000   0.19988   0.00000  Uiso   1.00
O116   O     0.57505   0.25000   0.30011   0.00000  Uiso   1.00
Br117  Br    0.91189   0.32101   0.14464   0.00000  Uiso   1.00
Br118  Br    0.74913   0.18387   0.35507   0.00000  Uiso   1.00
Br119  Br    0.75460   0.17924   0.12435   0.00000  Uiso   1.00
Br120  Br    0.91857   0.31508   0.37698   0.00000  Uiso   1.00
C121   C     0.83351   0.16506   0.24993   0.00000  Uiso   1.00
C122   C     0.86943   0.27570   0.45077   0.00000  Uiso   1.00
C123   C     0.83328   0.25002   0.02732   0.00000  Uiso   1.00
C124   C     0.83328   0.25003   0.47278   0.00000  Uiso   1.00
C125   C     0.73468   0.24994   0.23762   0.00000  Uiso   1.00
C126   C     0.93199   0.25022   0.26237   0.00000  Uiso   1.00
C127   C     0.67932   0.24967   0.23086   0.00000  Uiso   1.00
C128   C     0.98733   0.25078   0.26909   0.00000  Uiso   1.00
C129   C     0.81225   0.04619   0.28286   0.00000  Uiso   1.00
C130   C     0.81494   0.45214   0.20888   0.00000  Uiso   1.00
C131   C     0.81146   0.09212   0.28354   0.00000  Uiso   1.00
C132   C     0.83347   0.33498   0.25004   0.00000  Uiso   1.00
C133   C     0.81381   0.40610   0.20880   0.00000  Uiso   1.00
C134   C     0.83470   0.11683   0.24962   0.00000  Uiso   1.00
C135   C     0.83443   0.38334   0.25009   0.00000  Uiso   1.00
C136   C     0.85939   0.09522   0.21534   0.00000  Uiso   1.00
C137   C     0.85678   0.40706   0.29120   0.00000  Uiso   1.00
C138   C     0.86155   0.04921   0.21529   0.00000  Uiso   1.00
C139   C     0.85932   0.45315   0.29109   0.00000  Uiso   1.00
C140   C     0.83765   0.02445   0.24921   0.00000  Uiso   1.00
C141   C     0.83795   0.47595   0.24975   0.00000  Uiso   1.00
C142   C     0.86430   0.28028   0.05804   0.00000  Uiso   1.00
C143   C     0.79723   0.22427   0.44140   0.00000  Uiso   1.00
C144   C     0.86475   0.27939   0.10826   0.00000  Uiso   1.00
C145   C     0.79834   0.22379   0.39137   0.00000  Uiso   1.00
C146   C     0.80187   0.22066   0.10012   0.00000  Uiso   1.00
C147   C     0.86845   0.27607   0.40046   0.00000  Uiso   1.00
C148   C     0.80227   0.21976   0.04999   0.00000  Uiso   1.00
Cl149  Cl    0.89631   0.02403   0.17370   0.00000  Uiso   1.00
Cl150  Cl    0.89133   0.48101   0.34265   0.00000  Uiso   1.00
Cu151  Cu    0.83333   0.25000   0.29821   0.00000  Uiso   1.00
Cu152  Cu    0.83333   0.25001   0.20178   0.00000  Uiso   1.00
H153   H     0.99267   0.24836   0.19418   0.00000  Uiso   1.00
H154   H     0.76753   0.20405   0.45469   0.00000  Uiso   1.00
H155   H     0.77789   0.19482   0.02971   0.00000  Uiso   1.00
H156   H     0.89923   0.29581   0.47177   0.00000  Uiso   1.00
H157   H     0.67395   0.25225   0.30576   0.00000  Uiso   1.00
H158   H     0.79311   0.02749   0.30870   0.00000  Uiso   1.00
H159   H     0.79773   0.46930   0.17709   0.00000  Uiso   1.00
H160   H     0.79198   0.10819   0.31004   0.00000  Uiso   1.00
H161   H     0.79613   0.38830   0.17677   0.00000  Uiso   1.00
H162   H     0.87803   0.11417   0.18933   0.00000  Uiso   1.00
H163   H     0.87332   0.38986   0.32310   0.00000  Uiso   1.00
H164   H     0.88862   0.30525   0.04408   0.00000  Uiso   1.00
N165   N     0.83333   0.25001   0.12934   0.00000  Uiso   1.00
N166   N     0.83333   0.24999   0.37065   0.00000  Uiso   1.00
O167   O     0.83334   0.18573   0.29071   0.00000  Uiso   1.00
O168   O     0.83333   0.31428   0.20928   0.00000  Uiso   1.00
O169   O     0.83334   0.18573   0.20928   0.00000  Uiso   1.00
O170   O     0.83333   0.31427   0.29072   0.00000  Uiso   1.00
O171   O     0.75828   0.25000   0.28132   0.00000  Uiso   1.00
O172   O     0.90839   0.25001   0.21868   0.00000  Uiso   1.00
O173   O     0.75828   0.25000   0.19988   0.00000  Uiso   1.00
O174   O     0.90839   0.25000   0.30011   0.00000  Uiso   1.00
Br175  Br    0.24523   0.82101   0.14464   0.00000  Uiso   1.00
Br176  Br    0.08247   0.68387   0.35507   0.00000  Uiso   1.00
Br177  Br    0.08794   0.67924   0.12435   0.00000  Uiso   1.00
Br178  Br    0.25191   0.81508   0.37698   0.00000  Uiso   1.00
C179   C     0.16685   0.66506   0.24993   0.00000  Uiso   1.00
C180   C     0.20276   0.77570   0.45077   0.00000  Uiso   1.00
C181   C     0.16662   0.75002   0.02732   0.00000  Uiso   1.00
C182   C     0.16662   0.75003   0.47278   0.00000  Uiso   1.00
C183   C     0.06801   0.74994   0.23762   0.00000  Uiso   1.00
C184   C     0.26532   0.75022   0.26237   0.00000  Uiso   1.00
C185   C     0.01266   0.74967   0.23086   0.00000  Uiso   1.00
C186   C     0.32066   0.75078   0.26909   0.00000  Uiso   1.00
C187   C     0.14559   0.54619   0.28286   0.00000  Uiso   1.00
C188   C     0.14828   0.95214   0.20888   0.00000  Uiso   1.00
C189   C     0.14480   0.59212   0.28354   0.00000  Uiso   1.00
C190   C     0.16681   0.83498   0.25004   0.00000  Uiso   1.00
C191   C     0.14715   0.90610   0.20880   0.00000  Uiso   1.00
C192   C     0.16804   0.61683   0.24962   0.00000  Uiso   1.00
C193   C     0.16776   0.88334   0.25009   0.00000  Uiso   1.00
C194   C     0.19272   0.59522   0.21534   0.00000  Uiso   1.00
C195   C     0.19012   0.90706   0.29120   0.00000  Uiso   1.00
C196   C     0.19488   0.54921   0.21529   0.00000  Uiso   1.00
C197   C     0.19265   0.95315   0.29109   0.00000  Uiso   1.00
C198   C     0.17099   0.52445   0.24921   0.00000  Uiso   1.00
C199   C     0.17128   0.97595   0.24975   0.00000  Uiso   1.00
C200   C     0.19763   0.78028   0.05804   0.00000  Uiso   1.00
C201   C     0.13057   0.72427   0.44140   0.00000  Uiso   1.00
C202   C     0.19808   0.77939   0.10826   0.00000  Uiso   1.00
C203   C     0.13167   0.72379   0.39137   0.00000  Uiso   1.00
C204   C     0.13520   0.72066   0.10012   0.00000  Uiso   1.00
C205   C     0.20178   0.77607   0.40046   0.00000  Uiso   1.00
C206   C     0.13561   0.71976   0.04999   0.00000  Uiso   1.00
Cl207  Cl    0.22965   0.52403   0.17370   0.00000  Uiso   1.00
Cl208  Cl    0.22466   0.98101   0.34265   0.00000  Uiso   1.00
Cu209  Cu    0.16667   0.75000   0.29821   0.00000  Uiso   1.00
Cu210  Cu    0.16667   0.75001   0.20178   0.00000  Uiso   1.00
H211   H     0.32601   0.74836   0.19418   0.00000  Uiso   1.00
H212   H     0.10086   0.70405   0.45469   0.00000  Uiso   1.00
H213   H     0.11122   0.69482   0.02971   0.00000  Uiso   1.00
H214   H     0.23257   0.79581   0.47177   0.00000  Uiso   1.00
H215   H     0.00729   0.75225   0.30576   0.00000  Uiso   1.00
H216   H     0.12645   0.52749   0.30870   0.00000  Uiso   1.00
H217   H     0.13107   0.96930   0.17709   0.00000  Uiso   1.00
H218   H     0.12531   0.60819   0.31004   0.00000  Uiso   1.00
H219   H     0.12946   0.88830   0.17677   0.00000  Uiso   1.00
H220   H     0.21136   0.61417   0.18933   0.00000  Uiso   1.00
H221   H     0.20665   0.88986   0.32310   0.00000  Uiso   1.00
H222   H     0.22195   0.80525   0.04408   0.00000  Uiso   1.00
N223   N     0.16667   0.75001   0.12934   0.00000  Uiso   1.00
N224   N     0.16667   0.74999   0.37065   0.00000  Uiso   1.00
O225   O     0.16667   0.68573   0.29071   0.00000  Uiso   1.00
O226   O     0.16666   0.81428   0.20928   0.00000  Uiso   1.00
O227   O     0.16667   0.68573   0.20928   0.00000  Uiso   1.00
O228   O     0.16666   0.81427   0.29072   0.00000  Uiso   1.00
O229   O     0.09161   0.75000   0.28132   0.00000  Uiso   1.00
O230   O     0.24172   0.75001   0.21868   0.00000  Uiso   1.00
O231   O     0.09161   0.75000   0.19988   0.00000  Uiso   1.00
O232   O     0.24172   0.75000   0.30011   0.00000  Uiso   1.00
Br233  Br    0.57856   0.82101   0.14464   0.00000  Uiso   1.00
Br234  Br    0.41580   0.68387   0.35507   0.00000  Uiso   1.00
Br235  Br    0.42127   0.67924   0.12435   0.00000  Uiso   1.00
Br236  Br    0.58524   0.81508   0.37698   0.00000  Uiso   1.00
C237   C     0.50018   0.66506   0.24993   0.00000  Uiso   1.00
C238   C     0.53609   0.77570   0.45077   0.00000  Uiso   1.00
C239   C     0.49995   0.75002   0.02732   0.00000  Uiso   1.00
C240   C     0.49995   0.75003   0.47278   0.00000  Uiso   1.00
C241   C     0.40134   0.74994   0.23762   0.00000  Uiso   1.00
C242   C     0.59865   0.75022   0.26237   0.00000  Uiso   1.00
C243   C     0.34599   0.74967   0.23086   0.00000  Uiso   1.00
C244   C     0.65400   0.75078   0.26909   0.00000  Uiso   1.00
C245   C     0.47892   0.54619   0.28286   0.00000  Uiso   1.00
C246   C     0.48161   0.95214   0.20888   0.00000  Uiso   1.00
C247   C     0.47813   0.59212   0.28354   0.00000  Uiso   1.00
C248   C     0.50014   0.83498   0.25004   0.00000  Uiso   1.00
C249   C     0.48048   0.90610   0.20880   0.00000  Uiso   1.00
C250   C     0.50137   0.61683   0.24962   0.00000  Uiso   1.00
C251   C     0.50109   0.88334   0.25009   0.00000  Uiso   1.00
C252   C     0.52606   0.59522   0.21534   0.00000  Uiso   1.00
C253   C     0.52345   0.90706   0.29120   0.00000  Uiso   1.00
C254   C     0.52822   0.54921   0.21529   0.00000  Uiso   1.00
C255   C     0.52599   0.95315   0.29109   0.00000  Uiso   1.00
C256   C     0.50432   0.52445   0.24921   0.00000  Uiso   1.00
C257   C     0.50462   0.97595   0.24975   0.00000  Uiso   1.00
C258   C     0.53096   0.78028   0.05804   0.00000  Uiso   1.00
C259   C     0.46390   0.72427   0.44140   0.00000  Uiso   1.00
C260   C     0.53142   0.77939   0.10826   0.00000  Uiso   1.00
C261   C     0.46500   0.72379   0.39137   0.00000  Uiso   1.00
C262   C     0.46854   0.72066   0.10012   0.00000  Uiso   1.00
C263   C     0.53511   0.77607   0.40046   0.00000  Uiso   1.00
C264   C     0.46894   0.71976   0.04999   0.00000  Uiso   1.00
Cl265  Cl    0.56298   0.52403   0.17370   0.00000  Uiso   1.00
Cl266  Cl    0.55800   0.98101   0.34265   0.00000  Uiso   1.00
Cu267  Cu    0.50000   0.75000   0.29821   0.00000  Uiso   1.00
Cu268  Cu    0.50000   0.75001   0.20178   0.00000  Uiso   1.00
H269   H     0.65934   0.74836   0.19418   0.00000  Uiso   1.00
H270   H     0.43420   0.70405   0.45469   0.00000  Uiso   1.00
H271   H     0.44455   0.69482   0.02971   0.00000  Uiso   1.00
H272   H     0.56590   0.79581   0.47177   0.00000  Uiso   1.00
H273   H     0.34062   0.75225   0.30576   0.00000  Uiso   1.00
H274   H     0.45978   0.52749   0.30870   0.00000  Uiso   1.00
H275   H     0.46440   0.96930   0.17709   0.00000  Uiso   1.00
H276   H     0.45865   0.60819   0.31004   0.00000  Uiso   1.00
H277   H     0.46280   0.88830   0.17677   0.00000  Uiso   1.00
H278   H     0.54469   0.61417   0.18933   0.00000  Uiso   1.00
H279   H     0.53999   0.88986   0.32310   0.00000  Uiso   1.00
H280   H     0.55528   0.80525   0.04408   0.00000  Uiso   1.00
N281   N     0.50000   0.75001   0.12934   0.00000  Uiso   1.00
N282   N     0.50000   0.74999   0.37065   0.00000  Uiso   1.00
O283   O     0.50000   0.68573   0.29071   0.00000  Uiso   1.00
O284   O     0.50000   0.81428   0.20928   0.00000  Uiso   1.00
O285   O     0.50000   0.68573   0.20928   0.00000  Uiso   1.00
O286   O     0.50000   0.81427   0.29072   0.00000  Uiso   1.00
O287   O     0.42495   0.75000   0.28132   0.00000  Uiso   1.00
O288   O     0.57505   0.75001   0.21868   0.00000  Uiso   1.00
O289   O     0.42495   0.75000   0.19988   0.00000  Uiso   1.00
O290   O     0.57505   0.75000   0.30011   0.00000  Uiso   1.00
Br291  Br    0.91189   0.82101   0.14464   0.00000  Uiso   1.00
Br292  Br    0.74913   0.68387   0.35507   0.00000  Uiso   1.00
Br293  Br    0.75460   0.67924   0.12435   0.00000  Uiso   1.00
Br294  Br    0.91857   0.81508   0.37698   0.00000  Uiso   1.00
C295   C     0.83351   0.66506   0.24993   0.00000  Uiso   1.00
C296   C     0.86943   0.77570   0.45077   0.00000  Uiso   1.00
C297   C     0.83328   0.75002   0.02732   0.00000  Uiso   1.00
C298   C     0.83328   0.75003   0.47278   0.00000  Uiso   1.00
C299   C     0.73468   0.74994   0.23762   0.00000  Uiso   1.00
C300   C     0.93199   0.75022   0.26237   0.00000  Uiso   1.00
C301   C     0.67932   0.74967   0.23086   0.00000  Uiso   1.00
C302   C     0.98733   0.75078   0.26909   0.00000  Uiso   1.00
C303   C     0.81225   0.54619   0.28286   0.00000  Uiso   1.00
C304   C     0.81494   0.95214   0.20888   0.00000  Uiso   1.00
C305   C     0.81146   0.59212   0.28354   0.00000  Uiso   1.00
C306   C     0.83347   0.83498   0.25004   0.00000  Uiso   1.00
C307   C     0.81381   0.90610   0.20880   0.00000  Uiso   1.00
C308   C     0.83470   0.61683   0.24962   0.00000  Uiso   1.00
C309   C     0.83443   0.88334   0.25009   0.00000  Uiso   1.00
C310   C     0.85939   0.59522   0.21534   0.00000  Uiso   1.00
C311   C     0.85678   0.90706   0.29120   0.00000  Uiso   1.00
C312   C     0.86155   0.54921   0.21529   0.00000  Uiso   1.00
C313   C     0.85932   0.95315   0.29109   0.00000  Uiso   1.00
C314   C     0.83765   0.52445   0.24921   0.00000  Uiso   1.00
C315   C     0.83795   0.97595   0.24975   0.00000  Uiso   1.00
C316   C     0.86430   0.78028   0.05804   0.00000  Uiso   1.00
C317   C     0.79723   0.72427   0.44140   0.00000  Uiso   1.00
C318   C     0.86475   0.77939   0.10826   0.00000  Uiso   1.00
C319   C     0.79834   0.72379   0.39137   0.00000  Uiso   1.00
C320   C     0.80187   0.72066   0.10012   0.00000  Uiso   1.00
C321   C     0.86845   0.77607   0.40046   0.00000  Uiso   1.00
C322   C     0.80227   0.71976   0.04999   0.00000  Uiso   1.00
Cl323  Cl    0.89631   0.52403   0.17370   0.00000  Uiso   1.00
Cl324  Cl    0.89133   0.98101   0.34265   0.00000  Uiso   1.00
Cu325  Cu    0.83333   0.75000   0.29821   0.00000  Uiso   1.00
Cu326  Cu    0.83333   0.75001   0.20178   0.00000  Uiso   1.00
H327   H     0.99267   0.74836   0.19418   0.00000  Uiso   1.00
H328   H     0.76753   0.70405   0.45469   0.00000  Uiso   1.00
H329   H     0.77789   0.69482   0.02971   0.00000  Uiso   1.00
H330   H     0.89923   0.79581   0.47177   0.00000  Uiso   1.00
H331   H     0.67395   0.75225   0.30576   0.00000  Uiso   1.00
H332   H     0.79311   0.52749   0.30870   0.00000  Uiso   1.00
H333   H     0.79773   0.96930   0.17709   0.00000  Uiso   1.00
H334   H     0.79198   0.60819   0.31004   0.00000  Uiso   1.00
H335   H     0.79613   0.88830   0.17677   0.00000  Uiso   1.00
H336   H     0.87803   0.61417   0.18933   0.00000  Uiso   1.00
H337   H     0.87332   0.88986   0.32310   0.00000  Uiso   1.00
H338   H     0.88862   0.80525   0.04408   0.00000  Uiso   1.00
N339   N     0.83333   0.75001   0.12934   0.00000  Uiso   1.00
N340   N     0.83333   0.74999   0.37065   0.00000  Uiso   1.00
O341   O     0.83334   0.68573   0.29071   0.00000  Uiso   1.00
O342   O     0.83333   0.81428   0.20928   0.00000  Uiso   1.00
O343   O     0.83334   0.68573   0.20928   0.00000  Uiso   1.00
O344   O     0.83333   0.81427   0.29072   0.00000  Uiso   1.00
O345   O     0.75828   0.75000   0.28132   0.00000  Uiso   1.00
O346   O     0.90839   0.75001   0.21868   0.00000  Uiso   1.00
O347   O     0.75828   0.75000   0.19988   0.00000  Uiso   1.00
O348   O     0.90839   0.75000   0.30011   0.00000  Uiso   1.00
Br349  Br    0.24523   0.32101   0.64464   0.00000  Uiso   1.00
Br350  Br    0.08247   0.18387   0.85507   0.00000  Uiso   1.00
Br351  Br    0.08794   0.17924   0.62435   0.00000  Uiso   1.00
Br352  Br    0.25191   0.31508   0.87698   0.00000  Uiso   1.00
C353   C     0.16685   0.16506   0.74993   0.00000  Uiso   1.00
C354   C     0.20276   0.27570   0.95077   0.00000  Uiso   1.00
C355   C     0.16662   0.25002   0.52732   0.00000  Uiso   1.00
C356   C     0.16662   0.25003   0.97278   0.00000  Uiso   1.00
C357   C     0.06801   0.24994   0.73762   0.00000  Uiso   1.00
C358   C     0.26532   0.25022   0.76237   0.00000  Uiso   1.00
C359   C     0.01266   0.24967   0.73086   0.00000  Uiso   1.00
C360   C     0.32066   0.25078   0.76909   0.00000  Uiso   1.00
C361   C     0.14559   0.04619   0.78286   0.00000  Uiso   1.00
C362   C     0.14828   0.45214   0.70888   0.00000  Uiso   1.00
C363   C     0.14480   0.09212   0.78354   0.00000  Uiso   1.00
C364   C     0.16681   0.33498   0.75004   0.00000  Uiso   1.00
C365   C     0.14715   0.40610   0.70880   0.00000  Uiso   1.00
C366   C     0.16804   0.11683   0.74962   0.00000  Uiso   1.00
C367   C     0.16776   0.38334   0.75009   0.00000  Uiso   1.00
C368   C     0.19272   0.09522   0.71534   0.00000  Uiso   1.00
C369   C     0.19012   0.40706   0.79120   0.00000  Uiso   1.00
C370   C     0.19488   0.04921   0.71529   0.00000  Uiso   1.00
C371   C     0.19265   0.45315   0.79109   0.00000  Uiso   1.00
C372   C     0.17099   0.02445   0.74921   0.00000  Uiso   1.00
C373   C     0.17128   0.47595   0.74975   0.00000  Uiso   1.00
C374   C     0.19763   0.28028   0.55804   0.00000  Uiso   1.00
C375   C     0.13057   0.22427   0.94140   0.00000  Uiso   1.00
C376   C     0.19808   0.27939   0.60826   0.00000  Uiso   1.00
C377   C     0.13167   0.22379   0.89137   0.00000  Uiso   1.00
C378   C     0.13520   0.22066   0.60012   0.00000  Uiso   1.00
C379   C     0.20178   0.27607   0.90046   0.00000  Uiso   1.00
C380   C     0.13561   0.21976   0.54999   0.00000  Uiso   1.00
Cl381  Cl    0.22965   0.02403   0.67370   0.00000  Uiso   1.00
Cl382  Cl    0.22466   0.48101   0.84265   0.00000  Uiso   1.00
Cu383  Cu    0.16667   0.25000   0.79821   0.00000  Uiso   1.00
Cu384  Cu    0.16667   0.25001   0.70178   0.00000  Uiso   1.00
H385   H     0.32601   0.24836   0.69418   0.00000  Uiso   1.00
H386   H     0.10086   0.20405   0.95469   0.00000  Uiso   1.00
H387   H     0.11122   0.19482   0.52971   0.00000  Uiso   1.00
H388   H     0.23257   0.29581   0.97177   0.00000  Uiso   1.00
H389   H     0.00729   0.25225   0.80576   0.00000  Uiso   1.00
H390   H     0.12645   0.02749   0.80870   0.00000  Uiso   1.00
H391   H     0.13107   0.46930   0.67709   0.00000  Uiso   1.00
H392   H     0.12531   0.10819   0.81004   0.00000  Uiso   1.00
H393   H     0.12946   0.38830   0.67677   0.00000  Uiso   1.00
H394   H     0.21136   0.11417   0.68933   0.00000  Uiso   1.00
H395   H     0.20665   0.38986   0.82310   0.00000  Uiso   1.00
H396   H     0.22195   0.30525   0.54408   0.00000  Uiso   1.00
N397   N     0.16667   0.25001   0.62934   0.00000  Uiso   1.00
N398   N     0.16667   0.24999   0.87065   0.00000  Uiso   1.00
O399   O     0.16667   0.18573   0.79071   0.00000  Uiso   1.00
O400   O     0.16666   0.31428   0.70928   0.00000  Uiso   1.00
O401   O     0.16667   0.18573   0.70928   0.00000  Uiso   1.00
O402   O     0.16666   0.31427   0.79072   0.00000  Uiso   1.00
O403   O     0.09161   0.25000   0.78132   0.00000  Uiso   1.00
O404   O     0.24172   0.25001   0.71868   0.00000  Uiso   1.00
O405   O     0.09161   0.25000   0.69988   0.00000  Uiso   1.00
O406   O     0.24172   0.25000   0.80011   0.00000  Uiso   1.00
Br407  Br    0.57856   0.32101   0.64464   0.00000  Uiso   1.00
Br408  Br    0.41580   0.18387   0.85507   0.00000  Uiso   1.00
Br409  Br    0.42127   0.17924   0.62435   0.00000  Uiso   1.00
Br410  Br    0.58524   0.31508   0.87698   0.00000  Uiso   1.00
C411   C     0.50018   0.16506   0.74993   0.00000  Uiso   1.00
C412   C     0.53609   0.27570   0.95077   0.00000  Uiso   1.00
C413   C     0.49995   0.25002   0.52732   0.00000  Uiso   1.00
C414   C     0.49995   0.25003   0.97278   0.00000  Uiso   1.00
C415   C     0.40134   0.24994   0.73762   0.00000  Uiso   1.00
C416   C     0.59865   0.25022   0.76237   0.00000  Uiso   1.00
C417   C     0.34599   0.24967   0.73086   0.00000  Uiso   1.00
C418   C     0.65400   0.25078   0.76909   0.00000  Uiso   1.00
C419   C     0.47892   0.04619   0.78286   0.00000  Uiso   1.00
C420   C     0.48161   0.45214   0.70888   0.00000  Uiso   1.00
C421   C     0.47813   0.09212   0.78354   0.00000  Uiso   1.00
C422   C     0.50014   0.33498   0.75004   0.00000  Uiso   1.00
C423   C     0.48048   0.40610   0.70880   0.00000  Uiso   1.00
C424   C     0.50137   0.11683   0.74962   0.00000  Uiso   1.00
C425   C     0.50109   0.38334   0.75009   0.00000  Uiso   1.00
C426   C     0.52606   0.09522   0.71534   0.00000  Uiso   1.00
C427   C     0.52345   0.40706   0.79120   0.00000  Uiso   1.00
C428   C     0.52822   0.04921   0.71529   0.00000  Uiso   1.00
C429   C     0.52599   0.45315   0.79109   0.00000  Uiso   1.00
C430   C     0.50432   0.02445   0.74921   0.00000  Uiso   1.00
C431   C     0.50462   0.47595   0.74975   0.00000  Uiso   1.00
C432   C     0.53096   0.28028   0.55804   0.00000  Uiso   1.00
C433   C     0.46390   0.22427   0.94140   0.00000  Uiso   1.00
C434   C     0.53142   0.27939   0.60826   0.00000  Uiso   1.00
C435   C     0.46500   0.22379   0.89137   0.00000  Uiso   1.00
C436   C     0.46854   0.22066   0.60012   0.00000  Uiso   1.00
C437   C     0.53511   0.27607   0.90046   0.00000  Uiso   1.00
C438   C     0.46894   0.21976   0.54999   0.00000  Uiso   1.00
Cl439  Cl    0.56298   0.02403   0.67370   0.00000  Uiso   1.00
Cl440  Cl    0.55800   0.48101   0.84265   0.00000  Uiso   1.00
Cu441  Cu    0.50000   0.25000   0.79821   0.00000  Uiso   1.00
Cu442  Cu    0.50000   0.25001   0.70178   0.00000  Uiso   1.00
H443   H     0.65934   0.24836   0.69418   0.00000  Uiso   1.00
H444   H     0.43420   0.20405   0.95469   0.00000  Uiso   1.00
H445   H     0.44455   0.19482   0.52971   0.00000  Uiso   1.00
H446   H     0.56590   0.29581   0.97177   0.00000  Uiso   1.00
H447   H     0.34062   0.25225   0.80576   0.00000  Uiso   1.00
H448   H     0.45978   0.02749   0.80870   0.00000  Uiso   1.00
H449   H     0.46440   0.46930   0.67709   0.00000  Uiso   1.00
H450   H     0.45865   0.10819   0.81004   0.00000  Uiso   1.00
H451   H     0.46280   0.38830   0.67677   0.00000  Uiso   1.00
H452   H     0.54469   0.11417   0.68933   0.00000  Uiso   1.00
H453   H     0.53999   0.38986   0.82310   0.00000  Uiso   1.00
H454   H     0.55528   0.30525   0.54408   0.00000  Uiso   1.00
N455   N     0.50000   0.25001   0.62934   0.00000  Uiso   1.00
N456   N     0.50000   0.24999   0.87065   0.00000  Uiso   1.00
O457   O     0.50000   0.18573   0.79071   0.00000  Uiso   1.00
O458   O     0.50000   0.31428   0.70928   0.00000  Uiso   1.00
O459   O     0.50000   0.18573   0.70928   0.00000  Uiso   1.00
O460   O     0.50000   0.31427   0.79072   0.00000  Uiso   1.00
O461   O     0.42495   0.25000   0.78132   0.00000  Uiso   1.00
O462   O     0.57505   0.25001   0.71868   0.00000  Uiso   1.00
O463   O     0.42495   0.25000   0.69988   0.00000  Uiso   1.00
O464   O     0.57505   0.25000   0.80011   0.00000  Uiso   1.00
Br465  Br    0.91189   0.32101   0.64464   0.00000  Uiso   1.00
Br466  Br    0.74913   0.18387   0.85507   0.00000  Uiso   1.00
Br467  Br    0.75460   0.17924   0.62435   0.00000  Uiso   1.00
Br468  Br    0.91857   0.31508   0.87698   0.00000  Uiso   1.00
C469   C     0.83351   0.16506   0.74993   0.00000  Uiso   1.00
C470   C     0.86943   0.27570   0.95077   0.00000  Uiso   1.00
C471   C     0.83328   0.25002   0.52732   0.00000  Uiso   1.00
C472   C     0.83328   0.25003   0.97278   0.00000  Uiso   1.00
C473   C     0.73468   0.24994   0.73762   0.00000  Uiso   1.00
C474   C     0.93199   0.25022   0.76237   0.00000  Uiso   1.00
C475   C     0.67932   0.24967   0.73086   0.00000  Uiso   1.00
C476   C     0.98733   0.25078   0.76909   0.00000  Uiso   1.00
C477   C     0.81225   0.04619   0.78286   0.00000  Uiso   1.00
C478   C     0.81494   0.45214   0.70888   0.00000  Uiso   1.00
C479   C     0.81146   0.09212   0.78354   0.00000  Uiso   1.00
C480   C     0.83347   0.33498   0.75004   0.00000  Uiso   1.00
C481   C     0.81381   0.40610   0.70880   0.00000  Uiso   1.00
C482   C     0.83470   0.11683   0.74962   0.00000  Uiso   1.00
C483   C     0.83443   0.38334   0.75009   0.00000  Uiso   1.00
C484   C     0.85939   0.09522   0.71534   0.00000  Uiso   1.00
C485   C     0.85678   0.40706   0.79120   0.00000  Uiso   1.00
C486   C     0.86155   0.04921   0.71529   0.00000  Uiso   1.00
C487   C     0.85932   0.45315   0.79109   0.00000  Uiso   1.00
C488   C     0.83765   0.02445   0.74921   0.00000  Uiso   1.00
C489   C     0.83795   0.47595   0.74975   0.00000  Uiso   1.00
C490   C     0.86430   0.28028   0.55804   0.00000  Uiso   1.00
C491   C     0.79723   0.22427   0.94140   0.00000  Uiso   1.00
C492   C     0.86475   0.27939   0.60826   0.00000  Uiso   1.00
C493   C     0.79834   0.22379   0.89137   0.00000  Uiso   1.00
C494   C     0.80187   0.22066   0.60012   0.00000  Uiso   1.00
C495   C     0.86845   0.27607   0.90046   0.00000  Uiso   1.00
C496   C     0.80227   0.21976   0.54999   0.00000  Uiso   1.00
Cl497  Cl    0.89631   0.02403   0.67370   0.00000  Uiso   1.00
Cl498  Cl    0.89133   0.48101   0.84265   0.00000  Uiso   1.00
Cu499  Cu    0.83333   0.25000   0.79821   0.00000  Uiso   1.00
Cu500  Cu    0.83333   0.25001   0.70178   0.00000  Uiso   1.00
H501   H     0.99267   0.24836   0.69418   0.00000  Uiso   1.00
H502   H     0.76753   0.20405   0.95469   0.00000  Uiso   1.00
H503   H     0.77789   0.19482   0.52971   0.00000  Uiso   1.00
H504   H     0.89923   0.29581   0.97177   0.00000  Uiso   1.00
H505   H     0.67395   0.25225   0.80576   0.00000  Uiso   1.00
H506   H     0.79311   0.02749   0.80870   0.00000  Uiso   1.00
H507   H     0.79773   0.46930   0.67709   0.00000  Uiso   1.00
H508   H     0.79198   0.10819   0.81004   0.00000  Uiso   1.00
H509   H     0.79613   0.38830   0.67677   0.00000  Uiso   1.00
H510   H     0.87803   0.11417   0.68933   0.00000  Uiso   1.00
H511   H     0.87332   0.38986   0.82310   0.00000  Uiso   1.00
H512   H     0.88862   0.30525   0.54408   0.00000  Uiso   1.00
N513   N     0.83333   0.25001   0.62934   0.00000  Uiso   1.00
N514   N     0.83333   0.24999   0.87065   0.00000  Uiso   1.00
O515   O     0.83334   0.18573   0.79071   0.00000  Uiso   1.00
O516   O     0.83333   0.31428   0.70928   0.00000  Uiso   1.00
O517   O     0.83334   0.18573   0.70928   0.00000  Uiso   1.00
O518   O     0.83333   0.31427   0.79072   0.00000  Uiso   1.00
O519   O     0.75828   0.25000   0.78132   0.00000  Uiso   1.00
O520   O     0.90839   0.25001   0.71868   0.00000  Uiso   1.00
O521   O     0.75828   0.25000   0.69988   0.00000  Uiso   1.00
O522   O     0.90839   0.25000   0.80011   0.00000  Uiso   1.00
Br523  Br    0.24523   0.82101   0.64464   0.00000  Uiso   1.00
Br524  Br    0.08247   0.68387   0.85507   0.00000  Uiso   1.00
Br525  Br    0.08794   0.67924   0.62435   0.00000  Uiso   1.00
Br526  Br    0.25191   0.81508   0.87698   0.00000  Uiso   1.00
C527   C     0.16685   0.66506   0.74993   0.00000  Uiso   1.00
C528   C     0.20276   0.77570   0.95077   0.00000  Uiso   1.00
C529   C     0.16662   0.75002   0.52732   0.00000  Uiso   1.00
C530   C     0.16662   0.75003   0.97278   0.00000  Uiso   1.00
C531   C     0.06801   0.74994   0.73762   0.00000  Uiso   1.00
C532   C     0.26532   0.75022   0.76237   0.00000  Uiso   1.00
C533   C     0.01266   0.74967   0.73086   0.00000  Uiso   1.00
C534   C     0.32066   0.75078   0.76909   0.00000  Uiso   1.00
C535   C     0.14559   0.54619   0.78286   0.00000  Uiso   1.00
C536   C     0.14828   0.95214   0.70888   0.00000  Uiso   1.00
C537   C     0.14480   0.59212   0.78354   0.00000  Uiso   1.00
C538   C     0.16681   0.83498   0.75004   0.00000  Uiso   1.00
C539   C     0.14715   0.90610   0.70880   0.00000  Uiso   1.00
C540   C     0.16804   0.61683   0.74962   0.00000  Uiso   1.00
C541   C     0.16776   0.88334   0.75009   0.00000  Uiso   1.00
C542   C     0.19272   0.59522   0.71534   0.00000  Uiso   1.00
C543   C     0.19012   0.90706   0.79120   0.00000  Uiso   1.00
C544   C     0.19488   0.54921   0.71529   0.00000  Uiso   1.00
C545   C     0.19265   0.95315   0.79109   0.00000  Uiso   1.00
C546   C     0.17099   0.52445   0.74921   0.00000  Uiso   1.00
C547   C     0.17128   0.97595   0.74975   0.00000  Uiso   1.00
C548   C     0.19763   0.78028   0.55804   0.00000  Uiso   1.00
C549   C     0.13057   0.72427   0.94140   0.00000  Uiso   1.00
C550   C     0.19808   0.77939   0.60826   0.00000  Uiso   1.00
C551   C     0.13167   0.72379   0.89137   0.00000  Uiso   1.00
C552   C     0.13520   0.72066   0.60012   0.00000  Uiso   1.00
C553   C     0.20178   0.77607   0.90046   0.00000  Uiso   1.00
C554   C     0.13561   0.71976   0.54999   0.00000  Uiso   1.00
Cl555  Cl    0.22965   0.52403   0.67370   0.00000  Uiso   1.00
Cl556  Cl    0.22466   0.98101   0.84265   0.00000  Uiso   1.00
Cu557  Cu    0.16667   0.75000   0.79821   0.00000  Uiso   1.00
Cu558  Cu    0.16667   0.75001   0.70178   0.00000  Uiso   1.00
H559   H     0.32601   0.74836   0.69418   0.00000  Uiso   1.00
H560   H     0.10086   0.70405   0.95469   0.00000  Uiso   1.00
H561   H     0.11122   0.69482   0.52971   0.00000  Uiso   1.00
H562   H     0.23257   0.79581   0.97177   0.00000  Uiso   1.00
H563   H     0.00729   0.75225   0.80576   0.00000  Uiso   1.00
H564   H     0.12645   0.52749   0.80870   0.00000  Uiso   1.00
H565   H     0.13107   0.96930   0.67709   0.00000  Uiso   1.00
H566   H     0.12531   0.60819   0.81004   0.00000  Uiso   1.00
H567   H     0.12946   0.88830   0.67677   0.00000  Uiso   1.00
H568   H     0.21136   0.61417   0.68933   0.00000  Uiso   1.00
H569   H     0.20665   0.88986   0.82310   0.00000  Uiso   1.00
H570   H     0.22195   0.80525   0.54408   0.00000  Uiso   1.00
N571   N     0.16667   0.75001   0.62934   0.00000  Uiso   1.00
N572   N     0.16667   0.74999   0.87065   0.00000  Uiso   1.00
O573   O     0.16667   0.68573   0.79071   0.00000  Uiso   1.00
O574   O     0.16666   0.81428   0.70928   0.00000  Uiso   1.00
O575   O     0.16667   0.68573   0.70928   0.00000  Uiso   1.00
O576   O     0.16666   0.81427   0.79072   0.00000  Uiso   1.00
O577   O     0.09161   0.75000   0.78132   0.00000  Uiso   1.00
O578   O     0.24172   0.75001   0.71868   0.00000  Uiso   1.00
O579   O     0.09161   0.75000   0.69988   0.00000  Uiso   1.00
O580   O     0.24172   0.75000   0.80011   0.00000  Uiso   1.00
Br581  Br    0.57856   0.82101   0.64464   0.00000  Uiso   1.00
Br582  Br    0.41580   0.68387   0.85507   0.00000  Uiso   1.00
Br583  Br    0.42127   0.67924   0.62435   0.00000  Uiso   1.00
Br584  Br    0.58524   0.81508   0.87698   0.00000  Uiso   1.00
C585   C     0.50018   0.66506   0.74993   0.00000  Uiso   1.00
C586   C     0.53609   0.77570   0.95077   0.00000  Uiso   1.00
C587   C     0.49995   0.75002   0.52732   0.00000  Uiso   1.00
C588   C     0.49995   0.75003   0.97278   0.00000  Uiso   1.00
C589   C     0.40134   0.74994   0.73762   0.00000  Uiso   1.00
C590   C     0.59865   0.75022   0.76237   0.00000  Uiso   1.00
C591   C     0.34599   0.74967   0.73086   0.00000  Uiso   1.00
C592   C     0.65400   0.75078   0.76909   0.00000  Uiso   1.00
C593   C     0.47892   0.54619   0.78286   0.00000  Uiso   1.00
C594   C     0.48161   0.95214   0.70888   0.00000  Uiso   1.00
C595   C     0.47813   0.59212   0.78354   0.00000  Uiso   1.00
C596   C     0.50014   0.83498   0.75004   0.00000  Uiso   1.00
C597   C     0.48048   0.90610   0.70880   0.00000  Uiso   1.00
C598   C     0.50137   0.61683   0.74962   0.00000  Uiso   1.00
C599   C     0.50109   0.88334   0.75009   0.00000  Uiso   1.00
C600   C     0.52606   0.59522   0.71534   0.00000  Uiso   1.00
C601   C     0.52345   0.90706   0.79120   0.00000  Uiso   1.00
C602   C     0.52822   0.54921   0.71529   0.00000  Uiso   1.00
C603   C     0.52599   0.95315   0.79109   0.00000  Uiso   1.00
C604   C     0.50432   0.52445   0.74921   0.00000  Uiso   1.00
C605   C     0.50462   0.97595   0.74975   0.00000  Uiso   1.00
C606   C     0.53096   0.78028   0.55804   0.00000  Uiso   1.00
C607   C     0.46390   0.72427   0.94140   0.00000  Uiso   1.00
C608   C     0.53142   0.77939   0.60826   0.00000  Uiso   1.00
C609   C     0.46500   0.72379   0.89137   0.00000  Uiso   1.00
C610   C     0.46854   0.72066   0.60012   0.00000  Uiso   1.00
C611   C     0.53511   0.77607   0.90046   0.00000  Uiso   1.00
C612   C     0.46894   0.71976   0.54999   0.00000  Uiso   1.00
Cl613  Cl    0.56298   0.52403   0.67370   0.00000  Uiso   1.00
Cl614  Cl    0.55800   0.98101   0.84265   0.00000  Uiso   1.00
Cu615  Cu    0.50000   0.75000   0.79821   0.00000  Uiso   1.00
Cu616  Cu    0.50000   0.75001   0.70178   0.00000  Uiso   1.00
H617   H     0.65934   0.74836   0.69418   0.00000  Uiso   1.00
H618   H     0.43420   0.70405   0.95469   0.00000  Uiso   1.00
H619   H     0.44455   0.69482   0.52971   0.00000  Uiso   1.00
H620   H     0.56590   0.79581   0.97177   0.00000  Uiso   1.00
H621   H     0.34062   0.75225   0.80576   0.00000  Uiso   1.00
H622   H     0.45978   0.52749   0.80870   0.00000  Uiso   1.00
H623   H     0.46440   0.96930   0.67709   0.00000  Uiso   1.00
H624   H     0.45865   0.60819   0.81004   0.00000  Uiso   1.00
H625   H     0.46280   0.88830   0.67677   0.00000  Uiso   1.00
H626   H     0.54469   0.61417   0.68933   0.00000  Uiso   1.00
H627   H     0.53999   0.88986   0.82310   0.00000  Uiso   1.00
H628   H     0.55528   0.80525   0.54408   0.00000  Uiso   1.00
N629   N     0.50000   0.75001   0.62934   0.00000  Uiso   1.00
N630   N     0.50000   0.74999   0.87065   0.00000  Uiso   1.00
O631   O     0.50000   0.68573   0.79071   0.00000  Uiso   1.00
O632   O     0.50000   0.81428   0.70928   0.00000  Uiso   1.00
O633   O     0.50000   0.68573   0.70928   0.00000  Uiso   1.00
O634   O     0.50000   0.81427   0.79072   0.00000  Uiso   1.00
O635   O     0.42495   0.75000   0.78132   0.00000  Uiso   1.00
O636   O     0.57505   0.75001   0.71868   0.00000  Uiso   1.00
O637   O     0.42495   0.75000   0.69988   0.00000  Uiso   1.00
O638   O     0.57505   0.75000   0.80011   0.00000  Uiso   1.00
Br639  Br    0.91189   0.82101   0.64464   0.00000  Uiso   1.00
Br640  Br    0.74913   0.68387   0.85507   0.00000  Uiso   1.00
Br641  Br    0.75460   0.67924   0.62435   0.00000  Uiso   1.00
Br642  Br    0.91857   0.81508   0.87698   0.00000  Uiso   1.00
C643   C     0.83351   0.66506   0.74993   0.00000  Uiso   1.00
C644   C     0.86943   0.77570   0.95077   0.00000  Uiso   1.00
C645   C     0.83328   0.75002   0.52732   0.00000  Uiso   1.00
C646   C     0.83328   0.75003   0.97278   0.00000  Uiso   1.00
C647   C     0.73468   0.74994   0.73762   0.00000  Uiso   1.00
C648   C     0.93199   0.75022   0.76237   0.00000  Uiso   1.00
C649   C     0.67932   0.74967   0.73086   0.00000  Uiso   1.00
C650   C     0.98733   0.75078   0.76909   0.00000  Uiso   1.00
C651   C     0.81225   0.54619   0.78286   0.00000  Uiso   1.00
C652   C     0.81494   0.95214   0.70888   0.00000  Uiso   1.00
C653   C     0.81146   0.59212   0.78354   0.00000  Uiso   1.00
C654   C     0.83347   0.83498   0.75004   0.00000  Uiso   1.00
C655   C     0.81381   0.90610   0.70880   0.00000  Uiso   1.00
C656   C     0.83470   0.61683   0.74962   0.00000  Uiso   1.00
C657   C     0.83443   0.88334   0.75009   0.00000  Uiso   1.00
C658   C     0.85939   0.59522   0.71534   0.00000  Uiso   1.00
C659   C     0.85678   0.90706   0.79120   0.00000  Uiso   1.00
C660   C     0.86155   0.54921   0.71529   0.00000  Uiso   1.00
C661   C     0.85932   0.95315   0.79109   0.00000  Uiso   1.00
C662   C     0.83765   0.52445   0.74921   0.00000  Uiso   1.00
C663   C     0.83795   0.97595   0.74975   0.00000  Uiso   1.00
C664   C     0.86430   0.78028   0.55804   0.00000  Uiso   1.00
C665   C     0.79723   0.72427   0.94140   0.00000  Uiso   1.00
C666   C     0.86475   0.77939   0.60826   0.00000  Uiso   1.00
C667   C     0.79834   0.72379   0.89137   0.00000  Uiso   1.00
C668   C     0.80187   0.72066   0.60012   0.00000  Uiso   1.00
C669   C     0.86845   0.77607   0.90046   0.00000  Uiso   1.00
C670   C     0.80227   0.71976   0.54999   0.00000  Uiso   1.00
Cl671  Cl    0.89631   0.52403   0.67370   0.00000  Uiso   1.00
Cl672  Cl    0.89133   0.98101   0.84265   0.00000  Uiso   1.00
Cu673  Cu    0.83333   0.75000   0.79821   0.00000  Uiso   1.00
Cu674  Cu    0.83333   0.75001   0.70178   0.00000  Uiso   1.00
H675   H     0.99267   0.74836   0.69418   0.00000  Uiso   1.00
H676   H     0.76753   0.70405   0.95469   0.00000  Uiso   1.00
H677   H     0.77789   0.69482   0.52971   0.00000  Uiso   1.00
H678   H     0.89923   0.79581   0.97177   0.00000  Uiso   1.00
H679   H     0.67395   0.75225   0.80576   0.00000  Uiso   1.00
H680   H     0.79311   0.52749   0.80870   0.00000  Uiso   1.00
H681   H     0.79773   0.96930   0.67709   0.00000  Uiso   1.00
H682   H     0.79198   0.60819   0.81004   0.00000  Uiso   1.00
H683   H     0.79613   0.88830   0.67677   0.00000  Uiso   1.00
H684   H     0.87803   0.61417   0.68933   0.00000  Uiso   1.00
H685   H     0.87332   0.88986   0.82310   0.00000  Uiso   1.00
H686   H     0.88862   0.80525   0.54408   0.00000  Uiso   1.00
N687   N     0.83333   0.75001   0.62934   0.00000  Uiso   1.00
N688   N     0.83333   0.74999   0.87065   0.00000  Uiso   1.00
O689   O     0.83334   0.68573   0.79071   0.00000  Uiso   1.00
O690   O     0.83333   0.81428   0.70928   0.00000  Uiso   1.00
O691   O     0.83334   0.68573   0.70928   0.00000  Uiso   1.00
O692   O     0.83333   0.81427   0.79072   0.00000  Uiso   1.00
O693   O     0.75828   0.75000   0.78132   0.00000  Uiso   1.00
O694   O     0.90839   0.75001   0.71868   0.00000  Uiso   1.00
O695   O     0.75828   0.75000   0.69988   0.00000  Uiso   1.00
O696   O     0.90839   0.75000   0.80011   0.00000  Uiso   1.00
loop_
_geom_bond_atom_site_label_1
_geom_bond_atom_site_label_2
_geom_bond_distance
_geom_bond_site_symmetry_2
_ccdc_geom_bond_type
Br1    C28     1.917   .     S
Br2    C29     1.914   .     S
Br3    C30     1.916   .     S
Br4    C31     1.915   .     S
C5     C18     1.459   .     S
C5     O53     1.299   .     A
C5     O51     1.302   .     A
C6     C31     1.406   .     A
C6     H40     1.077   .     S
C6     C8      1.408   .     A
C7     C26     1.409   .     A
C7     C32     1.409   .     A
C7     C356    1.528   1_554 S
C8     C27     1.408   .     A
C8     C355    1.528   .     S
C9     C11     1.435   .     S
C9     O55     1.293   .     A
C9     O57     1.295   .     A
C10    O56     1.293   .     A
C10    C12     1.434   .     S
C10    O58     1.296   .     A
C11    C128    1.336   1_455 S
C11    H153    1.087   1_455 S
C12    C69     1.336   .     S
C12    H99     1.087   .     S
C13    H42     1.084   .     S
C13    C15     1.389   .     A
C13    C24     1.402   .     A
C14    C17     1.390   .     A
C14    C25     1.402   .     A
C14    H43     1.083   .     S
C15    C18     1.399   .     A
C15    H44     1.081   .     S
C16    O54     1.301   .     A
C16    O52     1.300   .     A
C16    C19     1.460   .     S
C17    C19     1.401   .     A
C17    H45     1.083   .     S
C18    C20     1.402   .     A
C19    C21     1.401   .     A
C20    C22     1.394   .     A
C20    H46     1.084   .     S
C21    C23     1.392   .     A
C21    H47     1.081   .     S
C22    C24     1.409   .     A
C22    Cl33    1.762   .     S
C23    Cl34    1.762   .     S
C23    C25     1.408   .     A
C24    C199    1.466   1_545 S
C25    C198    1.466   .     S
C26    C28     1.406   .     A
C26    H48     1.077   .     S
C27    C29     1.406   .     A
C27    H38     1.077   .     S
C28    N49     1.376   .     A
C29    N50     1.377   .     A
C30    C32     1.406   .     A
C30    N49     1.375   .     A
C31    N50     1.376   .     A
C32    H39     1.077   .     S
Cu35   Cu36    2.701   .     S
Cu35   N50     2.029   .     S
Cu35   O54     1.954   .     S
Cu35   O58     1.957   .     S
Cu35   O51     1.953   .     S
Cu35   O55     1.956   .     S
Cu36   O56     1.956   .     S
Cu36   O52     1.953   .     S
Cu36   O57     1.957   .     S
Cu36   O53     1.954   .     S
Cu36   N49     2.029   .     S
H37    C69     1.087   .     S
H41    C128    1.087   1_455 S
Br59   C86     1.917   .     S
Br60   C87     1.914   .     S
Br61   C88     1.916   .     S
Br62   C89     1.915   .     S
C63    C76     1.459   .     S
C63    O111    1.299   .     A
C63    O109    1.302   .     A
C64    C89     1.406   .     A
C64    H98     1.077   .     S
C64    C66     1.408   .     A
C65    C84     1.409   .     A
C65    C90     1.409   .     A
C65    C414    1.528   1_554 S
C66    C85     1.408   .     A
C66    C413    1.528   .     S
C67    C69     1.435   .     S
C67    O113    1.293   .     A
C67    O115    1.295   .     A
C68    O114    1.293   .     A
C68    C70     1.434   .     S
C68    O116    1.296   .     A
C70    C127    1.336   .     S
C70    H157    1.087   .     S
C71    H100    1.084   .     S
C71    C73     1.389   .     A
C71    C82     1.402   .     A
C72    C75     1.390   .     A
C72    C83     1.402   .     A
C72    H101    1.083   .     S
C73    C76     1.399   .     A
C73    H102    1.081   .     S
C74    O112    1.301   .     A
C74    O110    1.300   .     A
C74    C77     1.460   .     S
C75    C77     1.401   .     A
C75    H103    1.083   .     S
C76    C78     1.402   .     A
C77    C79     1.401   .     A
C78    C80     1.394   .     A
C78    H104    1.084   .     S
C79    C81     1.392   .     A
C79    H105    1.081   .     S
C80    C82     1.409   .     A
C80    Cl91    1.762   .     S
C81    Cl92    1.762   .     S
C81    C83     1.408   .     A
C82    C257    1.466   1_545 S
C83    C256    1.466   .     S
C84    C86     1.406   .     A
C84    H106    1.077   .     S
C85    C87     1.406   .     A
C85    H96     1.077   .     S
C86    N107    1.376   .     A
C87    N108    1.377   .     A
C88    C90     1.406   .     A
C88    N107    1.375   .     A
C89    N108    1.376   .     A
C90    H97     1.077   .     S
Cu93   Cu94    2.701   .     S
Cu93   N108    2.029   .     S
Cu93   O112    1.954   .     S
Cu93   O116    1.957   .     S
Cu93   O109    1.953   .     S
Cu93   O113    1.956   .     S
Cu94   O114    1.956   .     S
Cu94   O110    1.953   .     S
Cu94   O115    1.957   .     S
Cu94   O111    1.954   .     S
Cu94   N107    2.029   .     S
H95    C127    1.087   .     S
Br117  C144    1.917   .     S
Br118  C145    1.914   .     S
Br119  C146    1.916   .     S
Br120  C147    1.915   .     S
C121   C134    1.459   .     S
C121   O169    1.299   .     A
C121   O167    1.302   .     A
C122   C147    1.406   .     A
C122   H156    1.077   .     S
C122   C124    1.408   .     A
C123   C142    1.409   .     A
C123   C148    1.409   .     A
C123   C472    1.528   1_554 S
C124   C143    1.408   .     A
C124   C471    1.528   .     S
C125   C127    1.435   .     S
C125   O171    1.293   .     A
C125   O173    1.295   .     A
C126   O172    1.293   .     A
C126   C128    1.434   .     S
C126   O174    1.296   .     A
C128   C11     1.336   1_655 S
C128   H41     1.087   1_655 S
C129   H158    1.084   .     S
C129   C131    1.389   .     A
C129   C140    1.402   .     A
C130   C133    1.390   .     A
C130   C141    1.402   .     A
C130   H159    1.083   .     S
C131   C134    1.399   .     A
C131   H160    1.081   .     S
C132   O170    1.301   .     A
C132   O168    1.300   .     A
C132   C135    1.460   .     S
C133   C135    1.401   .     A
C133   H161    1.083   .     S
C134   C136    1.402   .     A
C135   C137    1.401   .     A
C136   C138    1.394   .     A
C136   H162    1.084   .     S
C137   C139    1.392   .     A
C137   H163    1.081   .     S
C138   C140    1.409   .     A
C138   Cl149   1.762   .     S
C139   Cl150   1.762   .     S
C139   C141    1.408   .     A
C140   C315    1.466   1_545 S
C141   C314    1.466   .     S
C142   C144    1.406   .     A
C142   H164    1.077   .     S
C143   C145    1.406   .     A
C143   H154    1.077   .     S
C144   N165    1.376   .     A
C145   N166    1.377   .     A
C146   C148    1.406   .     A
C146   N165    1.375   .     A
C147   N166    1.376   .     A
C148   H155    1.077   .     S
Cu151  Cu152   2.701   .     S
Cu151  N166    2.029   .     S
Cu151  O170    1.954   .     S
Cu151  O174    1.957   .     S
Cu151  O167    1.953   .     S
Cu151  O171    1.956   .     S
Cu152  O172    1.956   .     S
Cu152  O168    1.953   .     S
Cu152  O173    1.957   .     S
Cu152  O169    1.954   .     S
Cu152  N165    2.029   .     S
H153   C11     1.087   1_655 S
Br175  C202    1.917   .     S
Br176  C203    1.914   .     S
Br177  C204    1.916   .     S
Br178  C205    1.915   .     S
C179   C192    1.459   .     S
C179   O227    1.299   .     A
C179   O225    1.302   .     A
C180   C205    1.406   .     A
C180   H214    1.077   .     S
C180   C182    1.408   .     A
C181   C200    1.409   .     A
C181   C206    1.409   .     A
C181   C530    1.528   1_554 S
C182   C201    1.408   .     A
C182   C529    1.528   .     S
C183   C185    1.435   .     S
C183   O229    1.293   .     A
C183   O231    1.295   .     A
C184   O230    1.293   .     A
C184   C186    1.434   .     S
C184   O232    1.296   .     A
C185   C302    1.336   1_455 S
C185   H327    1.087   1_455 S
C186   C243    1.336   .     S
C186   H273    1.087   .     S
C187   H216    1.084   .     S
C187   C189    1.389   .     A
C187   C198    1.402   .     A
C188   C191    1.390   .     A
C188   C199    1.402   .     A
C188   H217    1.083   .     S
C189   C192    1.399   .     A
C189   H218    1.081   .     S
C190   O228    1.301   .     A
C190   O226    1.300   .     A
C190   C193    1.460   .     S
C191   C193    1.401   .     A
C191   H219    1.083   .     S
C192   C194    1.402   .     A
C193   C195    1.401   .     A
C194   C196    1.394   .     A
C194   H220    1.084   .     S
C195   C197    1.392   .     A
C195   H221    1.081   .     S
C196   C198    1.409   .     A
C196   Cl207   1.762   .     S
C197   Cl208   1.762   .     S
C197   C199    1.408   .     A
C199   C24     1.466   1_565 S
C200   C202    1.406   .     A
C200   H222    1.077   .     S
C201   C203    1.406   .     A
C201   H212    1.077   .     S
C202   N223    1.376   .     A
C203   N224    1.377   .     A
C204   C206    1.406   .     A
C204   N223    1.375   .     A
C205   N224    1.376   .     A
C206   H213    1.077   .     S
Cu209  Cu210   2.701   .     S
Cu209  N224    2.029   .     S
Cu209  O228    1.954   .     S
Cu209  O232    1.957   .     S
Cu209  O225    1.953   .     S
Cu209  O229    1.956   .     S
Cu210  O230    1.956   .     S
Cu210  O226    1.953   .     S
Cu210  O231    1.957   .     S
Cu210  O227    1.954   .     S
Cu210  N223    2.029   .     S
H211   C243    1.087   .     S
H215   C302    1.087   1_455 S
Br233  C260    1.917   .     S
Br234  C261    1.914   .     S
Br235  C262    1.916   .     S
Br236  C263    1.915   .     S
C237   C250    1.459   .     S
C237   O285    1.299   .     A
C237   O283    1.302   .     A
C238   C263    1.406   .     A
C238   H272    1.077   .     S
C238   C240    1.408   .     A
C239   C258    1.409   .     A
C239   C264    1.409   .     A
C239   C588    1.528   1_554 S
C240   C259    1.408   .     A
C240   C587    1.528   .     S
C241   C243    1.435   .     S
C241   O287    1.293   .     A
C241   O289    1.295   .     A
C242   O288    1.293   .     A
C242   C244    1.434   .     S
C242   O290    1.296   .     A
C244   C301    1.336   .     S
C244   H331    1.087   .     S
C245   H274    1.084   .     S
C245   C247    1.389   .     A
C245   C256    1.402   .     A
C246   C249    1.390   .     A
C246   C257    1.402   .     A
C246   H275    1.083   .     S
C247   C250    1.399   .     A
C247   H276    1.081   .     S
C248   O286    1.301   .     A
C248   O284    1.300   .     A
C248   C251    1.460   .     S
C249   C251    1.401   .     A
C249   H277    1.083   .     S
C250   C252    1.402   .     A
C251   C253    1.401   .     A
C252   C254    1.394   .     A
C252   H278    1.084   .     S
C253   C255    1.392   .     A
C253   H279    1.081   .     S
C254   C256    1.409   .     A
C254   Cl265   1.762   .     S
C255   Cl266   1.762   .     S
C255   C257    1.408   .     A
C257   C82     1.466   1_565 S
C258   C260    1.406   .     A
C258   H280    1.077   .     S
C259   C261    1.406   .     A
C259   H270    1.077   .     S
C260   N281    1.376   .     A
C261   N282    1.377   .     A
C262   C264    1.406   .     A
C262   N281    1.375   .     A
C263   N282    1.376   .     A
C264   H271    1.077   .     S
Cu267  Cu268   2.701   .     S
Cu267  N282    2.029   .     S
Cu267  O286    1.954   .     S
Cu267  O290    1.957   .     S
Cu267  O283    1.953   .     S
Cu267  O287    1.956   .     S
Cu268  O288    1.956   .     S
Cu268  O284    1.953   .     S
Cu268  O289    1.957   .     S
Cu268  O285    1.954   .     S
Cu268  N281    2.029   .     S
H269   C301    1.087   .     S
Br291  C318    1.917   .     S
Br292  C319    1.914   .     S
Br293  C320    1.916   .     S
Br294  C321    1.915   .     S
C295   C308    1.459   .     S
C295   O343    1.299   .     A
C295   O341    1.302   .     A
C296   C321    1.406   .     A
C296   H330    1.077   .     S
C296   C298    1.408   .     A
C297   C316    1.409   .     A
C297   C322    1.409   .     A
C297   C646    1.528   1_554 S
C298   C317    1.408   .     A
C298   C645    1.528   .     S
C299   C301    1.435   .     S
C299   O345    1.293   .     A
C299   O347    1.295   .     A
C300   O346    1.293   .     A
C300   C302    1.434   .     S
C300   O348    1.296   .     A
C302   C185    1.336   1_655 S
C302   H215    1.087   1_655 S
C303   H332    1.084   .     S
C303   C305    1.389   .     A
C303   C314    1.402   .     A
C304   C307    1.390   .     A
C304   C315    1.402   .     A
C304   H333    1.083   .     S
C305   C308    1.399   .     A
C305   H334    1.081   .     S
C306   O344    1.301   .     A
C306   O342    1.300   .     A
C306   C309    1.460   .     S
C307   C309    1.401   .     A
C307   H335    1.083   .     S
C308   C310    1.402   .     A
C309   C311    1.401   .     A
C310   C312    1.394   .     A
C310   H336    1.084   .     S
C311   C313    1.392   .     A
C311   H337    1.081   .     S
C312   C314    1.409   .     A
C312   Cl323   1.762   .     S
C313   Cl324   1.762   .     S
C313   C315    1.408   .     A
C315   C140    1.466   1_565 S
C316   C318    1.406   .     A
C316   H338    1.077   .     S
C317   C319    1.406   .     A
C317   H328    1.077   .     S
C318   N339    1.376   .     A
C319   N340    1.377   .     A
C320   C322    1.406   .     A
C320   N339    1.375   .     A
C321   N340    1.376   .     A
C322   H329    1.077   .     S
Cu325  Cu326   2.701   .     S
Cu325  N340    2.029   .     S
Cu325  O344    1.954   .     S
Cu325  O348    1.957   .     S
Cu325  O341    1.953   .     S
Cu325  O345    1.956   .     S
Cu326  O346    1.956   .     S
Cu326  O342    1.953   .     S
Cu326  O347    1.957   .     S
Cu326  O343    1.954   .     S
Cu326  N339    2.029   .     S
H327   C185    1.087   1_655 S
Br349  C376    1.917   .     S
Br350  C377    1.914   .     S
Br351  C378    1.916   .     S
Br352  C379    1.915   .     S
C353   C366    1.459   .     S
C353   O401    1.299   .     A
C353   O399    1.302   .     A
C354   C379    1.406   .     A
C354   H388    1.077   .     S
C354   C356    1.408   .     A
C355   C374    1.409   .     A
C355   C380    1.409   .     A
C356   C375    1.408   .     A
C356   C7      1.528   1_556 S
C357   C359    1.435   .     S
C357   O403    1.293   .     A
C357   O405    1.295   .     A
C358   O404    1.293   .     A
C358   C360    1.434   .     S
C358   O406    1.296   .     A
C359   C476    1.336   1_455 S
C359   H501    1.087   1_455 S
C360   C417    1.336   .     S
C360   H447    1.087   .     S
C361   H390    1.084   .     S
C361   C363    1.389   .     A
C361   C372    1.402   .     A
C362   C365    1.390   .     A
C362   C373    1.402   .     A
C362   H391    1.083   .     S
C363   C366    1.399   .     A
C363   H392    1.081   .     S
C364   O402    1.301   .     A
C364   O400    1.300   .     A
C364   C367    1.460   .     S
C365   C367    1.401   .     A
C365   H393    1.083   .     S
C366   C368    1.402   .     A
C367   C369    1.401   .     A
C368   C370    1.394   .     A
C368   H394    1.084   .     S
C369   C371    1.392   .     A
C369   H395    1.081   .     S
C370   C372    1.409   .     A
C370   Cl381   1.762   .     S
C371   Cl382   1.762   .     S
C371   C373    1.408   .     A
C372   C547    1.466   1_545 S
C373   C546    1.466   .     S
C374   C376    1.406   .     A
C374   H396    1.077   .     S
C375   C377    1.406   .     A
C375   H386    1.077   .     S
C376   N397    1.376   .     A
C377   N398    1.377   .     A
C378   C380    1.406   .     A
C378   N397    1.375   .     A
C379   N398    1.376   .     A
C380   H387    1.077   .     S
Cu383  Cu384   2.701   .     S
Cu383  N398    2.029   .     S
Cu383  O402    1.954   .     S
Cu383  O406    1.957   .     S
Cu383  O399    1.953   .     S
Cu383  O403    1.956   .     S
Cu384  O404    1.956   .     S
Cu384  O400    1.953   .     S
Cu384  O405    1.957   .     S
Cu384  O401    1.954   .     S
Cu384  N397    2.029   .     S
H385   C417    1.087   .     S
H389   C476    1.087   1_455 S
Br407  C434    1.917   .     S
Br408  C435    1.914   .     S
Br409  C436    1.916   .     S
Br410  C437    1.915   .     S
C411   C424    1.459   .     S
C411   O459    1.299   .     A
C411   O457    1.302   .     A
C412   C437    1.406   .     A
C412   H446    1.077   .     S
C412   C414    1.408   .     A
C413   C432    1.409   .     A
C413   C438    1.409   .     A
C414   C433    1.408   .     A
C414   C65     1.528   1_556 S
C415   C417    1.435   .     S
C415   O461    1.293   .     A
C415   O463    1.295   .     A
C416   O462    1.293   .     A
C416   C418    1.434   .     S
C416   O464    1.296   .     A
C418   C475    1.336   .     S
C418   H505    1.087   .     S
C419   H448    1.084   .     S
C419   C421    1.389   .     A
C419   C430    1.402   .     A
C420   C423    1.390   .     A
C420   C431    1.402   .     A
C420   H449    1.083   .     S
C421   C424    1.399   .     A
C421   H450    1.081   .     S
C422   O460    1.301   .     A
C422   O458    1.300   .     A
C422   C425    1.460   .     S
C423   C425    1.401   .     A
C423   H451    1.083   .     S
C424   C426    1.402   .     A
C425   C427    1.401   .     A
C426   C428    1.394   .     A
C426   H452    1.084   .     S
C427   C429    1.392   .     A
C427   H453    1.081   .     S
C428   C430    1.409   .     A
C428   Cl439   1.762   .     S
C429   Cl440   1.762   .     S
C429   C431    1.408   .     A
C430   C605    1.466   1_545 S
C431   C604    1.466   .     S
C432   C434    1.406   .     A
C432   H454    1.077   .     S
C433   C435    1.406   .     A
C433   H444    1.077   .     S
C434   N455    1.376   .     A
C435   N456    1.377   .     A
C436   C438    1.406   .     A
C436   N455    1.375   .     A
C437   N456    1.376   .     A
C438   H445    1.077   .     S
Cu441  Cu442   2.701   .     S
Cu441  N456    2.029   .     S
Cu441  O460    1.954   .     S
Cu441  O464    1.957   .     S
Cu441  O457    1.953   .     S
Cu441  O461    1.956   .     S
Cu442  O462    1.956   .     S
Cu442  O458    1.953   .     S
Cu442  O463    1.957   .     S
Cu442  O459    1.954   .     S
Cu442  N455    2.029   .     S
H443   C475    1.087   .     S
Br465  C492    1.917   .     S
Br466  C493    1.914   .     S
Br467  C494    1.916   .     S
Br468  C495    1.915   .     S
C469   C482    1.459   .     S
C469   O517    1.299   .     A
C469   O515    1.302   .     A
C470   C495    1.406   .     A
C470   H504    1.077   .     S
C470   C472    1.408   .     A
C471   C490    1.409   .     A
C471   C496    1.409   .     A
C472   C491    1.408   .     A
C472   C123    1.528   1_556 S
C473   C475    1.435   .     S
C473   O519    1.293   .     A
C473   O521    1.295   .     A
C474   O520    1.293   .     A
C474   C476    1.434   .     S
C474   O522    1.296   .     A
C476   C359    1.336   1_655 S
C476   H389    1.087   1_655 S
C477   H506    1.084   .     S
C477   C479    1.389   .     A
C477   C488    1.402   .     A
C478   C481    1.390   .     A
C478   C489    1.402   .     A
C478   H507    1.083   .     S
C479   C482    1.399   .     A
C479   H508    1.081   .     S
C480   O518    1.301   .     A
C480   O516    1.300   .     A
C480   C483    1.460   .     S
C481   C483    1.401   .     A
C481   H509    1.083   .     S
C482   C484    1.402   .     A
C483   C485    1.401   .     A
C484   C486    1.394   .     A
C484   H510    1.084   .     S
C485   C487    1.392   .     A
C485   H511    1.081   .     S
C486   C488    1.409   .     A
C486   Cl497   1.762   .     S
C487   Cl498   1.762   .     S
C487   C489    1.408   .     A
C488   C663    1.466   1_545 S
C489   C662    1.466   .     S
C490   C492    1.406   .     A
C490   H512    1.077   .     S
C491   C493    1.406   .     A
C491   H502    1.077   .     S
C492   N513    1.376   .     A
C493   N514    1.377   .     A
C494   C496    1.406   .     A
C494   N513    1.375   .     A
C495   N514    1.376   .     A
C496   H503    1.077   .     S
Cu499  Cu500   2.701   .     S
Cu499  N514    2.029   .     S
Cu499  O518    1.954   .     S
Cu499  O522    1.957   .     S
Cu499  O515    1.953   .     S
Cu499  O519    1.956   .     S
Cu500  O520    1.956   .     S
Cu500  O516    1.953   .     S
Cu500  O521    1.957   .     S
Cu500  O517    1.954   .     S
Cu500  N513    2.029   .     S
H501   C359    1.087   1_655 S
Br523  C550    1.917   .     S
Br524  C551    1.914   .     S
Br525  C552    1.916   .     S
Br526  C553    1.915   .     S
C527   C540    1.459   .     S
C527   O575    1.299   .     A
C527   O573    1.302   .     A
C528   C553    1.406   .     A
C528   H562    1.077   .     S
C528   C530    1.408   .     A
C529   C548    1.409   .     A
C529   C554    1.409   .     A
C530   C549    1.408   .     A
C530   C181    1.528   1_556 S
C531   C533    1.435   .     S
C531   O577    1.293   .     A
C531   O579    1.295   .     A
C532   O578    1.293   .     A
C532   C534    1.434   .     S
C532   O580    1.296   .     A
C533   C650    1.336   1_455 S
C533   H675    1.087   1_455 S
C534   C591    1.336   .     S
C534   H621    1.087   .     S
C535   H564    1.084   .     S
C535   C537    1.389   .     A
C535   C546    1.402   .     A
C536   C539    1.390   .     A
C536   C547    1.402   .     A
C536   H565    1.083   .     S
C537   C540    1.399   .     A
C537   H566    1.081   .     S
C538   O576    1.301   .     A
C538   O574    1.300   .     A
C538   C541    1.460   .     S
C539   C541    1.401   .     A
C539   H567    1.083   .     S
C540   C542    1.402   .     A
C541   C543    1.401   .     A
C542   C544    1.394   .     A
C542   H568    1.084   .     S
C543   C545    1.392   .     A
C543   H569    1.081   .     S
C544   C546    1.409   .     A
C544   Cl555   1.762   .     S
C545   Cl556   1.762   .     S
C545   C547    1.408   .     A
C547   C372    1.466   1_565 S
C548   C550    1.406   .     A
C548   H570    1.077   .     S
C549   C551    1.406   .     A
C549   H560    1.077   .     S
C550   N571    1.376   .     A
C551   N572    1.377   .     A
C552   C554    1.406   .     A
C552   N571    1.375   .     A
C553   N572    1.376   .     A
C554   H561    1.077   .     S
Cu557  Cu558   2.701   .     S
Cu557  N572    2.029   .     S
Cu557  O576    1.954   .     S
Cu557  O580    1.957   .     S
Cu557  O573    1.953   .     S
Cu557  O577    1.956   .     S
Cu558  O578    1.956   .     S
Cu558  O574    1.953   .     S
Cu558  O579    1.957   .     S
Cu558  O575    1.954   .     S
Cu558  N571    2.029   .     S
H559   C591    1.087   .     S
H563   C650    1.087   1_455 S
Br581  C608    1.917   .     S
Br582  C609    1.914   .     S
Br583  C610    1.916   .     S
Br584  C611    1.915   .     S
C585   C598    1.459   .     S
C585   O633    1.299   .     A
C585   O631    1.302   .     A
C586   C611    1.406   .     A
C586   H620    1.077   .     S
C586   C588    1.408   .     A
C587   C606    1.409   .     A
C587   C612    1.409   .     A
C588   C607    1.408   .     A
C588   C239    1.528   1_556 S
C589   C591    1.435   .     S
C589   O635    1.293   .     A
C589   O637    1.295   .     A
C590   O636    1.293   .     A
C590   C592    1.434   .     S
C590   O638    1.296   .     A
C592   C649    1.336   .     S
C592   H679    1.087   .     S
C593   H622    1.084   .     S
C593   C595    1.389   .     A
C593   C604    1.402   .     A
C594   C597    1.390   .     A
C594   C605    1.402   .     A
C594   H623    1.083   .     S
C595   C598    1.399   .     A
C595   H624    1.081   .     S
C596   O634    1.301   .     A
C596   O632    1.300   .     A
C596   C599    1.460   .     S
C597   C599    1.401   .     A
C597   H625    1.083   .     S
C598   C600    1.402   .     A
C599   C601    1.401   .     A
C600   C602    1.394   .     A
C600   H626    1.084   .     S
C601   C603    1.392   .     A
C601   H627    1.081   .     S
C602   C604    1.409   .     A
C602   Cl613   1.762   .     S
C603   Cl614   1.762   .     S
C603   C605    1.408   .     A
C605   C430    1.466   1_565 S
C606   C608    1.406   .     A
C606   H628    1.077   .     S
C607   C609    1.406   .     A
C607   H618    1.077   .     S
C608   N629    1.376   .     A
C609   N630    1.377   .     A
C610   C612    1.406   .     A
C610   N629    1.375   .     A
C611   N630    1.376   .     A
C612   H619    1.077   .     S
Cu615  Cu616   2.701   .     S
Cu615  N630    2.029   .     S
Cu615  O634    1.954   .     S
Cu615  O638    1.957   .     S
Cu615  O631    1.953   .     S
Cu615  O635    1.956   .     S
Cu616  O636    1.956   .     S
Cu616  O632    1.953   .     S
Cu616  O637    1.957   .     S
Cu616  O633    1.954   .     S
Cu616  N629    2.029   .     S
H617   C649    1.087   .     S
Br639  C666    1.917   .     S
Br640  C667    1.914   .     S
Br641  C668    1.916   .     S
Br642  C669    1.915   .     S
C643   C656    1.459   .     S
C643   O691    1.299   .     A
C643   O689    1.302   .     A
C644   C669    1.406   .     A
C644   H678    1.077   .     S
C644   C646    1.408   .     A
C645   C664    1.409   .     A
C645   C670    1.409   .     A
C646   C665    1.408   .     A
C646   C297    1.528   1_556 S
C647   C649    1.435   .     S
C647   O693    1.293   .     A
C647   O695    1.295   .     A
C648   O694    1.293   .     A
C648   C650    1.434   .     S
C648   O696    1.296   .     A
C650   C533    1.336   1_655 S
C650   H563    1.087   1_655 S
C651   H680    1.084   .     S
C651   C653    1.389   .     A
C651   C662    1.402   .     A
C652   C655    1.390   .     A
C652   C663    1.402   .     A
C652   H681    1.083   .     S
C653   C656    1.399   .     A
C653   H682    1.081   .     S
C654   O692    1.301   .     A
C654   O690    1.300   .     A
C654   C657    1.460   .     S
C655   C657    1.401   .     A
C655   H683    1.083   .     S
C656   C658    1.402   .     A
C657   C659    1.401   .     A
C658   C660    1.394   .     A
C658   H684    1.084   .     S
C659   C661    1.392   .     A
C659   H685    1.081   .     S
C660   C662    1.409   .     A
C660   Cl671   1.762   .     S
C661   Cl672   1.762   .     S
C661   C663    1.408   .     A
C663   C488    1.466   1_565 S
C664   C666    1.406   .     A
C664   H686    1.077   .     S
C665   C667    1.406   .     A
C665   H676    1.077   .     S
C666   N687    1.376   .     A
C667   N688    1.377   .     A
C668   C670    1.406   .     A
C668   N687    1.375   .     A
C669   N688    1.376   .     A
C670   H677    1.077   .     S
Cu673  Cu674   2.701   .     S
Cu673  N688    2.029   .     S
Cu673  O692    1.954   .     S
Cu673  O696    1.957   .     S
Cu673  O689    1.953   .     S
Cu673  O693    1.956   .     S
Cu674  O694    1.956   .     S
Cu674  O690    1.953   .     S
Cu674  O695    1.957   .     S
Cu674  O691    1.954   .     S
Cu674  N687    2.029   .     S
H675   C533    1.087   1_655 S
