data_str_m2_o1_o5_pcu_sym.74
_audit_creation_date              2020-01-03
_audit_creation_method            'Materials Studio'
_symmetry_space_group_name_H-M    'P1'
_symmetry_Int_Tables_number       1
_symmetry_cell_setting            triclinic
loop_
_symmetry_equiv_pos_as_xyz
  x,y,z
_cell_length_a                    32.3515
_cell_length_b                    28.8442
_cell_length_c                    27.1654
_cell_angle_alpha                 90.0008
_cell_angle_beta                  92.3752
_cell_angle_gamma                 90.0011
loop_
_atom_site_label
_atom_site_type_symbol
_atom_site_fract_x
_atom_site_fract_y
_atom_site_fract_z
_atom_site_U_iso_or_equiv
_atom_site_adp_type
_atom_site_occupancy
O1     O     0.10655   0.20625   0.16666   0.00000  Uiso   1.00
O2     O     0.22679   0.12709   0.16667   0.00000  Uiso   1.00
O3     O     0.22679   0.20625   0.16667   0.00000  Uiso   1.00
O4     O     0.10655   0.12709   0.16666   0.00000  Uiso   1.00
C5     C     0.08760   0.16671   0.17145   0.00000  Uiso   1.00
C6     C     0.24573   0.16671   0.16189   0.00000  Uiso   1.00
O7     O     0.16667   0.20625   0.09613   0.00000  Uiso   1.00
O8     O     0.16667   0.12708   0.23720   0.00000  Uiso   1.00
O9     O     0.16667   0.20625   0.23720   0.00000  Uiso   1.00
O10    O     0.16667   0.12708   0.09613   0.00000  Uiso   1.00
C11    C     0.16653   0.16667   0.07363   0.00000  Uiso   1.00
C12    C     0.16680   0.16667   0.25970   0.00000  Uiso   1.00
Cu13   Cu    0.16667   0.21355   0.16667   0.00000  Uiso   1.00
Cu14   Cu    0.16667   0.11978   0.16667   0.00000  Uiso   1.00
C15    C     0.16662   0.16667   0.02188   0.00000  Uiso   1.00
C16    C     0.16671   0.16667   0.31146   0.00000  Uiso   1.00
C17    C     0.02065   0.12466   0.17567   0.00000  Uiso   1.00
C18    C     0.31280   0.20934   0.15754   0.00000  Uiso   1.00
C19    C     0.31268   0.12466   0.15769   0.00000  Uiso   1.00
C20    C     0.02054   0.20934   0.17582   0.00000  Uiso   1.00
C21    C     0.29083   0.16699   0.15669   0.00000  Uiso   1.00
C22    C     0.04251   0.16699   0.17667   0.00000  Uiso   1.00
C23    C     0.14761   0.02463   0.12878   0.00000  Uiso   1.00
C24    C     0.18629   0.30863   0.20412   0.00000  Uiso   1.00
C25    C     0.18572   0.02463   0.20455   0.00000  Uiso   1.00
C26    C     0.14704   0.30863   0.12921   0.00000  Uiso   1.00
N27    N     0.16667   0.28402   0.16667   0.00000  Uiso   1.00
N28    N     0.16667   0.04931   0.16667   0.00000  Uiso   1.00
C29    C     0.03315   0.08775   0.21349   0.00000  Uiso   1.00
C30    C     0.05160   0.04378   0.19233   0.00000  Uiso   1.00
H31    H     0.03513   0.03237   0.15791   0.00000  Uiso   1.00
H32    H     0.08465   0.04877   0.18566   0.00000  Uiso   1.00
H33    H     0.04996   0.01583   0.22016   0.00000  Uiso   1.00
H34    H     0.05561   0.10217   0.24161   0.00000  Uiso   1.00
H35    H     0.00556   0.07796   0.23429   0.00000  Uiso   1.00
C36    C     0.29596   0.25254   0.13107   0.00000  Uiso   1.00
C37    C     0.28105   0.24216   0.07798   0.00000  Uiso   1.00
H38    H     0.30641   0.22620   0.05743   0.00000  Uiso   1.00
H39    H     0.25406   0.21844   0.07676   0.00000  Uiso   1.00
H40    H     0.27156   0.27492   0.05926   0.00000  Uiso   1.00
H41    H     0.27111   0.26931   0.15140   0.00000  Uiso   1.00
H42    H     0.32072   0.27891   0.12803   0.00000  Uiso   1.00
C43    C     0.30019   0.08776   0.11987   0.00000  Uiso   1.00
C44    C     0.28168   0.04381   0.14102   0.00000  Uiso   1.00
H45    H     0.28349   0.01580   0.11330   0.00000  Uiso   1.00
H46    H     0.29800   0.03251   0.17558   0.00000  Uiso   1.00
H47    H     0.24859   0.04876   0.14744   0.00000  Uiso   1.00
H48    H     0.27777   0.10219   0.09172   0.00000  Uiso   1.00
H49    H     0.32779   0.07793   0.09911   0.00000  Uiso   1.00
C50    C     0.03739   0.25254   0.20229   0.00000  Uiso   1.00
C51    C     0.05230   0.24216   0.25537   0.00000  Uiso   1.00
H52    H     0.02694   0.22621   0.27593   0.00000  Uiso   1.00
H53    H     0.07928   0.21844   0.25659   0.00000  Uiso   1.00
H54    H     0.06180   0.27492   0.27409   0.00000  Uiso   1.00
H55    H     0.06223   0.26931   0.18195   0.00000  Uiso   1.00
H56    H     0.01263   0.27892   0.20532   0.00000  Uiso   1.00
N57    N     0.12750   0.04824   0.08814   0.00000  Uiso   1.00
O58    O     0.08989   0.06337   0.09151   0.00000  Uiso   1.00
O59    O     0.14367   0.04697   0.04513   0.00000  Uiso   1.00
N60    N     0.20821   0.28492   0.24337   0.00000  Uiso   1.00
O61    O     0.19281   0.28384   0.28684   0.00000  Uiso   1.00
O62    O     0.24702   0.27469   0.23910   0.00000  Uiso   1.00
N63    N     0.20583   0.04824   0.24519   0.00000  Uiso   1.00
O64    O     0.24342   0.06344   0.24180   0.00000  Uiso   1.00
O65    O     0.18967   0.04695   0.28821   0.00000  Uiso   1.00
N66    N     0.12512   0.28492   0.08996   0.00000  Uiso   1.00
O67    O     0.14052   0.28384   0.04649   0.00000  Uiso   1.00
O68    O     0.08631   0.27468   0.09424   0.00000  Uiso   1.00
O69    O     0.43988   0.20625   0.16666   0.00000  Uiso   1.00
O70    O     0.56012   0.12709   0.16667   0.00000  Uiso   1.00
O71    O     0.56012   0.20625   0.16667   0.00000  Uiso   1.00
O72    O     0.43988   0.12709   0.16666   0.00000  Uiso   1.00
C73    C     0.42094   0.16671   0.17145   0.00000  Uiso   1.00
C74    C     0.57906   0.16671   0.16189   0.00000  Uiso   1.00
O75    O     0.50000   0.20625   0.09613   0.00000  Uiso   1.00
O76    O     0.50000   0.12708   0.23720   0.00000  Uiso   1.00
O77    O     0.50000   0.20625   0.23720   0.00000  Uiso   1.00
O78    O     0.50000   0.12708   0.09613   0.00000  Uiso   1.00
C79    C     0.49987   0.16667   0.07363   0.00000  Uiso   1.00
C80    C     0.50013   0.16667   0.25970   0.00000  Uiso   1.00
Cu81   Cu    0.50000   0.21355   0.16667   0.00000  Uiso   1.00
Cu82   Cu    0.50000   0.11978   0.16667   0.00000  Uiso   1.00
C83    C     0.49996   0.16667   0.02188   0.00000  Uiso   1.00
C84    C     0.50004   0.16667   0.31146   0.00000  Uiso   1.00
C85    C     0.35398   0.12466   0.17567   0.00000  Uiso   1.00
C86    C     0.64613   0.20934   0.15754   0.00000  Uiso   1.00
C87    C     0.64602   0.12466   0.15769   0.00000  Uiso   1.00
C88    C     0.35387   0.20934   0.17582   0.00000  Uiso   1.00
C89    C     0.62416   0.16699   0.15669   0.00000  Uiso   1.00
C90    C     0.37584   0.16699   0.17667   0.00000  Uiso   1.00
C91    C     0.48094   0.02463   0.12878   0.00000  Uiso   1.00
C92    C     0.51962   0.30863   0.20412   0.00000  Uiso   1.00
C93    C     0.51906   0.02463   0.20455   0.00000  Uiso   1.00
C94    C     0.48037   0.30863   0.12921   0.00000  Uiso   1.00
N95    N     0.50000   0.28402   0.16667   0.00000  Uiso   1.00
N96    N     0.50000   0.04931   0.16667   0.00000  Uiso   1.00
C97    C     0.36648   0.08775   0.21349   0.00000  Uiso   1.00
C98    C     0.38494   0.04378   0.19233   0.00000  Uiso   1.00
H99    H     0.36846   0.03237   0.15791   0.00000  Uiso   1.00
H100   H     0.41798   0.04877   0.18566   0.00000  Uiso   1.00
H101   H     0.38329   0.01583   0.22016   0.00000  Uiso   1.00
H102   H     0.38894   0.10217   0.24161   0.00000  Uiso   1.00
H103   H     0.33889   0.07796   0.23429   0.00000  Uiso   1.00
C104   C     0.62929   0.25254   0.13107   0.00000  Uiso   1.00
C105   C     0.61439   0.24216   0.07798   0.00000  Uiso   1.00
H106   H     0.63974   0.22620   0.05743   0.00000  Uiso   1.00
H107   H     0.58740   0.21844   0.07676   0.00000  Uiso   1.00
H108   H     0.60489   0.27492   0.05926   0.00000  Uiso   1.00
H109   H     0.60445   0.26931   0.15140   0.00000  Uiso   1.00
H110   H     0.65405   0.27891   0.12803   0.00000  Uiso   1.00
C111   C     0.63352   0.08776   0.11987   0.00000  Uiso   1.00
C112   C     0.61501   0.04381   0.14102   0.00000  Uiso   1.00
H113   H     0.61683   0.01580   0.11330   0.00000  Uiso   1.00
H114   H     0.63134   0.03251   0.17558   0.00000  Uiso   1.00
H115   H     0.58192   0.04876   0.14744   0.00000  Uiso   1.00
H116   H     0.61110   0.10219   0.09172   0.00000  Uiso   1.00
H117   H     0.66112   0.07793   0.09911   0.00000  Uiso   1.00
C118   C     0.37072   0.25254   0.20229   0.00000  Uiso   1.00
C119   C     0.38563   0.24216   0.25537   0.00000  Uiso   1.00
H120   H     0.36027   0.22621   0.27593   0.00000  Uiso   1.00
H121   H     0.41261   0.21844   0.25659   0.00000  Uiso   1.00
H122   H     0.39513   0.27492   0.27409   0.00000  Uiso   1.00
H123   H     0.39556   0.26931   0.18195   0.00000  Uiso   1.00
H124   H     0.34597   0.27892   0.20532   0.00000  Uiso   1.00
N125   N     0.46083   0.04824   0.08814   0.00000  Uiso   1.00
O126   O     0.42322   0.06337   0.09151   0.00000  Uiso   1.00
O127   O     0.47701   0.04697   0.04513   0.00000  Uiso   1.00
N128   N     0.54155   0.28492   0.24337   0.00000  Uiso   1.00
O129   O     0.52614   0.28384   0.28684   0.00000  Uiso   1.00
O130   O     0.58036   0.27469   0.23910   0.00000  Uiso   1.00
N131   N     0.53916   0.04824   0.24519   0.00000  Uiso   1.00
O132   O     0.57675   0.06344   0.24180   0.00000  Uiso   1.00
O133   O     0.52300   0.04695   0.28821   0.00000  Uiso   1.00
N134   N     0.45845   0.28492   0.08996   0.00000  Uiso   1.00
O135   O     0.47385   0.28384   0.04649   0.00000  Uiso   1.00
O136   O     0.41964   0.27468   0.09424   0.00000  Uiso   1.00
O137   O     0.77321   0.20625   0.16666   0.00000  Uiso   1.00
O138   O     0.89345   0.12709   0.16667   0.00000  Uiso   1.00
O139   O     0.89345   0.20625   0.16667   0.00000  Uiso   1.00
O140   O     0.77321   0.12709   0.16666   0.00000  Uiso   1.00
C141   C     0.75427   0.16671   0.17145   0.00000  Uiso   1.00
C142   C     0.91240   0.16671   0.16189   0.00000  Uiso   1.00
O143   O     0.83333   0.20625   0.09613   0.00000  Uiso   1.00
O144   O     0.83333   0.12708   0.23720   0.00000  Uiso   1.00
O145   O     0.83333   0.20625   0.23720   0.00000  Uiso   1.00
O146   O     0.83333   0.12708   0.09613   0.00000  Uiso   1.00
C147   C     0.83320   0.16667   0.07363   0.00000  Uiso   1.00
C148   C     0.83347   0.16667   0.25970   0.00000  Uiso   1.00
Cu149  Cu    0.83333   0.21355   0.16667   0.00000  Uiso   1.00
Cu150  Cu    0.83333   0.11978   0.16667   0.00000  Uiso   1.00
C151   C     0.83329   0.16667   0.02188   0.00000  Uiso   1.00
C152   C     0.83338   0.16667   0.31146   0.00000  Uiso   1.00
C153   C     0.68732   0.12466   0.17567   0.00000  Uiso   1.00
C154   C     0.97946   0.20934   0.15754   0.00000  Uiso   1.00
C155   C     0.97935   0.12466   0.15769   0.00000  Uiso   1.00
C156   C     0.68721   0.20934   0.17582   0.00000  Uiso   1.00
C157   C     0.95750   0.16699   0.15669   0.00000  Uiso   1.00
C158   C     0.70917   0.16699   0.17667   0.00000  Uiso   1.00
C159   C     0.81428   0.02463   0.12878   0.00000  Uiso   1.00
C160   C     0.85296   0.30863   0.20412   0.00000  Uiso   1.00
C161   C     0.85239   0.02463   0.20455   0.00000  Uiso   1.00
C162   C     0.81371   0.30863   0.12921   0.00000  Uiso   1.00
N163   N     0.83333   0.28402   0.16667   0.00000  Uiso   1.00
N164   N     0.83333   0.04931   0.16667   0.00000  Uiso   1.00
C165   C     0.69982   0.08775   0.21349   0.00000  Uiso   1.00
C166   C     0.71827   0.04378   0.19233   0.00000  Uiso   1.00
H167   H     0.70179   0.03237   0.15791   0.00000  Uiso   1.00
H168   H     0.75131   0.04877   0.18566   0.00000  Uiso   1.00
H169   H     0.71663   0.01583   0.22016   0.00000  Uiso   1.00
H170   H     0.72227   0.10217   0.24161   0.00000  Uiso   1.00
H171   H     0.67223   0.07796   0.23429   0.00000  Uiso   1.00
C172   C     0.96262   0.25254   0.13107   0.00000  Uiso   1.00
C173   C     0.94772   0.24216   0.07798   0.00000  Uiso   1.00
H174   H     0.97308   0.22620   0.05743   0.00000  Uiso   1.00
H175   H     0.92073   0.21844   0.07676   0.00000  Uiso   1.00
H176   H     0.93822   0.27492   0.05926   0.00000  Uiso   1.00
H177   H     0.93778   0.26931   0.15140   0.00000  Uiso   1.00
H178   H     0.98739   0.27891   0.12803   0.00000  Uiso   1.00
C179   C     0.96686   0.08776   0.11987   0.00000  Uiso   1.00
C180   C     0.94835   0.04381   0.14102   0.00000  Uiso   1.00
H181   H     0.95016   0.01580   0.11330   0.00000  Uiso   1.00
H182   H     0.96467   0.03251   0.17558   0.00000  Uiso   1.00
H183   H     0.91526   0.04876   0.14744   0.00000  Uiso   1.00
H184   H     0.94444   0.10219   0.09172   0.00000  Uiso   1.00
H185   H     0.99446   0.07793   0.09911   0.00000  Uiso   1.00
C186   C     0.70405   0.25254   0.20229   0.00000  Uiso   1.00
C187   C     0.71896   0.24216   0.25537   0.00000  Uiso   1.00
H188   H     0.69361   0.22621   0.27593   0.00000  Uiso   1.00
H189   H     0.74595   0.21844   0.25659   0.00000  Uiso   1.00
H190   H     0.72847   0.27492   0.27409   0.00000  Uiso   1.00
H191   H     0.72890   0.26931   0.18195   0.00000  Uiso   1.00
H192   H     0.67930   0.27892   0.20532   0.00000  Uiso   1.00
N193   N     0.79417   0.04824   0.08814   0.00000  Uiso   1.00
O194   O     0.75656   0.06337   0.09151   0.00000  Uiso   1.00
O195   O     0.81034   0.04697   0.04513   0.00000  Uiso   1.00
N196   N     0.87488   0.28492   0.24337   0.00000  Uiso   1.00
O197   O     0.85947   0.28384   0.28684   0.00000  Uiso   1.00
O198   O     0.91369   0.27469   0.23910   0.00000  Uiso   1.00
N199   N     0.87250   0.04824   0.24519   0.00000  Uiso   1.00
O200   O     0.91008   0.06344   0.24180   0.00000  Uiso   1.00
O201   O     0.85633   0.04695   0.28821   0.00000  Uiso   1.00
N202   N     0.79179   0.28492   0.08996   0.00000  Uiso   1.00
O203   O     0.80719   0.28384   0.04649   0.00000  Uiso   1.00
O204   O     0.75298   0.27468   0.09424   0.00000  Uiso   1.00
O205   O     0.10655   0.53958   0.16666   0.00000  Uiso   1.00
O206   O     0.22679   0.46042   0.16667   0.00000  Uiso   1.00
O207   O     0.22679   0.53958   0.16667   0.00000  Uiso   1.00
O208   O     0.10655   0.46042   0.16666   0.00000  Uiso   1.00
C209   C     0.08760   0.50005   0.17145   0.00000  Uiso   1.00
C210   C     0.24573   0.50005   0.16189   0.00000  Uiso   1.00
O211   O     0.16667   0.53959   0.09613   0.00000  Uiso   1.00
O212   O     0.16667   0.46041   0.23720   0.00000  Uiso   1.00
O213   O     0.16667   0.53959   0.23720   0.00000  Uiso   1.00
O214   O     0.16667   0.46041   0.09613   0.00000  Uiso   1.00
C215   C     0.16653   0.50000   0.07363   0.00000  Uiso   1.00
C216   C     0.16680   0.50000   0.25970   0.00000  Uiso   1.00
Cu217  Cu    0.16667   0.54689   0.16667   0.00000  Uiso   1.00
Cu218  Cu    0.16667   0.45311   0.16667   0.00000  Uiso   1.00
C219   C     0.16662   0.50000   0.02188   0.00000  Uiso   1.00
C220   C     0.16671   0.50000   0.31146   0.00000  Uiso   1.00
C221   C     0.02065   0.45799   0.17567   0.00000  Uiso   1.00
C222   C     0.31280   0.54268   0.15754   0.00000  Uiso   1.00
C223   C     0.31268   0.45799   0.15769   0.00000  Uiso   1.00
C224   C     0.02054   0.54268   0.17582   0.00000  Uiso   1.00
C225   C     0.29083   0.50032   0.15669   0.00000  Uiso   1.00
C226   C     0.04251   0.50032   0.17667   0.00000  Uiso   1.00
C227   C     0.14761   0.35796   0.12878   0.00000  Uiso   1.00
C228   C     0.18629   0.64196   0.20412   0.00000  Uiso   1.00
C229   C     0.18572   0.35796   0.20455   0.00000  Uiso   1.00
C230   C     0.14704   0.64196   0.12921   0.00000  Uiso   1.00
N231   N     0.16667   0.61736   0.16667   0.00000  Uiso   1.00
N232   N     0.16667   0.38264   0.16667   0.00000  Uiso   1.00
C233   C     0.03315   0.42109   0.21349   0.00000  Uiso   1.00
C234   C     0.05160   0.37711   0.19233   0.00000  Uiso   1.00
H235   H     0.03513   0.36570   0.15791   0.00000  Uiso   1.00
H236   H     0.08465   0.38210   0.18566   0.00000  Uiso   1.00
H237   H     0.04996   0.34917   0.22016   0.00000  Uiso   1.00
H238   H     0.05561   0.43551   0.24161   0.00000  Uiso   1.00
H239   H     0.00556   0.41130   0.23429   0.00000  Uiso   1.00
C240   C     0.29596   0.58587   0.13107   0.00000  Uiso   1.00
C241   C     0.28105   0.57549   0.07798   0.00000  Uiso   1.00
H242   H     0.30641   0.55953   0.05743   0.00000  Uiso   1.00
H243   H     0.25406   0.55178   0.07676   0.00000  Uiso   1.00
H244   H     0.27156   0.60825   0.05926   0.00000  Uiso   1.00
H245   H     0.27111   0.60265   0.15140   0.00000  Uiso   1.00
H246   H     0.32072   0.61224   0.12803   0.00000  Uiso   1.00
C247   C     0.30019   0.42109   0.11987   0.00000  Uiso   1.00
C248   C     0.28168   0.37714   0.14102   0.00000  Uiso   1.00
H249   H     0.28349   0.34913   0.11330   0.00000  Uiso   1.00
H250   H     0.29800   0.36585   0.17558   0.00000  Uiso   1.00
H251   H     0.24859   0.38210   0.14744   0.00000  Uiso   1.00
H252   H     0.27777   0.43552   0.09172   0.00000  Uiso   1.00
H253   H     0.32779   0.41126   0.09911   0.00000  Uiso   1.00
C254   C     0.03739   0.58587   0.20229   0.00000  Uiso   1.00
C255   C     0.05230   0.57549   0.25537   0.00000  Uiso   1.00
H256   H     0.02694   0.55954   0.27593   0.00000  Uiso   1.00
H257   H     0.07928   0.55177   0.25659   0.00000  Uiso   1.00
H258   H     0.06180   0.60825   0.27409   0.00000  Uiso   1.00
H259   H     0.06223   0.60265   0.18195   0.00000  Uiso   1.00
H260   H     0.01263   0.61225   0.20532   0.00000  Uiso   1.00
N261   N     0.12750   0.38157   0.08814   0.00000  Uiso   1.00
O262   O     0.08989   0.39671   0.09151   0.00000  Uiso   1.00
O263   O     0.14367   0.38030   0.04513   0.00000  Uiso   1.00
N264   N     0.20821   0.61825   0.24337   0.00000  Uiso   1.00
O265   O     0.19281   0.61717   0.28684   0.00000  Uiso   1.00
O266   O     0.24702   0.60802   0.23910   0.00000  Uiso   1.00
N267   N     0.20583   0.38157   0.24519   0.00000  Uiso   1.00
O268   O     0.24342   0.39677   0.24180   0.00000  Uiso   1.00
O269   O     0.18967   0.38028   0.28821   0.00000  Uiso   1.00
N270   N     0.12512   0.61825   0.08996   0.00000  Uiso   1.00
O271   O     0.14052   0.61718   0.04649   0.00000  Uiso   1.00
O272   O     0.08631   0.60801   0.09424   0.00000  Uiso   1.00
O273   O     0.43988   0.53958   0.16666   0.00000  Uiso   1.00
O274   O     0.56012   0.46042   0.16667   0.00000  Uiso   1.00
O275   O     0.56012   0.53958   0.16667   0.00000  Uiso   1.00
O276   O     0.43988   0.46042   0.16666   0.00000  Uiso   1.00
C277   C     0.42094   0.50005   0.17145   0.00000  Uiso   1.00
C278   C     0.57906   0.50005   0.16189   0.00000  Uiso   1.00
O279   O     0.50000   0.53959   0.09613   0.00000  Uiso   1.00
O280   O     0.50000   0.46041   0.23720   0.00000  Uiso   1.00
O281   O     0.50000   0.53959   0.23720   0.00000  Uiso   1.00
O282   O     0.50000   0.46041   0.09613   0.00000  Uiso   1.00
C283   C     0.49987   0.50000   0.07363   0.00000  Uiso   1.00
C284   C     0.50013   0.50000   0.25970   0.00000  Uiso   1.00
Cu285  Cu    0.50000   0.54689   0.16667   0.00000  Uiso   1.00
Cu286  Cu    0.50000   0.45311   0.16667   0.00000  Uiso   1.00
C287   C     0.49996   0.50000   0.02188   0.00000  Uiso   1.00
C288   C     0.50004   0.50000   0.31146   0.00000  Uiso   1.00
C289   C     0.35398   0.45799   0.17567   0.00000  Uiso   1.00
C290   C     0.64613   0.54268   0.15754   0.00000  Uiso   1.00
C291   C     0.64602   0.45799   0.15769   0.00000  Uiso   1.00
C292   C     0.35387   0.54268   0.17582   0.00000  Uiso   1.00
C293   C     0.62416   0.50032   0.15669   0.00000  Uiso   1.00
C294   C     0.37584   0.50032   0.17667   0.00000  Uiso   1.00
C295   C     0.48094   0.35796   0.12878   0.00000  Uiso   1.00
C296   C     0.51962   0.64196   0.20412   0.00000  Uiso   1.00
C297   C     0.51906   0.35796   0.20455   0.00000  Uiso   1.00
C298   C     0.48037   0.64196   0.12921   0.00000  Uiso   1.00
N299   N     0.50000   0.61736   0.16667   0.00000  Uiso   1.00
N300   N     0.50000   0.38264   0.16667   0.00000  Uiso   1.00
C301   C     0.36648   0.42109   0.21349   0.00000  Uiso   1.00
C302   C     0.38494   0.37711   0.19233   0.00000  Uiso   1.00
H303   H     0.36846   0.36570   0.15791   0.00000  Uiso   1.00
H304   H     0.41798   0.38210   0.18566   0.00000  Uiso   1.00
H305   H     0.38329   0.34917   0.22016   0.00000  Uiso   1.00
H306   H     0.38894   0.43551   0.24161   0.00000  Uiso   1.00
H307   H     0.33889   0.41130   0.23429   0.00000  Uiso   1.00
C308   C     0.62929   0.58587   0.13107   0.00000  Uiso   1.00
C309   C     0.61439   0.57549   0.07798   0.00000  Uiso   1.00
H310   H     0.63974   0.55953   0.05743   0.00000  Uiso   1.00
H311   H     0.58740   0.55178   0.07676   0.00000  Uiso   1.00
H312   H     0.60489   0.60825   0.05926   0.00000  Uiso   1.00
H313   H     0.60445   0.60265   0.15140   0.00000  Uiso   1.00
H314   H     0.65405   0.61224   0.12803   0.00000  Uiso   1.00
C315   C     0.63352   0.42109   0.11987   0.00000  Uiso   1.00
C316   C     0.61501   0.37714   0.14102   0.00000  Uiso   1.00
H317   H     0.61683   0.34913   0.11330   0.00000  Uiso   1.00
H318   H     0.63134   0.36585   0.17558   0.00000  Uiso   1.00
H319   H     0.58192   0.38210   0.14744   0.00000  Uiso   1.00
H320   H     0.61110   0.43552   0.09172   0.00000  Uiso   1.00
H321   H     0.66112   0.41126   0.09911   0.00000  Uiso   1.00
C322   C     0.37072   0.58587   0.20229   0.00000  Uiso   1.00
C323   C     0.38563   0.57549   0.25537   0.00000  Uiso   1.00
H324   H     0.36027   0.55954   0.27593   0.00000  Uiso   1.00
H325   H     0.41261   0.55177   0.25659   0.00000  Uiso   1.00
H326   H     0.39513   0.60825   0.27409   0.00000  Uiso   1.00
H327   H     0.39556   0.60265   0.18195   0.00000  Uiso   1.00
H328   H     0.34597   0.61225   0.20532   0.00000  Uiso   1.00
N329   N     0.46083   0.38157   0.08814   0.00000  Uiso   1.00
O330   O     0.42322   0.39671   0.09151   0.00000  Uiso   1.00
O331   O     0.47701   0.38030   0.04513   0.00000  Uiso   1.00
N332   N     0.54155   0.61825   0.24337   0.00000  Uiso   1.00
O333   O     0.52614   0.61717   0.28684   0.00000  Uiso   1.00
O334   O     0.58036   0.60802   0.23910   0.00000  Uiso   1.00
N335   N     0.53916   0.38157   0.24519   0.00000  Uiso   1.00
O336   O     0.57675   0.39677   0.24180   0.00000  Uiso   1.00
O337   O     0.52300   0.38028   0.28821   0.00000  Uiso   1.00
N338   N     0.45845   0.61825   0.08996   0.00000  Uiso   1.00
O339   O     0.47385   0.61718   0.04649   0.00000  Uiso   1.00
O340   O     0.41964   0.60801   0.09424   0.00000  Uiso   1.00
O341   O     0.77321   0.53958   0.16666   0.00000  Uiso   1.00
O342   O     0.89345   0.46042   0.16667   0.00000  Uiso   1.00
O343   O     0.89345   0.53958   0.16667   0.00000  Uiso   1.00
O344   O     0.77321   0.46042   0.16666   0.00000  Uiso   1.00
C345   C     0.75427   0.50005   0.17145   0.00000  Uiso   1.00
C346   C     0.91240   0.50005   0.16189   0.00000  Uiso   1.00
O347   O     0.83333   0.53959   0.09613   0.00000  Uiso   1.00
O348   O     0.83333   0.46041   0.23720   0.00000  Uiso   1.00
O349   O     0.83333   0.53959   0.23720   0.00000  Uiso   1.00
O350   O     0.83333   0.46041   0.09613   0.00000  Uiso   1.00
C351   C     0.83320   0.50000   0.07363   0.00000  Uiso   1.00
C352   C     0.83347   0.50000   0.25970   0.00000  Uiso   1.00
Cu353  Cu    0.83333   0.54689   0.16667   0.00000  Uiso   1.00
Cu354  Cu    0.83333   0.45311   0.16667   0.00000  Uiso   1.00
C355   C     0.83329   0.50000   0.02188   0.00000  Uiso   1.00
C356   C     0.83338   0.50000   0.31146   0.00000  Uiso   1.00
C357   C     0.68732   0.45799   0.17567   0.00000  Uiso   1.00
C358   C     0.97946   0.54268   0.15754   0.00000  Uiso   1.00
C359   C     0.97935   0.45799   0.15769   0.00000  Uiso   1.00
C360   C     0.68721   0.54268   0.17582   0.00000  Uiso   1.00
C361   C     0.95750   0.50032   0.15669   0.00000  Uiso   1.00
C362   C     0.70917   0.50032   0.17667   0.00000  Uiso   1.00
C363   C     0.81428   0.35796   0.12878   0.00000  Uiso   1.00
C364   C     0.85296   0.64196   0.20412   0.00000  Uiso   1.00
C365   C     0.85239   0.35796   0.20455   0.00000  Uiso   1.00
C366   C     0.81371   0.64196   0.12921   0.00000  Uiso   1.00
N367   N     0.83333   0.61736   0.16667   0.00000  Uiso   1.00
N368   N     0.83333   0.38264   0.16667   0.00000  Uiso   1.00
C369   C     0.69982   0.42109   0.21349   0.00000  Uiso   1.00
C370   C     0.71827   0.37711   0.19233   0.00000  Uiso   1.00
H371   H     0.70179   0.36570   0.15791   0.00000  Uiso   1.00
H372   H     0.75131   0.38210   0.18566   0.00000  Uiso   1.00
H373   H     0.71663   0.34917   0.22016   0.00000  Uiso   1.00
H374   H     0.72227   0.43551   0.24161   0.00000  Uiso   1.00
H375   H     0.67223   0.41130   0.23429   0.00000  Uiso   1.00
C376   C     0.96262   0.58587   0.13107   0.00000  Uiso   1.00
C377   C     0.94772   0.57549   0.07798   0.00000  Uiso   1.00
H378   H     0.97308   0.55953   0.05743   0.00000  Uiso   1.00
H379   H     0.92073   0.55178   0.07676   0.00000  Uiso   1.00
H380   H     0.93822   0.60825   0.05926   0.00000  Uiso   1.00
H381   H     0.93778   0.60265   0.15140   0.00000  Uiso   1.00
H382   H     0.98739   0.61224   0.12803   0.00000  Uiso   1.00
C383   C     0.96686   0.42109   0.11987   0.00000  Uiso   1.00
C384   C     0.94835   0.37714   0.14102   0.00000  Uiso   1.00
H385   H     0.95016   0.34913   0.11330   0.00000  Uiso   1.00
H386   H     0.96467   0.36585   0.17558   0.00000  Uiso   1.00
H387   H     0.91526   0.38210   0.14744   0.00000  Uiso   1.00
H388   H     0.94444   0.43552   0.09172   0.00000  Uiso   1.00
H389   H     0.99446   0.41126   0.09911   0.00000  Uiso   1.00
C390   C     0.70405   0.58587   0.20229   0.00000  Uiso   1.00
C391   C     0.71896   0.57549   0.25537   0.00000  Uiso   1.00
H392   H     0.69361   0.55954   0.27593   0.00000  Uiso   1.00
H393   H     0.74595   0.55177   0.25659   0.00000  Uiso   1.00
H394   H     0.72847   0.60825   0.27409   0.00000  Uiso   1.00
H395   H     0.72890   0.60265   0.18195   0.00000  Uiso   1.00
H396   H     0.67930   0.61225   0.20532   0.00000  Uiso   1.00
N397   N     0.79417   0.38157   0.08814   0.00000  Uiso   1.00
O398   O     0.75656   0.39671   0.09151   0.00000  Uiso   1.00
O399   O     0.81034   0.38030   0.04513   0.00000  Uiso   1.00
N400   N     0.87488   0.61825   0.24337   0.00000  Uiso   1.00
O401   O     0.85947   0.61717   0.28684   0.00000  Uiso   1.00
O402   O     0.91369   0.60802   0.23910   0.00000  Uiso   1.00
N403   N     0.87250   0.38157   0.24519   0.00000  Uiso   1.00
O404   O     0.91008   0.39677   0.24180   0.00000  Uiso   1.00
O405   O     0.85633   0.38028   0.28821   0.00000  Uiso   1.00
N406   N     0.79179   0.61825   0.08996   0.00000  Uiso   1.00
O407   O     0.80719   0.61718   0.04649   0.00000  Uiso   1.00
O408   O     0.75298   0.60801   0.09424   0.00000  Uiso   1.00
O409   O     0.10655   0.87291   0.16666   0.00000  Uiso   1.00
O410   O     0.22679   0.79375   0.16667   0.00000  Uiso   1.00
O411   O     0.22679   0.87291   0.16667   0.00000  Uiso   1.00
O412   O     0.10655   0.79375   0.16666   0.00000  Uiso   1.00
C413   C     0.08760   0.83338   0.17145   0.00000  Uiso   1.00
C414   C     0.24573   0.83338   0.16189   0.00000  Uiso   1.00
O415   O     0.16667   0.87292   0.09613   0.00000  Uiso   1.00
O416   O     0.16667   0.79375   0.23720   0.00000  Uiso   1.00
O417   O     0.16667   0.87292   0.23720   0.00000  Uiso   1.00
O418   O     0.16667   0.79375   0.09613   0.00000  Uiso   1.00
C419   C     0.16653   0.83333   0.07363   0.00000  Uiso   1.00
C420   C     0.16680   0.83333   0.25970   0.00000  Uiso   1.00
Cu421  Cu    0.16667   0.88022   0.16667   0.00000  Uiso   1.00
Cu422  Cu    0.16667   0.78645   0.16667   0.00000  Uiso   1.00
C423   C     0.16662   0.83334   0.02188   0.00000  Uiso   1.00
C424   C     0.16671   0.83334   0.31146   0.00000  Uiso   1.00
C425   C     0.02065   0.79133   0.17567   0.00000  Uiso   1.00
C426   C     0.31280   0.87601   0.15754   0.00000  Uiso   1.00
C427   C     0.31268   0.79133   0.15769   0.00000  Uiso   1.00
C428   C     0.02054   0.87601   0.17582   0.00000  Uiso   1.00
C429   C     0.29083   0.83366   0.15669   0.00000  Uiso   1.00
C430   C     0.04251   0.83365   0.17667   0.00000  Uiso   1.00
C431   C     0.14761   0.69130   0.12878   0.00000  Uiso   1.00
C432   C     0.18629   0.97530   0.20412   0.00000  Uiso   1.00
C433   C     0.18572   0.69130   0.20455   0.00000  Uiso   1.00
C434   C     0.14704   0.97529   0.12921   0.00000  Uiso   1.00
N435   N     0.16667   0.95069   0.16667   0.00000  Uiso   1.00
N436   N     0.16667   0.71598   0.16667   0.00000  Uiso   1.00
C437   C     0.03315   0.75442   0.21349   0.00000  Uiso   1.00
C438   C     0.05160   0.71044   0.19233   0.00000  Uiso   1.00
H439   H     0.03513   0.69904   0.15791   0.00000  Uiso   1.00
H440   H     0.08465   0.71543   0.18566   0.00000  Uiso   1.00
H441   H     0.04996   0.68250   0.22016   0.00000  Uiso   1.00
H442   H     0.05561   0.76884   0.24161   0.00000  Uiso   1.00
H443   H     0.00556   0.74463   0.23429   0.00000  Uiso   1.00
C444   C     0.29596   0.91920   0.13107   0.00000  Uiso   1.00
C445   C     0.28105   0.90882   0.07798   0.00000  Uiso   1.00
H446   H     0.30641   0.89286   0.05743   0.00000  Uiso   1.00
H447   H     0.25406   0.88511   0.07676   0.00000  Uiso   1.00
H448   H     0.27156   0.94158   0.05926   0.00000  Uiso   1.00
H449   H     0.27111   0.93598   0.15140   0.00000  Uiso   1.00
H450   H     0.32072   0.94558   0.12803   0.00000  Uiso   1.00
C451   C     0.30019   0.75442   0.11987   0.00000  Uiso   1.00
C452   C     0.28168   0.71047   0.14102   0.00000  Uiso   1.00
H453   H     0.28349   0.68246   0.11330   0.00000  Uiso   1.00
H454   H     0.29800   0.69918   0.17558   0.00000  Uiso   1.00
H455   H     0.24859   0.71543   0.14744   0.00000  Uiso   1.00
H456   H     0.27777   0.76886   0.09172   0.00000  Uiso   1.00
H457   H     0.32779   0.74460   0.09911   0.00000  Uiso   1.00
C458   C     0.03739   0.91921   0.20229   0.00000  Uiso   1.00
C459   C     0.05230   0.90883   0.25537   0.00000  Uiso   1.00
H460   H     0.02694   0.89287   0.27593   0.00000  Uiso   1.00
H461   H     0.07928   0.88511   0.25659   0.00000  Uiso   1.00
H462   H     0.06180   0.94159   0.27409   0.00000  Uiso   1.00
H463   H     0.06223   0.93598   0.18195   0.00000  Uiso   1.00
H464   H     0.01263   0.94559   0.20532   0.00000  Uiso   1.00
N465   N     0.12750   0.71490   0.08814   0.00000  Uiso   1.00
O466   O     0.08989   0.73004   0.09151   0.00000  Uiso   1.00
O467   O     0.14367   0.71363   0.04513   0.00000  Uiso   1.00
N468   N     0.20821   0.95159   0.24337   0.00000  Uiso   1.00
O469   O     0.19281   0.95051   0.28684   0.00000  Uiso   1.00
O470   O     0.24702   0.94135   0.23910   0.00000  Uiso   1.00
N471   N     0.20583   0.71491   0.24519   0.00000  Uiso   1.00
O472   O     0.24342   0.73010   0.24180   0.00000  Uiso   1.00
O473   O     0.18967   0.71362   0.28821   0.00000  Uiso   1.00
N474   N     0.12512   0.95158   0.08996   0.00000  Uiso   1.00
O475   O     0.14052   0.95051   0.04649   0.00000  Uiso   1.00
O476   O     0.08631   0.94134   0.09424   0.00000  Uiso   1.00
O477   O     0.43988   0.87291   0.16666   0.00000  Uiso   1.00
O478   O     0.56012   0.79375   0.16667   0.00000  Uiso   1.00
O479   O     0.56012   0.87291   0.16667   0.00000  Uiso   1.00
O480   O     0.43988   0.79375   0.16666   0.00000  Uiso   1.00
C481   C     0.42094   0.83338   0.17145   0.00000  Uiso   1.00
C482   C     0.57906   0.83338   0.16189   0.00000  Uiso   1.00
O483   O     0.50000   0.87292   0.09613   0.00000  Uiso   1.00
O484   O     0.50000   0.79375   0.23720   0.00000  Uiso   1.00
O485   O     0.50000   0.87292   0.23720   0.00000  Uiso   1.00
O486   O     0.50000   0.79375   0.09613   0.00000  Uiso   1.00
C487   C     0.49987   0.83333   0.07363   0.00000  Uiso   1.00
C488   C     0.50013   0.83333   0.25970   0.00000  Uiso   1.00
Cu489  Cu    0.50000   0.88022   0.16667   0.00000  Uiso   1.00
Cu490  Cu    0.50000   0.78645   0.16667   0.00000  Uiso   1.00
C491   C     0.49996   0.83334   0.02188   0.00000  Uiso   1.00
C492   C     0.50004   0.83334   0.31146   0.00000  Uiso   1.00
C493   C     0.35398   0.79133   0.17567   0.00000  Uiso   1.00
C494   C     0.64613   0.87601   0.15754   0.00000  Uiso   1.00
C495   C     0.64602   0.79133   0.15769   0.00000  Uiso   1.00
C496   C     0.35387   0.87601   0.17582   0.00000  Uiso   1.00
C497   C     0.62416   0.83366   0.15669   0.00000  Uiso   1.00
C498   C     0.37584   0.83365   0.17667   0.00000  Uiso   1.00
C499   C     0.48094   0.69130   0.12878   0.00000  Uiso   1.00
C500   C     0.51962   0.97530   0.20412   0.00000  Uiso   1.00
C501   C     0.51906   0.69130   0.20455   0.00000  Uiso   1.00
C502   C     0.48037   0.97529   0.12921   0.00000  Uiso   1.00
N503   N     0.50000   0.95069   0.16667   0.00000  Uiso   1.00
N504   N     0.50000   0.71598   0.16667   0.00000  Uiso   1.00
C505   C     0.36648   0.75442   0.21349   0.00000  Uiso   1.00
C506   C     0.38494   0.71044   0.19233   0.00000  Uiso   1.00
H507   H     0.36846   0.69904   0.15791   0.00000  Uiso   1.00
H508   H     0.41798   0.71543   0.18566   0.00000  Uiso   1.00
H509   H     0.38329   0.68250   0.22016   0.00000  Uiso   1.00
H510   H     0.38894   0.76884   0.24161   0.00000  Uiso   1.00
H511   H     0.33889   0.74463   0.23429   0.00000  Uiso   1.00
C512   C     0.62929   0.91920   0.13107   0.00000  Uiso   1.00
C513   C     0.61439   0.90882   0.07798   0.00000  Uiso   1.00
H514   H     0.63974   0.89286   0.05743   0.00000  Uiso   1.00
H515   H     0.58740   0.88511   0.07676   0.00000  Uiso   1.00
H516   H     0.60489   0.94158   0.05926   0.00000  Uiso   1.00
H517   H     0.60445   0.93598   0.15140   0.00000  Uiso   1.00
H518   H     0.65405   0.94558   0.12803   0.00000  Uiso   1.00
C519   C     0.63352   0.75442   0.11987   0.00000  Uiso   1.00
C520   C     0.61501   0.71047   0.14102   0.00000  Uiso   1.00
H521   H     0.61683   0.68246   0.11330   0.00000  Uiso   1.00
H522   H     0.63134   0.69918   0.17558   0.00000  Uiso   1.00
H523   H     0.58192   0.71543   0.14744   0.00000  Uiso   1.00
H524   H     0.61110   0.76886   0.09172   0.00000  Uiso   1.00
H525   H     0.66112   0.74460   0.09911   0.00000  Uiso   1.00
C526   C     0.37072   0.91921   0.20229   0.00000  Uiso   1.00
C527   C     0.38563   0.90883   0.25537   0.00000  Uiso   1.00
H528   H     0.36027   0.89287   0.27593   0.00000  Uiso   1.00
H529   H     0.41261   0.88511   0.25659   0.00000  Uiso   1.00
H530   H     0.39513   0.94159   0.27409   0.00000  Uiso   1.00
H531   H     0.39556   0.93598   0.18195   0.00000  Uiso   1.00
H532   H     0.34597   0.94559   0.20532   0.00000  Uiso   1.00
N533   N     0.46083   0.71490   0.08814   0.00000  Uiso   1.00
O534   O     0.42322   0.73004   0.09151   0.00000  Uiso   1.00
O535   O     0.47701   0.71363   0.04513   0.00000  Uiso   1.00
N536   N     0.54155   0.95159   0.24337   0.00000  Uiso   1.00
O537   O     0.52614   0.95051   0.28684   0.00000  Uiso   1.00
O538   O     0.58036   0.94135   0.23910   0.00000  Uiso   1.00
N539   N     0.53916   0.71491   0.24519   0.00000  Uiso   1.00
O540   O     0.57675   0.73010   0.24180   0.00000  Uiso   1.00
O541   O     0.52300   0.71362   0.28821   0.00000  Uiso   1.00
N542   N     0.45845   0.95158   0.08996   0.00000  Uiso   1.00
O543   O     0.47385   0.95051   0.04649   0.00000  Uiso   1.00
O544   O     0.41964   0.94134   0.09424   0.00000  Uiso   1.00
O545   O     0.77321   0.87291   0.16666   0.00000  Uiso   1.00
O546   O     0.89345   0.79375   0.16667   0.00000  Uiso   1.00
O547   O     0.89345   0.87291   0.16667   0.00000  Uiso   1.00
O548   O     0.77321   0.79375   0.16666   0.00000  Uiso   1.00
C549   C     0.75427   0.83338   0.17145   0.00000  Uiso   1.00
C550   C     0.91240   0.83338   0.16189   0.00000  Uiso   1.00
O551   O     0.83333   0.87292   0.09613   0.00000  Uiso   1.00
O552   O     0.83333   0.79375   0.23720   0.00000  Uiso   1.00
O553   O     0.83333   0.87292   0.23720   0.00000  Uiso   1.00
O554   O     0.83333   0.79375   0.09613   0.00000  Uiso   1.00
C555   C     0.83320   0.83333   0.07363   0.00000  Uiso   1.00
C556   C     0.83347   0.83333   0.25970   0.00000  Uiso   1.00
Cu557  Cu    0.83333   0.88022   0.16667   0.00000  Uiso   1.00
Cu558  Cu    0.83333   0.78645   0.16667   0.00000  Uiso   1.00
C559   C     0.83329   0.83334   0.02188   0.00000  Uiso   1.00
C560   C     0.83338   0.83334   0.31146   0.00000  Uiso   1.00
C561   C     0.68732   0.79133   0.17567   0.00000  Uiso   1.00
C562   C     0.97946   0.87601   0.15754   0.00000  Uiso   1.00
C563   C     0.97935   0.79133   0.15769   0.00000  Uiso   1.00
C564   C     0.68721   0.87601   0.17582   0.00000  Uiso   1.00
C565   C     0.95750   0.83366   0.15669   0.00000  Uiso   1.00
C566   C     0.70917   0.83365   0.17667   0.00000  Uiso   1.00
C567   C     0.81428   0.69130   0.12878   0.00000  Uiso   1.00
C568   C     0.85296   0.97530   0.20412   0.00000  Uiso   1.00
C569   C     0.85239   0.69130   0.20455   0.00000  Uiso   1.00
C570   C     0.81371   0.97529   0.12921   0.00000  Uiso   1.00
N571   N     0.83333   0.95069   0.16667   0.00000  Uiso   1.00
N572   N     0.83333   0.71598   0.16667   0.00000  Uiso   1.00
C573   C     0.69982   0.75442   0.21349   0.00000  Uiso   1.00
C574   C     0.71827   0.71044   0.19233   0.00000  Uiso   1.00
H575   H     0.70179   0.69904   0.15791   0.00000  Uiso   1.00
H576   H     0.75131   0.71543   0.18566   0.00000  Uiso   1.00
H577   H     0.71663   0.68250   0.22016   0.00000  Uiso   1.00
H578   H     0.72227   0.76884   0.24161   0.00000  Uiso   1.00
H579   H     0.67223   0.74463   0.23429   0.00000  Uiso   1.00
C580   C     0.96262   0.91920   0.13107   0.00000  Uiso   1.00
C581   C     0.94772   0.90882   0.07798   0.00000  Uiso   1.00
H582   H     0.97308   0.89286   0.05743   0.00000  Uiso   1.00
H583   H     0.92073   0.88511   0.07676   0.00000  Uiso   1.00
H584   H     0.93822   0.94158   0.05926   0.00000  Uiso   1.00
H585   H     0.93778   0.93598   0.15140   0.00000  Uiso   1.00
H586   H     0.98739   0.94558   0.12803   0.00000  Uiso   1.00
C587   C     0.96686   0.75442   0.11987   0.00000  Uiso   1.00
C588   C     0.94835   0.71047   0.14102   0.00000  Uiso   1.00
H589   H     0.95016   0.68246   0.11330   0.00000  Uiso   1.00
H590   H     0.96467   0.69918   0.17558   0.00000  Uiso   1.00
H591   H     0.91526   0.71543   0.14744   0.00000  Uiso   1.00
H592   H     0.94444   0.76886   0.09172   0.00000  Uiso   1.00
H593   H     0.99446   0.74460   0.09911   0.00000  Uiso   1.00
C594   C     0.70405   0.91921   0.20229   0.00000  Uiso   1.00
C595   C     0.71896   0.90883   0.25537   0.00000  Uiso   1.00
H596   H     0.69361   0.89287   0.27593   0.00000  Uiso   1.00
H597   H     0.74595   0.88511   0.25659   0.00000  Uiso   1.00
H598   H     0.72847   0.94159   0.27409   0.00000  Uiso   1.00
H599   H     0.72890   0.93598   0.18195   0.00000  Uiso   1.00
H600   H     0.67930   0.94559   0.20532   0.00000  Uiso   1.00
N601   N     0.79417   0.71490   0.08814   0.00000  Uiso   1.00
O602   O     0.75656   0.73004   0.09151   0.00000  Uiso   1.00
O603   O     0.81034   0.71363   0.04513   0.00000  Uiso   1.00
N604   N     0.87488   0.95159   0.24337   0.00000  Uiso   1.00
O605   O     0.85947   0.95051   0.28684   0.00000  Uiso   1.00
O606   O     0.91369   0.94135   0.23910   0.00000  Uiso   1.00
N607   N     0.87250   0.71491   0.24519   0.00000  Uiso   1.00
O608   O     0.91008   0.73010   0.24180   0.00000  Uiso   1.00
O609   O     0.85633   0.71362   0.28821   0.00000  Uiso   1.00
N610   N     0.79179   0.95158   0.08996   0.00000  Uiso   1.00
O611   O     0.80719   0.95051   0.04649   0.00000  Uiso   1.00
O612   O     0.75298   0.94134   0.09424   0.00000  Uiso   1.00
O613   O     0.10655   0.20625   0.50000   0.00000  Uiso   1.00
O614   O     0.22679   0.12709   0.50000   0.00000  Uiso   1.00
O615   O     0.22679   0.20625   0.50000   0.00000  Uiso   1.00
O616   O     0.10655   0.12709   0.50000   0.00000  Uiso   1.00
C617   C     0.08760   0.16671   0.50478   0.00000  Uiso   1.00
C618   C     0.24573   0.16671   0.49523   0.00000  Uiso   1.00
O619   O     0.16667   0.20625   0.42946   0.00000  Uiso   1.00
O620   O     0.16667   0.12708   0.57054   0.00000  Uiso   1.00
O621   O     0.16667   0.20625   0.57054   0.00000  Uiso   1.00
O622   O     0.16667   0.12708   0.42946   0.00000  Uiso   1.00
C623   C     0.16653   0.16667   0.40697   0.00000  Uiso   1.00
C624   C     0.16680   0.16667   0.59303   0.00000  Uiso   1.00
Cu625  Cu    0.16667   0.21355   0.50000   0.00000  Uiso   1.00
Cu626  Cu    0.16667   0.11978   0.50000   0.00000  Uiso   1.00
C627   C     0.16662   0.16667   0.35521   0.00000  Uiso   1.00
C628   C     0.16671   0.16667   0.64479   0.00000  Uiso   1.00
C629   C     0.02065   0.12466   0.50901   0.00000  Uiso   1.00
C630   C     0.31280   0.20934   0.49088   0.00000  Uiso   1.00
C631   C     0.31268   0.12466   0.49102   0.00000  Uiso   1.00
C632   C     0.02054   0.20934   0.50915   0.00000  Uiso   1.00
C633   C     0.29083   0.16699   0.49002   0.00000  Uiso   1.00
C634   C     0.04251   0.16699   0.51000   0.00000  Uiso   1.00
C635   C     0.14761   0.02463   0.46211   0.00000  Uiso   1.00
C636   C     0.18629   0.30863   0.53746   0.00000  Uiso   1.00
C637   C     0.18572   0.02463   0.53789   0.00000  Uiso   1.00
C638   C     0.14704   0.30863   0.46254   0.00000  Uiso   1.00
N639   N     0.16667   0.28402   0.50000   0.00000  Uiso   1.00
N640   N     0.16667   0.04931   0.50000   0.00000  Uiso   1.00
C641   C     0.03315   0.08775   0.54682   0.00000  Uiso   1.00
C642   C     0.05160   0.04378   0.52567   0.00000  Uiso   1.00
H643   H     0.03513   0.03237   0.49124   0.00000  Uiso   1.00
H644   H     0.08465   0.04877   0.51899   0.00000  Uiso   1.00
H645   H     0.04996   0.01583   0.55349   0.00000  Uiso   1.00
H646   H     0.05561   0.10217   0.57494   0.00000  Uiso   1.00
H647   H     0.00556   0.07796   0.56762   0.00000  Uiso   1.00
C648   C     0.29596   0.25254   0.46440   0.00000  Uiso   1.00
C649   C     0.28105   0.24216   0.41132   0.00000  Uiso   1.00
H650   H     0.30641   0.22620   0.39076   0.00000  Uiso   1.00
H651   H     0.25406   0.21844   0.41009   0.00000  Uiso   1.00
H652   H     0.27156   0.27492   0.39259   0.00000  Uiso   1.00
H653   H     0.27111   0.26931   0.48473   0.00000  Uiso   1.00
H654   H     0.32072   0.27891   0.46137   0.00000  Uiso   1.00
C655   C     0.30019   0.08776   0.45320   0.00000  Uiso   1.00
C656   C     0.28168   0.04381   0.47435   0.00000  Uiso   1.00
H657   H     0.28349   0.01580   0.44664   0.00000  Uiso   1.00
H658   H     0.29800   0.03251   0.50892   0.00000  Uiso   1.00
H659   H     0.24859   0.04876   0.48077   0.00000  Uiso   1.00
H660   H     0.27777   0.10219   0.42505   0.00000  Uiso   1.00
H661   H     0.32779   0.07793   0.43244   0.00000  Uiso   1.00
C662   C     0.03739   0.25254   0.53562   0.00000  Uiso   1.00
C663   C     0.05230   0.24216   0.58870   0.00000  Uiso   1.00
H664   H     0.02694   0.22621   0.60926   0.00000  Uiso   1.00
H665   H     0.07928   0.21844   0.58992   0.00000  Uiso   1.00
H666   H     0.06180   0.27492   0.60743   0.00000  Uiso   1.00
H667   H     0.06223   0.26931   0.51529   0.00000  Uiso   1.00
H668   H     0.01263   0.27892   0.53866   0.00000  Uiso   1.00
N669   N     0.12750   0.04824   0.42148   0.00000  Uiso   1.00
O670   O     0.08989   0.06337   0.42485   0.00000  Uiso   1.00
O671   O     0.14367   0.04697   0.37846   0.00000  Uiso   1.00
N672   N     0.20821   0.28492   0.57671   0.00000  Uiso   1.00
O673   O     0.19281   0.28384   0.62018   0.00000  Uiso   1.00
O674   O     0.24702   0.27469   0.57243   0.00000  Uiso   1.00
N675   N     0.20583   0.04824   0.57853   0.00000  Uiso   1.00
O676   O     0.24342   0.06344   0.57514   0.00000  Uiso   1.00
O677   O     0.18967   0.04695   0.62154   0.00000  Uiso   1.00
N678   N     0.12512   0.28492   0.42329   0.00000  Uiso   1.00
O679   O     0.14052   0.28384   0.37982   0.00000  Uiso   1.00
O680   O     0.08631   0.27468   0.42757   0.00000  Uiso   1.00
O681   O     0.43988   0.20625   0.50000   0.00000  Uiso   1.00
O682   O     0.56012   0.12709   0.50000   0.00000  Uiso   1.00
O683   O     0.56012   0.20625   0.50000   0.00000  Uiso   1.00
O684   O     0.43988   0.12709   0.50000   0.00000  Uiso   1.00
C685   C     0.42094   0.16671   0.50478   0.00000  Uiso   1.00
C686   C     0.57906   0.16671   0.49523   0.00000  Uiso   1.00
O687   O     0.50000   0.20625   0.42946   0.00000  Uiso   1.00
O688   O     0.50000   0.12708   0.57054   0.00000  Uiso   1.00
O689   O     0.50000   0.20625   0.57054   0.00000  Uiso   1.00
O690   O     0.50000   0.12708   0.42946   0.00000  Uiso   1.00
C691   C     0.49987   0.16667   0.40697   0.00000  Uiso   1.00
C692   C     0.50013   0.16667   0.59303   0.00000  Uiso   1.00
Cu693  Cu    0.50000   0.21355   0.50000   0.00000  Uiso   1.00
Cu694  Cu    0.50000   0.11978   0.50000   0.00000  Uiso   1.00
C695   C     0.49996   0.16667   0.35521   0.00000  Uiso   1.00
C696   C     0.50004   0.16667   0.64479   0.00000  Uiso   1.00
C697   C     0.35398   0.12466   0.50901   0.00000  Uiso   1.00
C698   C     0.64613   0.20934   0.49088   0.00000  Uiso   1.00
C699   C     0.64602   0.12466   0.49102   0.00000  Uiso   1.00
C700   C     0.35387   0.20934   0.50915   0.00000  Uiso   1.00
C701   C     0.62416   0.16699   0.49002   0.00000  Uiso   1.00
C702   C     0.37584   0.16699   0.51000   0.00000  Uiso   1.00
C703   C     0.48094   0.02463   0.46211   0.00000  Uiso   1.00
C704   C     0.51962   0.30863   0.53746   0.00000  Uiso   1.00
C705   C     0.51906   0.02463   0.53789   0.00000  Uiso   1.00
C706   C     0.48037   0.30863   0.46254   0.00000  Uiso   1.00
N707   N     0.50000   0.28402   0.50000   0.00000  Uiso   1.00
N708   N     0.50000   0.04931   0.50000   0.00000  Uiso   1.00
C709   C     0.36648   0.08775   0.54682   0.00000  Uiso   1.00
C710   C     0.38494   0.04378   0.52567   0.00000  Uiso   1.00
H711   H     0.36846   0.03237   0.49124   0.00000  Uiso   1.00
H712   H     0.41798   0.04877   0.51899   0.00000  Uiso   1.00
H713   H     0.38329   0.01583   0.55349   0.00000  Uiso   1.00
H714   H     0.38894   0.10217   0.57494   0.00000  Uiso   1.00
H715   H     0.33889   0.07796   0.56762   0.00000  Uiso   1.00
C716   C     0.62929   0.25254   0.46440   0.00000  Uiso   1.00
C717   C     0.61439   0.24216   0.41132   0.00000  Uiso   1.00
H718   H     0.63974   0.22620   0.39076   0.00000  Uiso   1.00
H719   H     0.58740   0.21844   0.41009   0.00000  Uiso   1.00
H720   H     0.60489   0.27492   0.39259   0.00000  Uiso   1.00
H721   H     0.60445   0.26931   0.48473   0.00000  Uiso   1.00
H722   H     0.65405   0.27891   0.46137   0.00000  Uiso   1.00
C723   C     0.63352   0.08776   0.45320   0.00000  Uiso   1.00
C724   C     0.61501   0.04381   0.47435   0.00000  Uiso   1.00
H725   H     0.61683   0.01580   0.44664   0.00000  Uiso   1.00
H726   H     0.63134   0.03251   0.50892   0.00000  Uiso   1.00
H727   H     0.58192   0.04876   0.48077   0.00000  Uiso   1.00
H728   H     0.61110   0.10219   0.42505   0.00000  Uiso   1.00
H729   H     0.66112   0.07793   0.43244   0.00000  Uiso   1.00
C730   C     0.37072   0.25254   0.53562   0.00000  Uiso   1.00
C731   C     0.38563   0.24216   0.58870   0.00000  Uiso   1.00
H732   H     0.36027   0.22621   0.60926   0.00000  Uiso   1.00
H733   H     0.41261   0.21844   0.58992   0.00000  Uiso   1.00
H734   H     0.39513   0.27492   0.60743   0.00000  Uiso   1.00
H735   H     0.39556   0.26931   0.51529   0.00000  Uiso   1.00
H736   H     0.34597   0.27892   0.53866   0.00000  Uiso   1.00
N737   N     0.46083   0.04824   0.42148   0.00000  Uiso   1.00
O738   O     0.42322   0.06337   0.42485   0.00000  Uiso   1.00
O739   O     0.47701   0.04697   0.37846   0.00000  Uiso   1.00
N740   N     0.54155   0.28492   0.57671   0.00000  Uiso   1.00
O741   O     0.52614   0.28384   0.62018   0.00000  Uiso   1.00
O742   O     0.58036   0.27469   0.57243   0.00000  Uiso   1.00
N743   N     0.53916   0.04824   0.57853   0.00000  Uiso   1.00
O744   O     0.57675   0.06344   0.57514   0.00000  Uiso   1.00
O745   O     0.52300   0.04695   0.62154   0.00000  Uiso   1.00
N746   N     0.45845   0.28492   0.42329   0.00000  Uiso   1.00
O747   O     0.47385   0.28384   0.37982   0.00000  Uiso   1.00
O748   O     0.41964   0.27468   0.42757   0.00000  Uiso   1.00
O749   O     0.77321   0.20625   0.50000   0.00000  Uiso   1.00
O750   O     0.89345   0.12709   0.50000   0.00000  Uiso   1.00
O751   O     0.89345   0.20625   0.50000   0.00000  Uiso   1.00
O752   O     0.77321   0.12709   0.50000   0.00000  Uiso   1.00
C753   C     0.75427   0.16671   0.50478   0.00000  Uiso   1.00
C754   C     0.91240   0.16671   0.49523   0.00000  Uiso   1.00
O755   O     0.83333   0.20625   0.42946   0.00000  Uiso   1.00
O756   O     0.83333   0.12708   0.57054   0.00000  Uiso   1.00
O757   O     0.83333   0.20625   0.57054   0.00000  Uiso   1.00
O758   O     0.83333   0.12708   0.42946   0.00000  Uiso   1.00
C759   C     0.83320   0.16667   0.40697   0.00000  Uiso   1.00
C760   C     0.83347   0.16667   0.59303   0.00000  Uiso   1.00
Cu761  Cu    0.83333   0.21355   0.50000   0.00000  Uiso   1.00
Cu762  Cu    0.83333   0.11978   0.50000   0.00000  Uiso   1.00
C763   C     0.83329   0.16667   0.35521   0.00000  Uiso   1.00
C764   C     0.83338   0.16667   0.64479   0.00000  Uiso   1.00
C765   C     0.68732   0.12466   0.50901   0.00000  Uiso   1.00
C766   C     0.97946   0.20934   0.49088   0.00000  Uiso   1.00
C767   C     0.97935   0.12466   0.49102   0.00000  Uiso   1.00
C768   C     0.68721   0.20934   0.50915   0.00000  Uiso   1.00
C769   C     0.95750   0.16699   0.49002   0.00000  Uiso   1.00
C770   C     0.70917   0.16699   0.51000   0.00000  Uiso   1.00
C771   C     0.81428   0.02463   0.46211   0.00000  Uiso   1.00
C772   C     0.85296   0.30863   0.53746   0.00000  Uiso   1.00
C773   C     0.85239   0.02463   0.53789   0.00000  Uiso   1.00
C774   C     0.81371   0.30863   0.46254   0.00000  Uiso   1.00
N775   N     0.83333   0.28402   0.50000   0.00000  Uiso   1.00
N776   N     0.83333   0.04931   0.50000   0.00000  Uiso   1.00
C777   C     0.69982   0.08775   0.54682   0.00000  Uiso   1.00
C778   C     0.71827   0.04378   0.52567   0.00000  Uiso   1.00
H779   H     0.70179   0.03237   0.49124   0.00000  Uiso   1.00
H780   H     0.75131   0.04877   0.51899   0.00000  Uiso   1.00
H781   H     0.71663   0.01583   0.55349   0.00000  Uiso   1.00
H782   H     0.72227   0.10217   0.57494   0.00000  Uiso   1.00
H783   H     0.67223   0.07796   0.56762   0.00000  Uiso   1.00
C784   C     0.96262   0.25254   0.46440   0.00000  Uiso   1.00
C785   C     0.94772   0.24216   0.41132   0.00000  Uiso   1.00
H786   H     0.97308   0.22620   0.39076   0.00000  Uiso   1.00
H787   H     0.92073   0.21844   0.41009   0.00000  Uiso   1.00
H788   H     0.93822   0.27492   0.39259   0.00000  Uiso   1.00
H789   H     0.93778   0.26931   0.48473   0.00000  Uiso   1.00
H790   H     0.98739   0.27891   0.46137   0.00000  Uiso   1.00
C791   C     0.96686   0.08776   0.45320   0.00000  Uiso   1.00
C792   C     0.94835   0.04381   0.47435   0.00000  Uiso   1.00
H793   H     0.95016   0.01580   0.44664   0.00000  Uiso   1.00
H794   H     0.96467   0.03251   0.50892   0.00000  Uiso   1.00
H795   H     0.91526   0.04876   0.48077   0.00000  Uiso   1.00
H796   H     0.94444   0.10219   0.42505   0.00000  Uiso   1.00
H797   H     0.99446   0.07793   0.43244   0.00000  Uiso   1.00
C798   C     0.70405   0.25254   0.53562   0.00000  Uiso   1.00
C799   C     0.71896   0.24216   0.58870   0.00000  Uiso   1.00
H800   H     0.69361   0.22621   0.60926   0.00000  Uiso   1.00
H801   H     0.74595   0.21844   0.58992   0.00000  Uiso   1.00
H802   H     0.72847   0.27492   0.60743   0.00000  Uiso   1.00
H803   H     0.72890   0.26931   0.51529   0.00000  Uiso   1.00
H804   H     0.67930   0.27892   0.53866   0.00000  Uiso   1.00
N805   N     0.79417   0.04824   0.42148   0.00000  Uiso   1.00
O806   O     0.75656   0.06337   0.42485   0.00000  Uiso   1.00
O807   O     0.81034   0.04697   0.37846   0.00000  Uiso   1.00
N808   N     0.87488   0.28492   0.57671   0.00000  Uiso   1.00
O809   O     0.85947   0.28384   0.62018   0.00000  Uiso   1.00
O810   O     0.91369   0.27469   0.57243   0.00000  Uiso   1.00
N811   N     0.87250   0.04824   0.57853   0.00000  Uiso   1.00
O812   O     0.91008   0.06344   0.57514   0.00000  Uiso   1.00
O813   O     0.85633   0.04695   0.62154   0.00000  Uiso   1.00
N814   N     0.79179   0.28492   0.42329   0.00000  Uiso   1.00
O815   O     0.80719   0.28384   0.37982   0.00000  Uiso   1.00
O816   O     0.75298   0.27468   0.42757   0.00000  Uiso   1.00
O817   O     0.10655   0.53958   0.50000   0.00000  Uiso   1.00
O818   O     0.22679   0.46042   0.50000   0.00000  Uiso   1.00
O819   O     0.22679   0.53958   0.50000   0.00000  Uiso   1.00
O820   O     0.10655   0.46042   0.50000   0.00000  Uiso   1.00
C821   C     0.08760   0.50005   0.50478   0.00000  Uiso   1.00
C822   C     0.24573   0.50005   0.49523   0.00000  Uiso   1.00
O823   O     0.16667   0.53959   0.42946   0.00000  Uiso   1.00
O824   O     0.16667   0.46041   0.57054   0.00000  Uiso   1.00
O825   O     0.16667   0.53959   0.57054   0.00000  Uiso   1.00
O826   O     0.16667   0.46041   0.42946   0.00000  Uiso   1.00
C827   C     0.16653   0.50000   0.40697   0.00000  Uiso   1.00
C828   C     0.16680   0.50000   0.59303   0.00000  Uiso   1.00
Cu829  Cu    0.16667   0.54689   0.50000   0.00000  Uiso   1.00
Cu830  Cu    0.16667   0.45311   0.50000   0.00000  Uiso   1.00
C831   C     0.16662   0.50000   0.35521   0.00000  Uiso   1.00
C832   C     0.16671   0.50000   0.64479   0.00000  Uiso   1.00
C833   C     0.02065   0.45799   0.50901   0.00000  Uiso   1.00
C834   C     0.31280   0.54268   0.49088   0.00000  Uiso   1.00
C835   C     0.31268   0.45799   0.49102   0.00000  Uiso   1.00
C836   C     0.02054   0.54268   0.50915   0.00000  Uiso   1.00
C837   C     0.29083   0.50032   0.49002   0.00000  Uiso   1.00
C838   C     0.04251   0.50032   0.51000   0.00000  Uiso   1.00
C839   C     0.14761   0.35796   0.46211   0.00000  Uiso   1.00
C840   C     0.18629   0.64196   0.53746   0.00000  Uiso   1.00
C841   C     0.18572   0.35796   0.53789   0.00000  Uiso   1.00
C842   C     0.14704   0.64196   0.46254   0.00000  Uiso   1.00
N843   N     0.16667   0.61736   0.50000   0.00000  Uiso   1.00
N844   N     0.16667   0.38264   0.50000   0.00000  Uiso   1.00
C845   C     0.03315   0.42109   0.54682   0.00000  Uiso   1.00
C846   C     0.05160   0.37711   0.52567   0.00000  Uiso   1.00
H847   H     0.03513   0.36570   0.49124   0.00000  Uiso   1.00
H848   H     0.08465   0.38210   0.51899   0.00000  Uiso   1.00
H849   H     0.04996   0.34917   0.55349   0.00000  Uiso   1.00
H850   H     0.05561   0.43551   0.57494   0.00000  Uiso   1.00
H851   H     0.00556   0.41130   0.56762   0.00000  Uiso   1.00
C852   C     0.29596   0.58587   0.46440   0.00000  Uiso   1.00
C853   C     0.28105   0.57549   0.41132   0.00000  Uiso   1.00
H854   H     0.30641   0.55953   0.39076   0.00000  Uiso   1.00
H855   H     0.25406   0.55178   0.41009   0.00000  Uiso   1.00
H856   H     0.27156   0.60825   0.39259   0.00000  Uiso   1.00
H857   H     0.27111   0.60265   0.48473   0.00000  Uiso   1.00
H858   H     0.32072   0.61224   0.46137   0.00000  Uiso   1.00
C859   C     0.30019   0.42109   0.45320   0.00000  Uiso   1.00
C860   C     0.28168   0.37714   0.47435   0.00000  Uiso   1.00
H861   H     0.28349   0.34913   0.44664   0.00000  Uiso   1.00
H862   H     0.29800   0.36585   0.50892   0.00000  Uiso   1.00
H863   H     0.24859   0.38210   0.48077   0.00000  Uiso   1.00
H864   H     0.27777   0.43552   0.42505   0.00000  Uiso   1.00
H865   H     0.32779   0.41126   0.43244   0.00000  Uiso   1.00
C866   C     0.03739   0.58587   0.53562   0.00000  Uiso   1.00
C867   C     0.05230   0.57549   0.58870   0.00000  Uiso   1.00
H868   H     0.02694   0.55954   0.60926   0.00000  Uiso   1.00
H869   H     0.07928   0.55177   0.58992   0.00000  Uiso   1.00
H870   H     0.06180   0.60825   0.60743   0.00000  Uiso   1.00
H871   H     0.06223   0.60265   0.51529   0.00000  Uiso   1.00
H872   H     0.01263   0.61225   0.53866   0.00000  Uiso   1.00
N873   N     0.12750   0.38157   0.42148   0.00000  Uiso   1.00
O874   O     0.08989   0.39671   0.42485   0.00000  Uiso   1.00
O875   O     0.14367   0.38030   0.37846   0.00000  Uiso   1.00
N876   N     0.20821   0.61825   0.57671   0.00000  Uiso   1.00
O877   O     0.19281   0.61717   0.62018   0.00000  Uiso   1.00
O878   O     0.24702   0.60802   0.57243   0.00000  Uiso   1.00
N879   N     0.20583   0.38157   0.57853   0.00000  Uiso   1.00
O880   O     0.24342   0.39677   0.57514   0.00000  Uiso   1.00
O881   O     0.18967   0.38028   0.62154   0.00000  Uiso   1.00
N882   N     0.12512   0.61825   0.42329   0.00000  Uiso   1.00
O883   O     0.14052   0.61718   0.37982   0.00000  Uiso   1.00
O884   O     0.08631   0.60801   0.42757   0.00000  Uiso   1.00
O885   O     0.43988   0.53958   0.50000   0.00000  Uiso   1.00
O886   O     0.56012   0.46042   0.50000   0.00000  Uiso   1.00
O887   O     0.56012   0.53958   0.50000   0.00000  Uiso   1.00
O888   O     0.43988   0.46042   0.50000   0.00000  Uiso   1.00
C889   C     0.42094   0.50005   0.50478   0.00000  Uiso   1.00
C890   C     0.57906   0.50005   0.49523   0.00000  Uiso   1.00
O891   O     0.50000   0.53959   0.42946   0.00000  Uiso   1.00
O892   O     0.50000   0.46041   0.57054   0.00000  Uiso   1.00
O893   O     0.50000   0.53959   0.57054   0.00000  Uiso   1.00
O894   O     0.50000   0.46041   0.42946   0.00000  Uiso   1.00
C895   C     0.49987   0.50000   0.40697   0.00000  Uiso   1.00
C896   C     0.50013   0.50000   0.59303   0.00000  Uiso   1.00
Cu897  Cu    0.50000   0.54689   0.50000   0.00000  Uiso   1.00
Cu898  Cu    0.50000   0.45311   0.50000   0.00000  Uiso   1.00
C899   C     0.49996   0.50000   0.35521   0.00000  Uiso   1.00
C900   C     0.50004   0.50000   0.64479   0.00000  Uiso   1.00
C901   C     0.35398   0.45799   0.50901   0.00000  Uiso   1.00
C902   C     0.64613   0.54268   0.49088   0.00000  Uiso   1.00
C903   C     0.64602   0.45799   0.49102   0.00000  Uiso   1.00
C904   C     0.35387   0.54268   0.50915   0.00000  Uiso   1.00
C905   C     0.62416   0.50032   0.49002   0.00000  Uiso   1.00
C906   C     0.37584   0.50032   0.51000   0.00000  Uiso   1.00
C907   C     0.48094   0.35796   0.46211   0.00000  Uiso   1.00
C908   C     0.51962   0.64196   0.53746   0.00000  Uiso   1.00
C909   C     0.51906   0.35796   0.53789   0.00000  Uiso   1.00
C910   C     0.48037   0.64196   0.46254   0.00000  Uiso   1.00
N911   N     0.50000   0.61736   0.50000   0.00000  Uiso   1.00
N912   N     0.50000   0.38264   0.50000   0.00000  Uiso   1.00
C913   C     0.36648   0.42109   0.54682   0.00000  Uiso   1.00
C914   C     0.38494   0.37711   0.52567   0.00000  Uiso   1.00
H915   H     0.36846   0.36570   0.49124   0.00000  Uiso   1.00
H916   H     0.41798   0.38210   0.51899   0.00000  Uiso   1.00
H917   H     0.38329   0.34917   0.55349   0.00000  Uiso   1.00
H918   H     0.38894   0.43551   0.57494   0.00000  Uiso   1.00
H919   H     0.33889   0.41130   0.56762   0.00000  Uiso   1.00
C920   C     0.62929   0.58587   0.46440   0.00000  Uiso   1.00
C921   C     0.61439   0.57549   0.41132   0.00000  Uiso   1.00
H922   H     0.63974   0.55953   0.39076   0.00000  Uiso   1.00
H923   H     0.58740   0.55178   0.41009   0.00000  Uiso   1.00
H924   H     0.60489   0.60825   0.39259   0.00000  Uiso   1.00
H925   H     0.60445   0.60265   0.48473   0.00000  Uiso   1.00
H926   H     0.65405   0.61224   0.46137   0.00000  Uiso   1.00
C927   C     0.63352   0.42109   0.45320   0.00000  Uiso   1.00
C928   C     0.61501   0.37714   0.47435   0.00000  Uiso   1.00
H929   H     0.61683   0.34913   0.44664   0.00000  Uiso   1.00
H930   H     0.63134   0.36585   0.50892   0.00000  Uiso   1.00
H931   H     0.58192   0.38210   0.48077   0.00000  Uiso   1.00
H932   H     0.61110   0.43552   0.42505   0.00000  Uiso   1.00
H933   H     0.66112   0.41126   0.43244   0.00000  Uiso   1.00
C934   C     0.37072   0.58587   0.53562   0.00000  Uiso   1.00
C935   C     0.38563   0.57549   0.58870   0.00000  Uiso   1.00
H936   H     0.36027   0.55954   0.60926   0.00000  Uiso   1.00
H937   H     0.41261   0.55177   0.58992   0.00000  Uiso   1.00
H938   H     0.39513   0.60825   0.60743   0.00000  Uiso   1.00
H939   H     0.39556   0.60265   0.51529   0.00000  Uiso   1.00
H940   H     0.34597   0.61225   0.53866   0.00000  Uiso   1.00
N941   N     0.46083   0.38157   0.42148   0.00000  Uiso   1.00
O942   O     0.42322   0.39671   0.42485   0.00000  Uiso   1.00
O943   O     0.47701   0.38030   0.37846   0.00000  Uiso   1.00
N944   N     0.54155   0.61825   0.57671   0.00000  Uiso   1.00
O945   O     0.52614   0.61717   0.62018   0.00000  Uiso   1.00
O946   O     0.58036   0.60802   0.57243   0.00000  Uiso   1.00
N947   N     0.53916   0.38157   0.57853   0.00000  Uiso   1.00
O948   O     0.57675   0.39677   0.57514   0.00000  Uiso   1.00
O949   O     0.52300   0.38028   0.62154   0.00000  Uiso   1.00
N950   N     0.45845   0.61825   0.42329   0.00000  Uiso   1.00
O951   O     0.47385   0.61718   0.37982   0.00000  Uiso   1.00
O952   O     0.41964   0.60801   0.42757   0.00000  Uiso   1.00
O953   O     0.77321   0.53958   0.50000   0.00000  Uiso   1.00
O954   O     0.89345   0.46042   0.50000   0.00000  Uiso   1.00
O955   O     0.89345   0.53958   0.50000   0.00000  Uiso   1.00
O956   O     0.77321   0.46042   0.50000   0.00000  Uiso   1.00
C957   C     0.75427   0.50005   0.50478   0.00000  Uiso   1.00
C958   C     0.91240   0.50005   0.49523   0.00000  Uiso   1.00
O959   O     0.83333   0.53959   0.42946   0.00000  Uiso   1.00
O960   O     0.83333   0.46041   0.57054   0.00000  Uiso   1.00
O961   O     0.83333   0.53959   0.57054   0.00000  Uiso   1.00
O962   O     0.83333   0.46041   0.42946   0.00000  Uiso   1.00
C963   C     0.83320   0.50000   0.40697   0.00000  Uiso   1.00
C964   C     0.83347   0.50000   0.59303   0.00000  Uiso   1.00
Cu965  Cu    0.83333   0.54689   0.50000   0.00000  Uiso   1.00
Cu966  Cu    0.83333   0.45311   0.50000   0.00000  Uiso   1.00
C967   C     0.83329   0.50000   0.35521   0.00000  Uiso   1.00
C968   C     0.83338   0.50000   0.64479   0.00000  Uiso   1.00
C969   C     0.68732   0.45799   0.50901   0.00000  Uiso   1.00
C970   C     0.97946   0.54268   0.49088   0.00000  Uiso   1.00
C971   C     0.97935   0.45799   0.49102   0.00000  Uiso   1.00
C972   C     0.68721   0.54268   0.50915   0.00000  Uiso   1.00
C973   C     0.95750   0.50032   0.49002   0.00000  Uiso   1.00
C974   C     0.70917   0.50032   0.51000   0.00000  Uiso   1.00
C975   C     0.81428   0.35796   0.46211   0.00000  Uiso   1.00
C976   C     0.85296   0.64196   0.53746   0.00000  Uiso   1.00
C977   C     0.85239   0.35796   0.53789   0.00000  Uiso   1.00
C978   C     0.81371   0.64196   0.46254   0.00000  Uiso   1.00
N979   N     0.83333   0.61736   0.50000   0.00000  Uiso   1.00
N980   N     0.83333   0.38264   0.50000   0.00000  Uiso   1.00
C981   C     0.69982   0.42109   0.54682   0.00000  Uiso   1.00
C982   C     0.71827   0.37711   0.52567   0.00000  Uiso   1.00
H983   H     0.70179   0.36570   0.49124   0.00000  Uiso   1.00
H984   H     0.75131   0.38210   0.51899   0.00000  Uiso   1.00
H985   H     0.71663   0.34917   0.55349   0.00000  Uiso   1.00
H986   H     0.72227   0.43551   0.57494   0.00000  Uiso   1.00
H987   H     0.67223   0.41130   0.56762   0.00000  Uiso   1.00
C988   C     0.96262   0.58587   0.46440   0.00000  Uiso   1.00
C989   C     0.94772   0.57549   0.41132   0.00000  Uiso   1.00
H990   H     0.97308   0.55953   0.39076   0.00000  Uiso   1.00
H991   H     0.92073   0.55178   0.41009   0.00000  Uiso   1.00
H992   H     0.93822   0.60825   0.39259   0.00000  Uiso   1.00
H993   H     0.93778   0.60265   0.48473   0.00000  Uiso   1.00
H994   H     0.98739   0.61224   0.46137   0.00000  Uiso   1.00
C995   C     0.96686   0.42109   0.45320   0.00000  Uiso   1.00
C996   C     0.94835   0.37714   0.47435   0.00000  Uiso   1.00
H997   H     0.95016   0.34913   0.44664   0.00000  Uiso   1.00
H998   H     0.96467   0.36585   0.50892   0.00000  Uiso   1.00
H999   H     0.91526   0.38210   0.48077   0.00000  Uiso   1.00
H1000  H     0.94444   0.43552   0.42505   0.00000  Uiso   1.00
H1001  H     0.99446   0.41126   0.43244   0.00000  Uiso   1.00
C1002  C     0.70405   0.58587   0.53562   0.00000  Uiso   1.00
C1003  C     0.71896   0.57549   0.58870   0.00000  Uiso   1.00
H1004  H     0.69361   0.55954   0.60926   0.00000  Uiso   1.00
H1005  H     0.74595   0.55177   0.58992   0.00000  Uiso   1.00
H1006  H     0.72847   0.60825   0.60743   0.00000  Uiso   1.00
H1007  H     0.72890   0.60265   0.51529   0.00000  Uiso   1.00
H1008  H     0.67930   0.61225   0.53866   0.00000  Uiso   1.00
N1009  N     0.79417   0.38157   0.42148   0.00000  Uiso   1.00
O1010  O     0.75656   0.39671   0.42485   0.00000  Uiso   1.00
O1011  O     0.81034   0.38030   0.37846   0.00000  Uiso   1.00
N1012  N     0.87488   0.61825   0.57671   0.00000  Uiso   1.00
O1013  O     0.85947   0.61717   0.62018   0.00000  Uiso   1.00
O1014  O     0.91369   0.60802   0.57243   0.00000  Uiso   1.00
N1015  N     0.87250   0.38157   0.57853   0.00000  Uiso   1.00
O1016  O     0.91008   0.39677   0.57514   0.00000  Uiso   1.00
O1017  O     0.85633   0.38028   0.62154   0.00000  Uiso   1.00
N1018  N     0.79179   0.61825   0.42329   0.00000  Uiso   1.00
O1019  O     0.80719   0.61718   0.37982   0.00000  Uiso   1.00
O1020  O     0.75298   0.60801   0.42757   0.00000  Uiso   1.00
O1021  O     0.10655   0.87291   0.50000   0.00000  Uiso   1.00
O1022  O     0.22679   0.79375   0.50000   0.00000  Uiso   1.00
O1023  O     0.22679   0.87291   0.50000   0.00000  Uiso   1.00
O1024  O     0.10655   0.79375   0.50000   0.00000  Uiso   1.00
C1025  C     0.08760   0.83338   0.50478   0.00000  Uiso   1.00
C1026  C     0.24573   0.83338   0.49523   0.00000  Uiso   1.00
O1027  O     0.16667   0.87292   0.42946   0.00000  Uiso   1.00
O1028  O     0.16667   0.79375   0.57054   0.00000  Uiso   1.00
O1029  O     0.16667   0.87292   0.57054   0.00000  Uiso   1.00
O1030  O     0.16667   0.79375   0.42946   0.00000  Uiso   1.00
C1031  C     0.16653   0.83333   0.40697   0.00000  Uiso   1.00
C1032  C     0.16680   0.83333   0.59303   0.00000  Uiso   1.00
Cu1033 Cu    0.16667   0.88022   0.50000   0.00000  Uiso   1.00
Cu1034 Cu    0.16667   0.78645   0.50000   0.00000  Uiso   1.00
C1035  C     0.16662   0.83334   0.35521   0.00000  Uiso   1.00
C1036  C     0.16671   0.83334   0.64479   0.00000  Uiso   1.00
C1037  C     0.02065   0.79133   0.50901   0.00000  Uiso   1.00
C1038  C     0.31280   0.87601   0.49088   0.00000  Uiso   1.00
C1039  C     0.31268   0.79133   0.49102   0.00000  Uiso   1.00
C1040  C     0.02054   0.87601   0.50915   0.00000  Uiso   1.00
C1041  C     0.29083   0.83366   0.49002   0.00000  Uiso   1.00
C1042  C     0.04251   0.83365   0.51000   0.00000  Uiso   1.00
C1043  C     0.14761   0.69130   0.46211   0.00000  Uiso   1.00
C1044  C     0.18629   0.97530   0.53746   0.00000  Uiso   1.00
C1045  C     0.18572   0.69130   0.53789   0.00000  Uiso   1.00
C1046  C     0.14704   0.97529   0.46254   0.00000  Uiso   1.00
N1047  N     0.16667   0.95069   0.50000   0.00000  Uiso   1.00
N1048  N     0.16667   0.71598   0.50000   0.00000  Uiso   1.00
C1049  C     0.03315   0.75442   0.54682   0.00000  Uiso   1.00
C1050  C     0.05160   0.71044   0.52567   0.00000  Uiso   1.00
H1051  H     0.03513   0.69904   0.49124   0.00000  Uiso   1.00
H1052  H     0.08465   0.71543   0.51899   0.00000  Uiso   1.00
H1053  H     0.04996   0.68250   0.55349   0.00000  Uiso   1.00
H1054  H     0.05561   0.76884   0.57494   0.00000  Uiso   1.00
H1055  H     0.00556   0.74463   0.56762   0.00000  Uiso   1.00
C1056  C     0.29596   0.91920   0.46440   0.00000  Uiso   1.00
C1057  C     0.28105   0.90882   0.41132   0.00000  Uiso   1.00
H1058  H     0.30641   0.89286   0.39076   0.00000  Uiso   1.00
H1059  H     0.25406   0.88511   0.41009   0.00000  Uiso   1.00
H1060  H     0.27156   0.94158   0.39259   0.00000  Uiso   1.00
H1061  H     0.27111   0.93598   0.48473   0.00000  Uiso   1.00
H1062  H     0.32072   0.94558   0.46137   0.00000  Uiso   1.00
C1063  C     0.30019   0.75442   0.45320   0.00000  Uiso   1.00
C1064  C     0.28168   0.71047   0.47435   0.00000  Uiso   1.00
H1065  H     0.28349   0.68246   0.44664   0.00000  Uiso   1.00
H1066  H     0.29800   0.69918   0.50892   0.00000  Uiso   1.00
H1067  H     0.24859   0.71543   0.48077   0.00000  Uiso   1.00
H1068  H     0.27777   0.76886   0.42505   0.00000  Uiso   1.00
H1069  H     0.32779   0.74460   0.43244   0.00000  Uiso   1.00
C1070  C     0.03739   0.91921   0.53562   0.00000  Uiso   1.00
C1071  C     0.05230   0.90883   0.58870   0.00000  Uiso   1.00
H1072  H     0.02694   0.89287   0.60926   0.00000  Uiso   1.00
H1073  H     0.07928   0.88511   0.58992   0.00000  Uiso   1.00
H1074  H     0.06180   0.94159   0.60743   0.00000  Uiso   1.00
H1075  H     0.06223   0.93598   0.51529   0.00000  Uiso   1.00
H1076  H     0.01263   0.94559   0.53866   0.00000  Uiso   1.00
N1077  N     0.12750   0.71490   0.42148   0.00000  Uiso   1.00
O1078  O     0.08989   0.73004   0.42485   0.00000  Uiso   1.00
O1079  O     0.14367   0.71363   0.37846   0.00000  Uiso   1.00
N1080  N     0.20821   0.95159   0.57671   0.00000  Uiso   1.00
O1081  O     0.19281   0.95051   0.62018   0.00000  Uiso   1.00
O1082  O     0.24702   0.94135   0.57243   0.00000  Uiso   1.00
N1083  N     0.20583   0.71491   0.57853   0.00000  Uiso   1.00
O1084  O     0.24342   0.73010   0.57514   0.00000  Uiso   1.00
O1085  O     0.18967   0.71362   0.62154   0.00000  Uiso   1.00
N1086  N     0.12512   0.95158   0.42329   0.00000  Uiso   1.00
O1087  O     0.14052   0.95051   0.37982   0.00000  Uiso   1.00
O1088  O     0.08631   0.94134   0.42757   0.00000  Uiso   1.00
O1089  O     0.43988   0.87291   0.50000   0.00000  Uiso   1.00
O1090  O     0.56012   0.79375   0.50000   0.00000  Uiso   1.00
O1091  O     0.56012   0.87291   0.50000   0.00000  Uiso   1.00
O1092  O     0.43988   0.79375   0.50000   0.00000  Uiso   1.00
C1093  C     0.42094   0.83338   0.50478   0.00000  Uiso   1.00
C1094  C     0.57906   0.83338   0.49523   0.00000  Uiso   1.00
O1095  O     0.50000   0.87292   0.42946   0.00000  Uiso   1.00
O1096  O     0.50000   0.79375   0.57054   0.00000  Uiso   1.00
O1097  O     0.50000   0.87292   0.57054   0.00000  Uiso   1.00
O1098  O     0.50000   0.79375   0.42946   0.00000  Uiso   1.00
C1099  C     0.49987   0.83333   0.40697   0.00000  Uiso   1.00
C1100  C     0.50013   0.83333   0.59303   0.00000  Uiso   1.00
Cu1101 Cu    0.50000   0.88022   0.50000   0.00000  Uiso   1.00
Cu1102 Cu    0.50000   0.78645   0.50000   0.00000  Uiso   1.00
C1103  C     0.49996   0.83334   0.35521   0.00000  Uiso   1.00
C1104  C     0.50004   0.83334   0.64479   0.00000  Uiso   1.00
C1105  C     0.35398   0.79133   0.50901   0.00000  Uiso   1.00
C1106  C     0.64613   0.87601   0.49088   0.00000  Uiso   1.00
C1107  C     0.64602   0.79133   0.49102   0.00000  Uiso   1.00
C1108  C     0.35387   0.87601   0.50915   0.00000  Uiso   1.00
C1109  C     0.62416   0.83366   0.49002   0.00000  Uiso   1.00
C1110  C     0.37584   0.83365   0.51000   0.00000  Uiso   1.00
C1111  C     0.48094   0.69130   0.46211   0.00000  Uiso   1.00
C1112  C     0.51962   0.97530   0.53746   0.00000  Uiso   1.00
C1113  C     0.51906   0.69130   0.53789   0.00000  Uiso   1.00
C1114  C     0.48037   0.97529   0.46254   0.00000  Uiso   1.00
N1115  N     0.50000   0.95069   0.50000   0.00000  Uiso   1.00
N1116  N     0.50000   0.71598   0.50000   0.00000  Uiso   1.00
C1117  C     0.36648   0.75442   0.54682   0.00000  Uiso   1.00
C1118  C     0.38494   0.71044   0.52567   0.00000  Uiso   1.00
H1119  H     0.36846   0.69904   0.49124   0.00000  Uiso   1.00
H1120  H     0.41798   0.71543   0.51899   0.00000  Uiso   1.00
H1121  H     0.38329   0.68250   0.55349   0.00000  Uiso   1.00
H1122  H     0.38894   0.76884   0.57494   0.00000  Uiso   1.00
H1123  H     0.33889   0.74463   0.56762   0.00000  Uiso   1.00
C1124  C     0.62929   0.91920   0.46440   0.00000  Uiso   1.00
C1125  C     0.61439   0.90882   0.41132   0.00000  Uiso   1.00
H1126  H     0.63974   0.89286   0.39076   0.00000  Uiso   1.00
H1127  H     0.58740   0.88511   0.41009   0.00000  Uiso   1.00
H1128  H     0.60489   0.94158   0.39259   0.00000  Uiso   1.00
H1129  H     0.60445   0.93598   0.48473   0.00000  Uiso   1.00
H1130  H     0.65405   0.94558   0.46137   0.00000  Uiso   1.00
C1131  C     0.63352   0.75442   0.45320   0.00000  Uiso   1.00
C1132  C     0.61501   0.71047   0.47435   0.00000  Uiso   1.00
H1133  H     0.61683   0.68246   0.44664   0.00000  Uiso   1.00
H1134  H     0.63134   0.69918   0.50892   0.00000  Uiso   1.00
H1135  H     0.58192   0.71543   0.48077   0.00000  Uiso   1.00
H1136  H     0.61110   0.76886   0.42505   0.00000  Uiso   1.00
H1137  H     0.66112   0.74460   0.43244   0.00000  Uiso   1.00
C1138  C     0.37072   0.91921   0.53562   0.00000  Uiso   1.00
C1139  C     0.38563   0.90883   0.58870   0.00000  Uiso   1.00
H1140  H     0.36027   0.89287   0.60926   0.00000  Uiso   1.00
H1141  H     0.41261   0.88511   0.58992   0.00000  Uiso   1.00
H1142  H     0.39513   0.94159   0.60743   0.00000  Uiso   1.00
H1143  H     0.39556   0.93598   0.51529   0.00000  Uiso   1.00
H1144  H     0.34597   0.94559   0.53866   0.00000  Uiso   1.00
N1145  N     0.46083   0.71490   0.42148   0.00000  Uiso   1.00
O1146  O     0.42322   0.73004   0.42485   0.00000  Uiso   1.00
O1147  O     0.47701   0.71363   0.37846   0.00000  Uiso   1.00
N1148  N     0.54155   0.95159   0.57671   0.00000  Uiso   1.00
O1149  O     0.52614   0.95051   0.62018   0.00000  Uiso   1.00
O1150  O     0.58036   0.94135   0.57243   0.00000  Uiso   1.00
N1151  N     0.53916   0.71491   0.57853   0.00000  Uiso   1.00
O1152  O     0.57675   0.73010   0.57514   0.00000  Uiso   1.00
O1153  O     0.52300   0.71362   0.62154   0.00000  Uiso   1.00
N1154  N     0.45845   0.95158   0.42329   0.00000  Uiso   1.00
O1155  O     0.47385   0.95051   0.37982   0.00000  Uiso   1.00
O1156  O     0.41964   0.94134   0.42757   0.00000  Uiso   1.00
O1157  O     0.77321   0.87291   0.50000   0.00000  Uiso   1.00
O1158  O     0.89345   0.79375   0.50000   0.00000  Uiso   1.00
O1159  O     0.89345   0.87291   0.50000   0.00000  Uiso   1.00
O1160  O     0.77321   0.79375   0.50000   0.00000  Uiso   1.00
C1161  C     0.75427   0.83338   0.50478   0.00000  Uiso   1.00
C1162  C     0.91240   0.83338   0.49523   0.00000  Uiso   1.00
O1163  O     0.83333   0.87292   0.42946   0.00000  Uiso   1.00
O1164  O     0.83333   0.79375   0.57054   0.00000  Uiso   1.00
O1165  O     0.83333   0.87292   0.57054   0.00000  Uiso   1.00
O1166  O     0.83333   0.79375   0.42946   0.00000  Uiso   1.00
C1167  C     0.83320   0.83333   0.40697   0.00000  Uiso   1.00
C1168  C     0.83347   0.83333   0.59303   0.00000  Uiso   1.00
Cu1169 Cu    0.83333   0.88022   0.50000   0.00000  Uiso   1.00
Cu1170 Cu    0.83333   0.78645   0.50000   0.00000  Uiso   1.00
C1171  C     0.83329   0.83334   0.35521   0.00000  Uiso   1.00
C1172  C     0.83338   0.83334   0.64479   0.00000  Uiso   1.00
C1173  C     0.68732   0.79133   0.50901   0.00000  Uiso   1.00
C1174  C     0.97946   0.87601   0.49088   0.00000  Uiso   1.00
C1175  C     0.97935   0.79133   0.49102   0.00000  Uiso   1.00
C1176  C     0.68721   0.87601   0.50915   0.00000  Uiso   1.00
C1177  C     0.95750   0.83366   0.49002   0.00000  Uiso   1.00
C1178  C     0.70917   0.83365   0.51000   0.00000  Uiso   1.00
C1179  C     0.81428   0.69130   0.46211   0.00000  Uiso   1.00
C1180  C     0.85296   0.97530   0.53746   0.00000  Uiso   1.00
C1181  C     0.85239   0.69130   0.53789   0.00000  Uiso   1.00
C1182  C     0.81371   0.97529   0.46254   0.00000  Uiso   1.00
N1183  N     0.83333   0.95069   0.50000   0.00000  Uiso   1.00
N1184  N     0.83333   0.71598   0.50000   0.00000  Uiso   1.00
C1185  C     0.69982   0.75442   0.54682   0.00000  Uiso   1.00
C1186  C     0.71827   0.71044   0.52567   0.00000  Uiso   1.00
H1187  H     0.70179   0.69904   0.49124   0.00000  Uiso   1.00
H1188  H     0.75131   0.71543   0.51899   0.00000  Uiso   1.00
H1189  H     0.71663   0.68250   0.55349   0.00000  Uiso   1.00
H1190  H     0.72227   0.76884   0.57494   0.00000  Uiso   1.00
H1191  H     0.67223   0.74463   0.56762   0.00000  Uiso   1.00
C1192  C     0.96262   0.91920   0.46440   0.00000  Uiso   1.00
C1193  C     0.94772   0.90882   0.41132   0.00000  Uiso   1.00
H1194  H     0.97308   0.89286   0.39076   0.00000  Uiso   1.00
H1195  H     0.92073   0.88511   0.41009   0.00000  Uiso   1.00
H1196  H     0.93822   0.94158   0.39259   0.00000  Uiso   1.00
H1197  H     0.93778   0.93598   0.48473   0.00000  Uiso   1.00
H1198  H     0.98739   0.94558   0.46137   0.00000  Uiso   1.00
C1199  C     0.96686   0.75442   0.45320   0.00000  Uiso   1.00
C1200  C     0.94835   0.71047   0.47435   0.00000  Uiso   1.00
H1201  H     0.95016   0.68246   0.44664   0.00000  Uiso   1.00
H1202  H     0.96467   0.69918   0.50892   0.00000  Uiso   1.00
H1203  H     0.91526   0.71543   0.48077   0.00000  Uiso   1.00
H1204  H     0.94444   0.76886   0.42505   0.00000  Uiso   1.00
H1205  H     0.99446   0.74460   0.43244   0.00000  Uiso   1.00
C1206  C     0.70405   0.91921   0.53562   0.00000  Uiso   1.00
C1207  C     0.71896   0.90883   0.58870   0.00000  Uiso   1.00
H1208  H     0.69361   0.89287   0.60926   0.00000  Uiso   1.00
H1209  H     0.74595   0.88511   0.58992   0.00000  Uiso   1.00
H1210  H     0.72847   0.94159   0.60743   0.00000  Uiso   1.00
H1211  H     0.72890   0.93598   0.51529   0.00000  Uiso   1.00
H1212  H     0.67930   0.94559   0.53866   0.00000  Uiso   1.00
N1213  N     0.79417   0.71490   0.42148   0.00000  Uiso   1.00
O1214  O     0.75656   0.73004   0.42485   0.00000  Uiso   1.00
O1215  O     0.81034   0.71363   0.37846   0.00000  Uiso   1.00
N1216  N     0.87488   0.95159   0.57671   0.00000  Uiso   1.00
O1217  O     0.85947   0.95051   0.62018   0.00000  Uiso   1.00
O1218  O     0.91369   0.94135   0.57243   0.00000  Uiso   1.00
N1219  N     0.87250   0.71491   0.57853   0.00000  Uiso   1.00
O1220  O     0.91008   0.73010   0.57514   0.00000  Uiso   1.00
O1221  O     0.85633   0.71362   0.62154   0.00000  Uiso   1.00
N1222  N     0.79179   0.95158   0.42329   0.00000  Uiso   1.00
O1223  O     0.80719   0.95051   0.37982   0.00000  Uiso   1.00
O1224  O     0.75298   0.94134   0.42757   0.00000  Uiso   1.00
O1225  O     0.10655   0.20625   0.83333   0.00000  Uiso   1.00
O1226  O     0.22679   0.12709   0.83334   0.00000  Uiso   1.00
O1227  O     0.22679   0.20625   0.83334   0.00000  Uiso   1.00
O1228  O     0.10655   0.12709   0.83333   0.00000  Uiso   1.00
C1229  C     0.08760   0.16671   0.83811   0.00000  Uiso   1.00
C1230  C     0.24573   0.16671   0.82856   0.00000  Uiso   1.00
O1231  O     0.16667   0.20625   0.76280   0.00000  Uiso   1.00
O1232  O     0.16667   0.12708   0.90387   0.00000  Uiso   1.00
O1233  O     0.16667   0.20625   0.90387   0.00000  Uiso   1.00
O1234  O     0.16667   0.12708   0.76280   0.00000  Uiso   1.00
C1235  C     0.16653   0.16667   0.74030   0.00000  Uiso   1.00
C1236  C     0.16680   0.16667   0.92637   0.00000  Uiso   1.00
Cu1237 Cu    0.16667   0.21355   0.83333   0.00000  Uiso   1.00
Cu1238 Cu    0.16667   0.11978   0.83333   0.00000  Uiso   1.00
C1239  C     0.16662   0.16667   0.68854   0.00000  Uiso   1.00
C1240  C     0.16671   0.16667   0.97812   0.00000  Uiso   1.00
C1241  C     0.02065   0.12466   0.84234   0.00000  Uiso   1.00
C1242  C     0.31280   0.20934   0.82421   0.00000  Uiso   1.00
C1243  C     0.31268   0.12466   0.82435   0.00000  Uiso   1.00
C1244  C     0.02054   0.20934   0.84248   0.00000  Uiso   1.00
C1245  C     0.29083   0.16699   0.82335   0.00000  Uiso   1.00
C1246  C     0.04251   0.16699   0.84333   0.00000  Uiso   1.00
C1247  C     0.14761   0.02463   0.79545   0.00000  Uiso   1.00
C1248  C     0.18629   0.30863   0.87079   0.00000  Uiso   1.00
C1249  C     0.18572   0.02463   0.87122   0.00000  Uiso   1.00
C1250  C     0.14704   0.30863   0.79588   0.00000  Uiso   1.00
N1251  N     0.16667   0.28402   0.83333   0.00000  Uiso   1.00
N1252  N     0.16667   0.04931   0.83333   0.00000  Uiso   1.00
C1253  C     0.03315   0.08775   0.88015   0.00000  Uiso   1.00
C1254  C     0.05160   0.04378   0.85900   0.00000  Uiso   1.00
H1255  H     0.03513   0.03237   0.82457   0.00000  Uiso   1.00
H1256  H     0.08465   0.04877   0.85233   0.00000  Uiso   1.00
H1257  H     0.04996   0.01583   0.88682   0.00000  Uiso   1.00
H1258  H     0.05561   0.10217   0.90827   0.00000  Uiso   1.00
H1259  H     0.00556   0.07796   0.90096   0.00000  Uiso   1.00
C1260  C     0.29596   0.25254   0.79773   0.00000  Uiso   1.00
C1261  C     0.28105   0.24216   0.74465   0.00000  Uiso   1.00
H1262  H     0.30641   0.22620   0.72410   0.00000  Uiso   1.00
H1263  H     0.25406   0.21844   0.74343   0.00000  Uiso   1.00
H1264  H     0.27156   0.27492   0.72592   0.00000  Uiso   1.00
H1265  H     0.27111   0.26931   0.81807   0.00000  Uiso   1.00
H1266  H     0.32072   0.27891   0.79470   0.00000  Uiso   1.00
C1267  C     0.30019   0.08776   0.78654   0.00000  Uiso   1.00
C1268  C     0.28168   0.04381   0.80769   0.00000  Uiso   1.00
H1269  H     0.28349   0.01580   0.77997   0.00000  Uiso   1.00
H1270  H     0.29800   0.03251   0.84225   0.00000  Uiso   1.00
H1271  H     0.24859   0.04876   0.81411   0.00000  Uiso   1.00
H1272  H     0.27777   0.10219   0.75838   0.00000  Uiso   1.00
H1273  H     0.32779   0.07793   0.76577   0.00000  Uiso   1.00
C1274  C     0.03739   0.25254   0.86895   0.00000  Uiso   1.00
C1275  C     0.05230   0.24216   0.92204   0.00000  Uiso   1.00
H1276  H     0.02694   0.22621   0.94259   0.00000  Uiso   1.00
H1277  H     0.07928   0.21844   0.92326   0.00000  Uiso   1.00
H1278  H     0.06180   0.27492   0.94076   0.00000  Uiso   1.00
H1279  H     0.06223   0.26931   0.84862   0.00000  Uiso   1.00
H1280  H     0.01263   0.27892   0.87199   0.00000  Uiso   1.00
N1281  N     0.12750   0.04824   0.75481   0.00000  Uiso   1.00
O1282  O     0.08989   0.06337   0.75818   0.00000  Uiso   1.00
O1283  O     0.14367   0.04697   0.71180   0.00000  Uiso   1.00
N1284  N     0.20821   0.28492   0.91004   0.00000  Uiso   1.00
O1285  O     0.19281   0.28384   0.95351   0.00000  Uiso   1.00
O1286  O     0.24702   0.27469   0.90577   0.00000  Uiso   1.00
N1287  N     0.20583   0.04824   0.91186   0.00000  Uiso   1.00
O1288  O     0.24342   0.06344   0.90847   0.00000  Uiso   1.00
O1289  O     0.18967   0.04695   0.95488   0.00000  Uiso   1.00
N1290  N     0.12512   0.28492   0.75663   0.00000  Uiso   1.00
O1291  O     0.14052   0.28384   0.71316   0.00000  Uiso   1.00
O1292  O     0.08631   0.27468   0.76091   0.00000  Uiso   1.00
O1293  O     0.43988   0.20625   0.83333   0.00000  Uiso   1.00
O1294  O     0.56012   0.12709   0.83334   0.00000  Uiso   1.00
O1295  O     0.56012   0.20625   0.83334   0.00000  Uiso   1.00
O1296  O     0.43988   0.12709   0.83333   0.00000  Uiso   1.00
C1297  C     0.42094   0.16671   0.83811   0.00000  Uiso   1.00
C1298  C     0.57906   0.16671   0.82856   0.00000  Uiso   1.00
O1299  O     0.50000   0.20625   0.76280   0.00000  Uiso   1.00
O1300  O     0.50000   0.12708   0.90387   0.00000  Uiso   1.00
O1301  O     0.50000   0.20625   0.90387   0.00000  Uiso   1.00
O1302  O     0.50000   0.12708   0.76280   0.00000  Uiso   1.00
C1303  C     0.49987   0.16667   0.74030   0.00000  Uiso   1.00
C1304  C     0.50013   0.16667   0.92637   0.00000  Uiso   1.00
Cu1305 Cu    0.50000   0.21355   0.83333   0.00000  Uiso   1.00
Cu1306 Cu    0.50000   0.11978   0.83333   0.00000  Uiso   1.00
C1307  C     0.49996   0.16667   0.68854   0.00000  Uiso   1.00
C1308  C     0.50004   0.16667   0.97812   0.00000  Uiso   1.00
C1309  C     0.35398   0.12466   0.84234   0.00000  Uiso   1.00
C1310  C     0.64613   0.20934   0.82421   0.00000  Uiso   1.00
C1311  C     0.64602   0.12466   0.82435   0.00000  Uiso   1.00
C1312  C     0.35387   0.20934   0.84248   0.00000  Uiso   1.00
C1313  C     0.62416   0.16699   0.82335   0.00000  Uiso   1.00
C1314  C     0.37584   0.16699   0.84333   0.00000  Uiso   1.00
C1315  C     0.48094   0.02463   0.79545   0.00000  Uiso   1.00
C1316  C     0.51962   0.30863   0.87079   0.00000  Uiso   1.00
C1317  C     0.51906   0.02463   0.87122   0.00000  Uiso   1.00
C1318  C     0.48037   0.30863   0.79588   0.00000  Uiso   1.00
N1319  N     0.50000   0.28402   0.83333   0.00000  Uiso   1.00
N1320  N     0.50000   0.04931   0.83333   0.00000  Uiso   1.00
C1321  C     0.36648   0.08775   0.88015   0.00000  Uiso   1.00
C1322  C     0.38494   0.04378   0.85900   0.00000  Uiso   1.00
H1323  H     0.36846   0.03237   0.82457   0.00000  Uiso   1.00
H1324  H     0.41798   0.04877   0.85233   0.00000  Uiso   1.00
H1325  H     0.38329   0.01583   0.88682   0.00000  Uiso   1.00
H1326  H     0.38894   0.10217   0.90827   0.00000  Uiso   1.00
H1327  H     0.33889   0.07796   0.90096   0.00000  Uiso   1.00
C1328  C     0.62929   0.25254   0.79773   0.00000  Uiso   1.00
C1329  C     0.61439   0.24216   0.74465   0.00000  Uiso   1.00
H1330  H     0.63974   0.22620   0.72410   0.00000  Uiso   1.00
H1331  H     0.58740   0.21844   0.74343   0.00000  Uiso   1.00
H1332  H     0.60489   0.27492   0.72592   0.00000  Uiso   1.00
H1333  H     0.60445   0.26931   0.81807   0.00000  Uiso   1.00
H1334  H     0.65405   0.27891   0.79470   0.00000  Uiso   1.00
C1335  C     0.63352   0.08776   0.78654   0.00000  Uiso   1.00
C1336  C     0.61501   0.04381   0.80769   0.00000  Uiso   1.00
H1337  H     0.61683   0.01580   0.77997   0.00000  Uiso   1.00
H1338  H     0.63134   0.03251   0.84225   0.00000  Uiso   1.00
H1339  H     0.58192   0.04876   0.81411   0.00000  Uiso   1.00
H1340  H     0.61110   0.10219   0.75838   0.00000  Uiso   1.00
H1341  H     0.66112   0.07793   0.76577   0.00000  Uiso   1.00
C1342  C     0.37072   0.25254   0.86895   0.00000  Uiso   1.00
C1343  C     0.38563   0.24216   0.92204   0.00000  Uiso   1.00
H1344  H     0.36027   0.22621   0.94259   0.00000  Uiso   1.00
H1345  H     0.41261   0.21844   0.92326   0.00000  Uiso   1.00
H1346  H     0.39513   0.27492   0.94076   0.00000  Uiso   1.00
H1347  H     0.39556   0.26931   0.84862   0.00000  Uiso   1.00
H1348  H     0.34597   0.27892   0.87199   0.00000  Uiso   1.00
N1349  N     0.46083   0.04824   0.75481   0.00000  Uiso   1.00
O1350  O     0.42322   0.06337   0.75818   0.00000  Uiso   1.00
O1351  O     0.47701   0.04697   0.71180   0.00000  Uiso   1.00
N1352  N     0.54155   0.28492   0.91004   0.00000  Uiso   1.00
O1353  O     0.52614   0.28384   0.95351   0.00000  Uiso   1.00
O1354  O     0.58036   0.27469   0.90577   0.00000  Uiso   1.00
N1355  N     0.53916   0.04824   0.91186   0.00000  Uiso   1.00
O1356  O     0.57675   0.06344   0.90847   0.00000  Uiso   1.00
O1357  O     0.52300   0.04695   0.95488   0.00000  Uiso   1.00
N1358  N     0.45845   0.28492   0.75663   0.00000  Uiso   1.00
O1359  O     0.47385   0.28384   0.71316   0.00000  Uiso   1.00
O1360  O     0.41964   0.27468   0.76091   0.00000  Uiso   1.00
O1361  O     0.77321   0.20625   0.83333   0.00000  Uiso   1.00
O1362  O     0.89345   0.12709   0.83334   0.00000  Uiso   1.00
O1363  O     0.89345   0.20625   0.83334   0.00000  Uiso   1.00
O1364  O     0.77321   0.12709   0.83333   0.00000  Uiso   1.00
C1365  C     0.75427   0.16671   0.83811   0.00000  Uiso   1.00
C1366  C     0.91240   0.16671   0.82856   0.00000  Uiso   1.00
O1367  O     0.83333   0.20625   0.76280   0.00000  Uiso   1.00
O1368  O     0.83333   0.12708   0.90387   0.00000  Uiso   1.00
O1369  O     0.83333   0.20625   0.90387   0.00000  Uiso   1.00
O1370  O     0.83333   0.12708   0.76280   0.00000  Uiso   1.00
C1371  C     0.83320   0.16667   0.74030   0.00000  Uiso   1.00
C1372  C     0.83347   0.16667   0.92637   0.00000  Uiso   1.00
Cu1373 Cu    0.83333   0.21355   0.83333   0.00000  Uiso   1.00
Cu1374 Cu    0.83333   0.11978   0.83333   0.00000  Uiso   1.00
C1375  C     0.83329   0.16667   0.68854   0.00000  Uiso   1.00
C1376  C     0.83338   0.16667   0.97812   0.00000  Uiso   1.00
C1377  C     0.68732   0.12466   0.84234   0.00000  Uiso   1.00
C1378  C     0.97946   0.20934   0.82421   0.00000  Uiso   1.00
C1379  C     0.97935   0.12466   0.82435   0.00000  Uiso   1.00
C1380  C     0.68721   0.20934   0.84248   0.00000  Uiso   1.00
C1381  C     0.95750   0.16699   0.82335   0.00000  Uiso   1.00
C1382  C     0.70917   0.16699   0.84333   0.00000  Uiso   1.00
C1383  C     0.81428   0.02463   0.79545   0.00000  Uiso   1.00
C1384  C     0.85296   0.30863   0.87079   0.00000  Uiso   1.00
C1385  C     0.85239   0.02463   0.87122   0.00000  Uiso   1.00
C1386  C     0.81371   0.30863   0.79588   0.00000  Uiso   1.00
N1387  N     0.83333   0.28402   0.83333   0.00000  Uiso   1.00
N1388  N     0.83333   0.04931   0.83333   0.00000  Uiso   1.00
C1389  C     0.69982   0.08775   0.88015   0.00000  Uiso   1.00
C1390  C     0.71827   0.04378   0.85900   0.00000  Uiso   1.00
H1391  H     0.70179   0.03237   0.82457   0.00000  Uiso   1.00
H1392  H     0.75131   0.04877   0.85233   0.00000  Uiso   1.00
H1393  H     0.71663   0.01583   0.88682   0.00000  Uiso   1.00
H1394  H     0.72227   0.10217   0.90827   0.00000  Uiso   1.00
H1395  H     0.67223   0.07796   0.90096   0.00000  Uiso   1.00
C1396  C     0.96262   0.25254   0.79773   0.00000  Uiso   1.00
C1397  C     0.94772   0.24216   0.74465   0.00000  Uiso   1.00
H1398  H     0.97308   0.22620   0.72410   0.00000  Uiso   1.00
H1399  H     0.92073   0.21844   0.74343   0.00000  Uiso   1.00
H1400  H     0.93822   0.27492   0.72592   0.00000  Uiso   1.00
H1401  H     0.93778   0.26931   0.81807   0.00000  Uiso   1.00
H1402  H     0.98739   0.27891   0.79470   0.00000  Uiso   1.00
C1403  C     0.96686   0.08776   0.78654   0.00000  Uiso   1.00
C1404  C     0.94835   0.04381   0.80769   0.00000  Uiso   1.00
H1405  H     0.95016   0.01580   0.77997   0.00000  Uiso   1.00
H1406  H     0.96467   0.03251   0.84225   0.00000  Uiso   1.00
H1407  H     0.91526   0.04876   0.81411   0.00000  Uiso   1.00
H1408  H     0.94444   0.10219   0.75838   0.00000  Uiso   1.00
H1409  H     0.99446   0.07793   0.76577   0.00000  Uiso   1.00
C1410  C     0.70405   0.25254   0.86895   0.00000  Uiso   1.00
C1411  C     0.71896   0.24216   0.92204   0.00000  Uiso   1.00
H1412  H     0.69361   0.22621   0.94259   0.00000  Uiso   1.00
H1413  H     0.74595   0.21844   0.92326   0.00000  Uiso   1.00
H1414  H     0.72847   0.27492   0.94076   0.00000  Uiso   1.00
H1415  H     0.72890   0.26931   0.84862   0.00000  Uiso   1.00
H1416  H     0.67930   0.27892   0.87199   0.00000  Uiso   1.00
N1417  N     0.79417   0.04824   0.75481   0.00000  Uiso   1.00
O1418  O     0.75656   0.06337   0.75818   0.00000  Uiso   1.00
O1419  O     0.81034   0.04697   0.71180   0.00000  Uiso   1.00
N1420  N     0.87488   0.28492   0.91004   0.00000  Uiso   1.00
O1421  O     0.85947   0.28384   0.95351   0.00000  Uiso   1.00
O1422  O     0.91369   0.27469   0.90577   0.00000  Uiso   1.00
N1423  N     0.87250   0.04824   0.91186   0.00000  Uiso   1.00
O1424  O     0.91008   0.06344   0.90847   0.00000  Uiso   1.00
O1425  O     0.85633   0.04695   0.95488   0.00000  Uiso   1.00
N1426  N     0.79179   0.28492   0.75663   0.00000  Uiso   1.00
O1427  O     0.80719   0.28384   0.71316   0.00000  Uiso   1.00
O1428  O     0.75298   0.27468   0.76091   0.00000  Uiso   1.00
O1429  O     0.10655   0.53958   0.83333   0.00000  Uiso   1.00
O1430  O     0.22679   0.46042   0.83334   0.00000  Uiso   1.00
O1431  O     0.22679   0.53958   0.83334   0.00000  Uiso   1.00
O1432  O     0.10655   0.46042   0.83333   0.00000  Uiso   1.00
C1433  C     0.08760   0.50005   0.83811   0.00000  Uiso   1.00
C1434  C     0.24573   0.50005   0.82856   0.00000  Uiso   1.00
O1435  O     0.16667   0.53959   0.76280   0.00000  Uiso   1.00
O1436  O     0.16667   0.46041   0.90387   0.00000  Uiso   1.00
O1437  O     0.16667   0.53959   0.90387   0.00000  Uiso   1.00
O1438  O     0.16667   0.46041   0.76280   0.00000  Uiso   1.00
C1439  C     0.16653   0.50000   0.74030   0.00000  Uiso   1.00
C1440  C     0.16680   0.50000   0.92637   0.00000  Uiso   1.00
Cu1441 Cu    0.16667   0.54689   0.83333   0.00000  Uiso   1.00
Cu1442 Cu    0.16667   0.45311   0.83333   0.00000  Uiso   1.00
C1443  C     0.16662   0.50000   0.68854   0.00000  Uiso   1.00
C1444  C     0.16671   0.50000   0.97812   0.00000  Uiso   1.00
C1445  C     0.02065   0.45799   0.84234   0.00000  Uiso   1.00
C1446  C     0.31280   0.54268   0.82421   0.00000  Uiso   1.00
C1447  C     0.31268   0.45799   0.82435   0.00000  Uiso   1.00
C1448  C     0.02054   0.54268   0.84248   0.00000  Uiso   1.00
C1449  C     0.29083   0.50032   0.82335   0.00000  Uiso   1.00
C1450  C     0.04251   0.50032   0.84333   0.00000  Uiso   1.00
C1451  C     0.14761   0.35796   0.79545   0.00000  Uiso   1.00
C1452  C     0.18629   0.64196   0.87079   0.00000  Uiso   1.00
C1453  C     0.18572   0.35796   0.87122   0.00000  Uiso   1.00
C1454  C     0.14704   0.64196   0.79588   0.00000  Uiso   1.00
N1455  N     0.16667   0.61736   0.83333   0.00000  Uiso   1.00
N1456  N     0.16667   0.38264   0.83333   0.00000  Uiso   1.00
C1457  C     0.03315   0.42109   0.88015   0.00000  Uiso   1.00
C1458  C     0.05160   0.37711   0.85900   0.00000  Uiso   1.00
H1459  H     0.03513   0.36570   0.82457   0.00000  Uiso   1.00
H1460  H     0.08465   0.38210   0.85233   0.00000  Uiso   1.00
H1461  H     0.04996   0.34917   0.88682   0.00000  Uiso   1.00
H1462  H     0.05561   0.43551   0.90827   0.00000  Uiso   1.00
H1463  H     0.00556   0.41130   0.90096   0.00000  Uiso   1.00
C1464  C     0.29596   0.58587   0.79773   0.00000  Uiso   1.00
C1465  C     0.28105   0.57549   0.74465   0.00000  Uiso   1.00
H1466  H     0.30641   0.55953   0.72410   0.00000  Uiso   1.00
H1467  H     0.25406   0.55178   0.74343   0.00000  Uiso   1.00
H1468  H     0.27156   0.60825   0.72592   0.00000  Uiso   1.00
H1469  H     0.27111   0.60265   0.81807   0.00000  Uiso   1.00
H1470  H     0.32072   0.61224   0.79470   0.00000  Uiso   1.00
C1471  C     0.30019   0.42109   0.78654   0.00000  Uiso   1.00
C1472  C     0.28168   0.37714   0.80769   0.00000  Uiso   1.00
H1473  H     0.28349   0.34913   0.77997   0.00000  Uiso   1.00
H1474  H     0.29800   0.36585   0.84225   0.00000  Uiso   1.00
H1475  H     0.24859   0.38210   0.81411   0.00000  Uiso   1.00
H1476  H     0.27777   0.43552   0.75838   0.00000  Uiso   1.00
H1477  H     0.32779   0.41126   0.76577   0.00000  Uiso   1.00
C1478  C     0.03739   0.58587   0.86895   0.00000  Uiso   1.00
C1479  C     0.05230   0.57549   0.92204   0.00000  Uiso   1.00
H1480  H     0.02694   0.55954   0.94259   0.00000  Uiso   1.00
H1481  H     0.07928   0.55177   0.92326   0.00000  Uiso   1.00
H1482  H     0.06180   0.60825   0.94076   0.00000  Uiso   1.00
H1483  H     0.06223   0.60265   0.84862   0.00000  Uiso   1.00
H1484  H     0.01263   0.61225   0.87199   0.00000  Uiso   1.00
N1485  N     0.12750   0.38157   0.75481   0.00000  Uiso   1.00
O1486  O     0.08989   0.39671   0.75818   0.00000  Uiso   1.00
O1487  O     0.14367   0.38030   0.71180   0.00000  Uiso   1.00
N1488  N     0.20821   0.61825   0.91004   0.00000  Uiso   1.00
O1489  O     0.19281   0.61717   0.95351   0.00000  Uiso   1.00
O1490  O     0.24702   0.60802   0.90577   0.00000  Uiso   1.00
N1491  N     0.20583   0.38157   0.91186   0.00000  Uiso   1.00
O1492  O     0.24342   0.39677   0.90847   0.00000  Uiso   1.00
O1493  O     0.18967   0.38028   0.95488   0.00000  Uiso   1.00
N1494  N     0.12512   0.61825   0.75663   0.00000  Uiso   1.00
O1495  O     0.14052   0.61718   0.71316   0.00000  Uiso   1.00
O1496  O     0.08631   0.60801   0.76091   0.00000  Uiso   1.00
O1497  O     0.43988   0.53958   0.83333   0.00000  Uiso   1.00
O1498  O     0.56012   0.46042   0.83334   0.00000  Uiso   1.00
O1499  O     0.56012   0.53958   0.83334   0.00000  Uiso   1.00
O1500  O     0.43988   0.46042   0.83333   0.00000  Uiso   1.00
C1501  C     0.42094   0.50005   0.83811   0.00000  Uiso   1.00
C1502  C     0.57906   0.50005   0.82856   0.00000  Uiso   1.00
O1503  O     0.50000   0.53959   0.76280   0.00000  Uiso   1.00
O1504  O     0.50000   0.46041   0.90387   0.00000  Uiso   1.00
O1505  O     0.50000   0.53959   0.90387   0.00000  Uiso   1.00
O1506  O     0.50000   0.46041   0.76280   0.00000  Uiso   1.00
C1507  C     0.49987   0.50000   0.74030   0.00000  Uiso   1.00
C1508  C     0.50013   0.50000   0.92637   0.00000  Uiso   1.00
Cu1509 Cu    0.50000   0.54689   0.83333   0.00000  Uiso   1.00
Cu1510 Cu    0.50000   0.45311   0.83333   0.00000  Uiso   1.00
C1511  C     0.49996   0.50000   0.68854   0.00000  Uiso   1.00
C1512  C     0.50004   0.50000   0.97812   0.00000  Uiso   1.00
C1513  C     0.35398   0.45799   0.84234   0.00000  Uiso   1.00
C1514  C     0.64613   0.54268   0.82421   0.00000  Uiso   1.00
C1515  C     0.64602   0.45799   0.82435   0.00000  Uiso   1.00
C1516  C     0.35387   0.54268   0.84248   0.00000  Uiso   1.00
C1517  C     0.62416   0.50032   0.82335   0.00000  Uiso   1.00
C1518  C     0.37584   0.50032   0.84333   0.00000  Uiso   1.00
C1519  C     0.48094   0.35796   0.79545   0.00000  Uiso   1.00
C1520  C     0.51962   0.64196   0.87079   0.00000  Uiso   1.00
C1521  C     0.51906   0.35796   0.87122   0.00000  Uiso   1.00
C1522  C     0.48037   0.64196   0.79588   0.00000  Uiso   1.00
N1523  N     0.50000   0.61736   0.83333   0.00000  Uiso   1.00
N1524  N     0.50000   0.38264   0.83333   0.00000  Uiso   1.00
C1525  C     0.36648   0.42109   0.88015   0.00000  Uiso   1.00
C1526  C     0.38494   0.37711   0.85900   0.00000  Uiso   1.00
H1527  H     0.36846   0.36570   0.82457   0.00000  Uiso   1.00
H1528  H     0.41798   0.38210   0.85233   0.00000  Uiso   1.00
H1529  H     0.38329   0.34917   0.88682   0.00000  Uiso   1.00
H1530  H     0.38894   0.43551   0.90827   0.00000  Uiso   1.00
H1531  H     0.33889   0.41130   0.90096   0.00000  Uiso   1.00
C1532  C     0.62929   0.58587   0.79773   0.00000  Uiso   1.00
C1533  C     0.61439   0.57549   0.74465   0.00000  Uiso   1.00
H1534  H     0.63974   0.55953   0.72410   0.00000  Uiso   1.00
H1535  H     0.58740   0.55178   0.74343   0.00000  Uiso   1.00
H1536  H     0.60489   0.60825   0.72592   0.00000  Uiso   1.00
H1537  H     0.60445   0.60265   0.81807   0.00000  Uiso   1.00
H1538  H     0.65405   0.61224   0.79470   0.00000  Uiso   1.00
C1539  C     0.63352   0.42109   0.78654   0.00000  Uiso   1.00
C1540  C     0.61501   0.37714   0.80769   0.00000  Uiso   1.00
H1541  H     0.61683   0.34913   0.77997   0.00000  Uiso   1.00
H1542  H     0.63134   0.36585   0.84225   0.00000  Uiso   1.00
H1543  H     0.58192   0.38210   0.81411   0.00000  Uiso   1.00
H1544  H     0.61110   0.43552   0.75838   0.00000  Uiso   1.00
H1545  H     0.66112   0.41126   0.76577   0.00000  Uiso   1.00
C1546  C     0.37072   0.58587   0.86895   0.00000  Uiso   1.00
C1547  C     0.38563   0.57549   0.92204   0.00000  Uiso   1.00
H1548  H     0.36027   0.55954   0.94259   0.00000  Uiso   1.00
H1549  H     0.41261   0.55177   0.92326   0.00000  Uiso   1.00
H1550  H     0.39513   0.60825   0.94076   0.00000  Uiso   1.00
H1551  H     0.39556   0.60265   0.84862   0.00000  Uiso   1.00
H1552  H     0.34597   0.61225   0.87199   0.00000  Uiso   1.00
N1553  N     0.46083   0.38157   0.75481   0.00000  Uiso   1.00
O1554  O     0.42322   0.39671   0.75818   0.00000  Uiso   1.00
O1555  O     0.47701   0.38030   0.71180   0.00000  Uiso   1.00
N1556  N     0.54155   0.61825   0.91004   0.00000  Uiso   1.00
O1557  O     0.52614   0.61717   0.95351   0.00000  Uiso   1.00
O1558  O     0.58036   0.60802   0.90577   0.00000  Uiso   1.00
N1559  N     0.53916   0.38157   0.91186   0.00000  Uiso   1.00
O1560  O     0.57675   0.39677   0.90847   0.00000  Uiso   1.00
O1561  O     0.52300   0.38028   0.95488   0.00000  Uiso   1.00
N1562  N     0.45845   0.61825   0.75663   0.00000  Uiso   1.00
O1563  O     0.47385   0.61718   0.71316   0.00000  Uiso   1.00
O1564  O     0.41964   0.60801   0.76091   0.00000  Uiso   1.00
O1565  O     0.77321   0.53958   0.83333   0.00000  Uiso   1.00
O1566  O     0.89345   0.46042   0.83334   0.00000  Uiso   1.00
O1567  O     0.89345   0.53958   0.83334   0.00000  Uiso   1.00
O1568  O     0.77321   0.46042   0.83333   0.00000  Uiso   1.00
C1569  C     0.75427   0.50005   0.83811   0.00000  Uiso   1.00
C1570  C     0.91240   0.50005   0.82856   0.00000  Uiso   1.00
O1571  O     0.83333   0.53959   0.76280   0.00000  Uiso   1.00
O1572  O     0.83333   0.46041   0.90387   0.00000  Uiso   1.00
O1573  O     0.83333   0.53959   0.90387   0.00000  Uiso   1.00
O1574  O     0.83333   0.46041   0.76280   0.00000  Uiso   1.00
C1575  C     0.83320   0.50000   0.74030   0.00000  Uiso   1.00
C1576  C     0.83347   0.50000   0.92637   0.00000  Uiso   1.00
Cu1577 Cu    0.83333   0.54689   0.83333   0.00000  Uiso   1.00
Cu1578 Cu    0.83333   0.45311   0.83333   0.00000  Uiso   1.00
C1579  C     0.83329   0.50000   0.68854   0.00000  Uiso   1.00
C1580  C     0.83338   0.50000   0.97812   0.00000  Uiso   1.00
C1581  C     0.68732   0.45799   0.84234   0.00000  Uiso   1.00
C1582  C     0.97946   0.54268   0.82421   0.00000  Uiso   1.00
C1583  C     0.97935   0.45799   0.82435   0.00000  Uiso   1.00
C1584  C     0.68721   0.54268   0.84248   0.00000  Uiso   1.00
C1585  C     0.95750   0.50032   0.82335   0.00000  Uiso   1.00
C1586  C     0.70917   0.50032   0.84333   0.00000  Uiso   1.00
C1587  C     0.81428   0.35796   0.79545   0.00000  Uiso   1.00
C1588  C     0.85296   0.64196   0.87079   0.00000  Uiso   1.00
C1589  C     0.85239   0.35796   0.87122   0.00000  Uiso   1.00
C1590  C     0.81371   0.64196   0.79588   0.00000  Uiso   1.00
N1591  N     0.83333   0.61736   0.83333   0.00000  Uiso   1.00
N1592  N     0.83333   0.38264   0.83333   0.00000  Uiso   1.00
C1593  C     0.69982   0.42109   0.88015   0.00000  Uiso   1.00
C1594  C     0.71827   0.37711   0.85900   0.00000  Uiso   1.00
H1595  H     0.70179   0.36570   0.82457   0.00000  Uiso   1.00
H1596  H     0.75131   0.38210   0.85233   0.00000  Uiso   1.00
H1597  H     0.71663   0.34917   0.88682   0.00000  Uiso   1.00
H1598  H     0.72227   0.43551   0.90827   0.00000  Uiso   1.00
H1599  H     0.67223   0.41130   0.90096   0.00000  Uiso   1.00
C1600  C     0.96262   0.58587   0.79773   0.00000  Uiso   1.00
C1601  C     0.94772   0.57549   0.74465   0.00000  Uiso   1.00
H1602  H     0.97308   0.55953   0.72410   0.00000  Uiso   1.00
H1603  H     0.92073   0.55178   0.74343   0.00000  Uiso   1.00
H1604  H     0.93822   0.60825   0.72592   0.00000  Uiso   1.00
H1605  H     0.93778   0.60265   0.81807   0.00000  Uiso   1.00
H1606  H     0.98739   0.61224   0.79470   0.00000  Uiso   1.00
C1607  C     0.96686   0.42109   0.78654   0.00000  Uiso   1.00
C1608  C     0.94835   0.37714   0.80769   0.00000  Uiso   1.00
H1609  H     0.95016   0.34913   0.77997   0.00000  Uiso   1.00
H1610  H     0.96467   0.36585   0.84225   0.00000  Uiso   1.00
H1611  H     0.91526   0.38210   0.81411   0.00000  Uiso   1.00
H1612  H     0.94444   0.43552   0.75838   0.00000  Uiso   1.00
H1613  H     0.99446   0.41126   0.76577   0.00000  Uiso   1.00
C1614  C     0.70405   0.58587   0.86895   0.00000  Uiso   1.00
C1615  C     0.71896   0.57549   0.92204   0.00000  Uiso   1.00
H1616  H     0.69361   0.55954   0.94259   0.00000  Uiso   1.00
H1617  H     0.74595   0.55177   0.92326   0.00000  Uiso   1.00
H1618  H     0.72847   0.60825   0.94076   0.00000  Uiso   1.00
H1619  H     0.72890   0.60265   0.84862   0.00000  Uiso   1.00
H1620  H     0.67930   0.61225   0.87199   0.00000  Uiso   1.00
N1621  N     0.79417   0.38157   0.75481   0.00000  Uiso   1.00
O1622  O     0.75656   0.39671   0.75818   0.00000  Uiso   1.00
O1623  O     0.81034   0.38030   0.71180   0.00000  Uiso   1.00
N1624  N     0.87488   0.61825   0.91004   0.00000  Uiso   1.00
O1625  O     0.85947   0.61717   0.95351   0.00000  Uiso   1.00
O1626  O     0.91369   0.60802   0.90577   0.00000  Uiso   1.00
N1627  N     0.87250   0.38157   0.91186   0.00000  Uiso   1.00
O1628  O     0.91008   0.39677   0.90847   0.00000  Uiso   1.00
O1629  O     0.85633   0.38028   0.95488   0.00000  Uiso   1.00
N1630  N     0.79179   0.61825   0.75663   0.00000  Uiso   1.00
O1631  O     0.80719   0.61718   0.71316   0.00000  Uiso   1.00
O1632  O     0.75298   0.60801   0.76091   0.00000  Uiso   1.00
O1633  O     0.10655   0.87291   0.83333   0.00000  Uiso   1.00
O1634  O     0.22679   0.79375   0.83334   0.00000  Uiso   1.00
O1635  O     0.22679   0.87291   0.83334   0.00000  Uiso   1.00
O1636  O     0.10655   0.79375   0.83333   0.00000  Uiso   1.00
C1637  C     0.08760   0.83338   0.83811   0.00000  Uiso   1.00
C1638  C     0.24573   0.83338   0.82856   0.00000  Uiso   1.00
O1639  O     0.16667   0.87292   0.76280   0.00000  Uiso   1.00
O1640  O     0.16667   0.79375   0.90387   0.00000  Uiso   1.00
O1641  O     0.16667   0.87292   0.90387   0.00000  Uiso   1.00
O1642  O     0.16667   0.79375   0.76280   0.00000  Uiso   1.00
C1643  C     0.16653   0.83333   0.74030   0.00000  Uiso   1.00
C1644  C     0.16680   0.83333   0.92637   0.00000  Uiso   1.00
Cu1645 Cu    0.16667   0.88022   0.83333   0.00000  Uiso   1.00
Cu1646 Cu    0.16667   0.78645   0.83333   0.00000  Uiso   1.00
C1647  C     0.16662   0.83334   0.68854   0.00000  Uiso   1.00
C1648  C     0.16671   0.83334   0.97812   0.00000  Uiso   1.00
C1649  C     0.02065   0.79133   0.84234   0.00000  Uiso   1.00
C1650  C     0.31280   0.87601   0.82421   0.00000  Uiso   1.00
C1651  C     0.31268   0.79133   0.82435   0.00000  Uiso   1.00
C1652  C     0.02054   0.87601   0.84248   0.00000  Uiso   1.00
C1653  C     0.29083   0.83366   0.82335   0.00000  Uiso   1.00
C1654  C     0.04251   0.83365   0.84333   0.00000  Uiso   1.00
C1655  C     0.14761   0.69130   0.79545   0.00000  Uiso   1.00
C1656  C     0.18629   0.97530   0.87079   0.00000  Uiso   1.00
C1657  C     0.18572   0.69130   0.87122   0.00000  Uiso   1.00
C1658  C     0.14704   0.97529   0.79588   0.00000  Uiso   1.00
N1659  N     0.16667   0.95069   0.83333   0.00000  Uiso   1.00
N1660  N     0.16667   0.71598   0.83333   0.00000  Uiso   1.00
C1661  C     0.03315   0.75442   0.88015   0.00000  Uiso   1.00
C1662  C     0.05160   0.71044   0.85900   0.00000  Uiso   1.00
H1663  H     0.03513   0.69904   0.82457   0.00000  Uiso   1.00
H1664  H     0.08465   0.71543   0.85233   0.00000  Uiso   1.00
H1665  H     0.04996   0.68250   0.88682   0.00000  Uiso   1.00
H1666  H     0.05561   0.76884   0.90827   0.00000  Uiso   1.00
H1667  H     0.00556   0.74463   0.90096   0.00000  Uiso   1.00
C1668  C     0.29596   0.91920   0.79773   0.00000  Uiso   1.00
C1669  C     0.28105   0.90882   0.74465   0.00000  Uiso   1.00
H1670  H     0.30641   0.89286   0.72410   0.00000  Uiso   1.00
H1671  H     0.25406   0.88511   0.74343   0.00000  Uiso   1.00
H1672  H     0.27156   0.94158   0.72592   0.00000  Uiso   1.00
H1673  H     0.27111   0.93598   0.81807   0.00000  Uiso   1.00
H1674  H     0.32072   0.94558   0.79470   0.00000  Uiso   1.00
C1675  C     0.30019   0.75442   0.78654   0.00000  Uiso   1.00
C1676  C     0.28168   0.71047   0.80769   0.00000  Uiso   1.00
H1677  H     0.28349   0.68246   0.77997   0.00000  Uiso   1.00
H1678  H     0.29800   0.69918   0.84225   0.00000  Uiso   1.00
H1679  H     0.24859   0.71543   0.81411   0.00000  Uiso   1.00
H1680  H     0.27777   0.76886   0.75838   0.00000  Uiso   1.00
H1681  H     0.32779   0.74460   0.76577   0.00000  Uiso   1.00
C1682  C     0.03739   0.91921   0.86895   0.00000  Uiso   1.00
C1683  C     0.05230   0.90883   0.92204   0.00000  Uiso   1.00
H1684  H     0.02694   0.89287   0.94259   0.00000  Uiso   1.00
H1685  H     0.07928   0.88511   0.92326   0.00000  Uiso   1.00
H1686  H     0.06180   0.94159   0.94076   0.00000  Uiso   1.00
H1687  H     0.06223   0.93598   0.84862   0.00000  Uiso   1.00
H1688  H     0.01263   0.94559   0.87199   0.00000  Uiso   1.00
N1689  N     0.12750   0.71490   0.75481   0.00000  Uiso   1.00
O1690  O     0.08989   0.73004   0.75818   0.00000  Uiso   1.00
O1691  O     0.14367   0.71363   0.71180   0.00000  Uiso   1.00
N1692  N     0.20821   0.95159   0.91004   0.00000  Uiso   1.00
O1693  O     0.19281   0.95051   0.95351   0.00000  Uiso   1.00
O1694  O     0.24702   0.94135   0.90577   0.00000  Uiso   1.00
N1695  N     0.20583   0.71491   0.91186   0.00000  Uiso   1.00
O1696  O     0.24342   0.73010   0.90847   0.00000  Uiso   1.00
O1697  O     0.18967   0.71362   0.95488   0.00000  Uiso   1.00
N1698  N     0.12512   0.95158   0.75663   0.00000  Uiso   1.00
O1699  O     0.14052   0.95051   0.71316   0.00000  Uiso   1.00
O1700  O     0.08631   0.94134   0.76091   0.00000  Uiso   1.00
O1701  O     0.43988   0.87291   0.83333   0.00000  Uiso   1.00
O1702  O     0.56012   0.79375   0.83334   0.00000  Uiso   1.00
O1703  O     0.56012   0.87291   0.83334   0.00000  Uiso   1.00
O1704  O     0.43988   0.79375   0.83333   0.00000  Uiso   1.00
C1705  C     0.42094   0.83338   0.83811   0.00000  Uiso   1.00
C1706  C     0.57906   0.83338   0.82856   0.00000  Uiso   1.00
O1707  O     0.50000   0.87292   0.76280   0.00000  Uiso   1.00
O1708  O     0.50000   0.79375   0.90387   0.00000  Uiso   1.00
O1709  O     0.50000   0.87292   0.90387   0.00000  Uiso   1.00
O1710  O     0.50000   0.79375   0.76280   0.00000  Uiso   1.00
C1711  C     0.49987   0.83333   0.74030   0.00000  Uiso   1.00
C1712  C     0.50013   0.83333   0.92637   0.00000  Uiso   1.00
Cu1713 Cu    0.50000   0.88022   0.83333   0.00000  Uiso   1.00
Cu1714 Cu    0.50000   0.78645   0.83333   0.00000  Uiso   1.00
C1715  C     0.49996   0.83334   0.68854   0.00000  Uiso   1.00
C1716  C     0.50004   0.83334   0.97812   0.00000  Uiso   1.00
C1717  C     0.35398   0.79133   0.84234   0.00000  Uiso   1.00
C1718  C     0.64613   0.87601   0.82421   0.00000  Uiso   1.00
C1719  C     0.64602   0.79133   0.82435   0.00000  Uiso   1.00
C1720  C     0.35387   0.87601   0.84248   0.00000  Uiso   1.00
C1721  C     0.62416   0.83366   0.82335   0.00000  Uiso   1.00
C1722  C     0.37584   0.83365   0.84333   0.00000  Uiso   1.00
C1723  C     0.48094   0.69130   0.79545   0.00000  Uiso   1.00
C1724  C     0.51962   0.97530   0.87079   0.00000  Uiso   1.00
C1725  C     0.51906   0.69130   0.87122   0.00000  Uiso   1.00
C1726  C     0.48037   0.97529   0.79588   0.00000  Uiso   1.00
N1727  N     0.50000   0.95069   0.83333   0.00000  Uiso   1.00
N1728  N     0.50000   0.71598   0.83333   0.00000  Uiso   1.00
C1729  C     0.36648   0.75442   0.88015   0.00000  Uiso   1.00
C1730  C     0.38494   0.71044   0.85900   0.00000  Uiso   1.00
H1731  H     0.36846   0.69904   0.82457   0.00000  Uiso   1.00
H1732  H     0.41798   0.71543   0.85233   0.00000  Uiso   1.00
H1733  H     0.38329   0.68250   0.88682   0.00000  Uiso   1.00
H1734  H     0.38894   0.76884   0.90827   0.00000  Uiso   1.00
H1735  H     0.33889   0.74463   0.90096   0.00000  Uiso   1.00
C1736  C     0.62929   0.91920   0.79773   0.00000  Uiso   1.00
C1737  C     0.61439   0.90882   0.74465   0.00000  Uiso   1.00
H1738  H     0.63974   0.89286   0.72410   0.00000  Uiso   1.00
H1739  H     0.58740   0.88511   0.74343   0.00000  Uiso   1.00
H1740  H     0.60489   0.94158   0.72592   0.00000  Uiso   1.00
H1741  H     0.60445   0.93598   0.81807   0.00000  Uiso   1.00
H1742  H     0.65405   0.94558   0.79470   0.00000  Uiso   1.00
C1743  C     0.63352   0.75442   0.78654   0.00000  Uiso   1.00
C1744  C     0.61501   0.71047   0.80769   0.00000  Uiso   1.00
H1745  H     0.61683   0.68246   0.77997   0.00000  Uiso   1.00
H1746  H     0.63134   0.69918   0.84225   0.00000  Uiso   1.00
H1747  H     0.58192   0.71543   0.81411   0.00000  Uiso   1.00
H1748  H     0.61110   0.76886   0.75838   0.00000  Uiso   1.00
H1749  H     0.66112   0.74460   0.76577   0.00000  Uiso   1.00
C1750  C     0.37072   0.91921   0.86895   0.00000  Uiso   1.00
C1751  C     0.38563   0.90883   0.92204   0.00000  Uiso   1.00
H1752  H     0.36027   0.89287   0.94259   0.00000  Uiso   1.00
H1753  H     0.41261   0.88511   0.92326   0.00000  Uiso   1.00
H1754  H     0.39513   0.94159   0.94076   0.00000  Uiso   1.00
H1755  H     0.39556   0.93598   0.84862   0.00000  Uiso   1.00
H1756  H     0.34597   0.94559   0.87199   0.00000  Uiso   1.00
N1757  N     0.46083   0.71490   0.75481   0.00000  Uiso   1.00
O1758  O     0.42322   0.73004   0.75818   0.00000  Uiso   1.00
O1759  O     0.47701   0.71363   0.71180   0.00000  Uiso   1.00
N1760  N     0.54155   0.95159   0.91004   0.00000  Uiso   1.00
O1761  O     0.52614   0.95051   0.95351   0.00000  Uiso   1.00
O1762  O     0.58036   0.94135   0.90577   0.00000  Uiso   1.00
N1763  N     0.53916   0.71491   0.91186   0.00000  Uiso   1.00
O1764  O     0.57675   0.73010   0.90847   0.00000  Uiso   1.00
O1765  O     0.52300   0.71362   0.95488   0.00000  Uiso   1.00
N1766  N     0.45845   0.95158   0.75663   0.00000  Uiso   1.00
O1767  O     0.47385   0.95051   0.71316   0.00000  Uiso   1.00
O1768  O     0.41964   0.94134   0.76091   0.00000  Uiso   1.00
O1769  O     0.77321   0.87291   0.83333   0.00000  Uiso   1.00
O1770  O     0.89345   0.79375   0.83334   0.00000  Uiso   1.00
O1771  O     0.89345   0.87291   0.83334   0.00000  Uiso   1.00
O1772  O     0.77321   0.79375   0.83333   0.00000  Uiso   1.00
C1773  C     0.75427   0.83338   0.83811   0.00000  Uiso   1.00
C1774  C     0.91240   0.83338   0.82856   0.00000  Uiso   1.00
O1775  O     0.83333   0.87292   0.76280   0.00000  Uiso   1.00
O1776  O     0.83333   0.79375   0.90387   0.00000  Uiso   1.00
O1777  O     0.83333   0.87292   0.90387   0.00000  Uiso   1.00
O1778  O     0.83333   0.79375   0.76280   0.00000  Uiso   1.00
C1779  C     0.83320   0.83333   0.74030   0.00000  Uiso   1.00
C1780  C     0.83347   0.83333   0.92637   0.00000  Uiso   1.00
Cu1781 Cu    0.83333   0.88022   0.83333   0.00000  Uiso   1.00
Cu1782 Cu    0.83333   0.78645   0.83333   0.00000  Uiso   1.00
C1783  C     0.83329   0.83334   0.68854   0.00000  Uiso   1.00
C1784  C     0.83338   0.83334   0.97812   0.00000  Uiso   1.00
C1785  C     0.68732   0.79133   0.84234   0.00000  Uiso   1.00
C1786  C     0.97946   0.87601   0.82421   0.00000  Uiso   1.00
C1787  C     0.97935   0.79133   0.82435   0.00000  Uiso   1.00
C1788  C     0.68721   0.87601   0.84248   0.00000  Uiso   1.00
C1789  C     0.95750   0.83366   0.82335   0.00000  Uiso   1.00
C1790  C     0.70917   0.83365   0.84333   0.00000  Uiso   1.00
C1791  C     0.81428   0.69130   0.79545   0.00000  Uiso   1.00
C1792  C     0.85296   0.97530   0.87079   0.00000  Uiso   1.00
C1793  C     0.85239   0.69130   0.87122   0.00000  Uiso   1.00
C1794  C     0.81371   0.97529   0.79588   0.00000  Uiso   1.00
N1795  N     0.83333   0.95069   0.83333   0.00000  Uiso   1.00
N1796  N     0.83333   0.71598   0.83333   0.00000  Uiso   1.00
C1797  C     0.69982   0.75442   0.88015   0.00000  Uiso   1.00
C1798  C     0.71827   0.71044   0.85900   0.00000  Uiso   1.00
H1799  H     0.70179   0.69904   0.82457   0.00000  Uiso   1.00
H1800  H     0.75131   0.71543   0.85233   0.00000  Uiso   1.00
H1801  H     0.71663   0.68250   0.88682   0.00000  Uiso   1.00
H1802  H     0.72227   0.76884   0.90827   0.00000  Uiso   1.00
H1803  H     0.67223   0.74463   0.90096   0.00000  Uiso   1.00
C1804  C     0.96262   0.91920   0.79773   0.00000  Uiso   1.00
C1805  C     0.94772   0.90882   0.74465   0.00000  Uiso   1.00
H1806  H     0.97308   0.89286   0.72410   0.00000  Uiso   1.00
H1807  H     0.92073   0.88511   0.74343   0.00000  Uiso   1.00
H1808  H     0.93822   0.94158   0.72592   0.00000  Uiso   1.00
H1809  H     0.93778   0.93598   0.81807   0.00000  Uiso   1.00
H1810  H     0.98739   0.94558   0.79470   0.00000  Uiso   1.00
C1811  C     0.96686   0.75442   0.78654   0.00000  Uiso   1.00
C1812  C     0.94835   0.71047   0.80769   0.00000  Uiso   1.00
H1813  H     0.95016   0.68246   0.77997   0.00000  Uiso   1.00
H1814  H     0.96467   0.69918   0.84225   0.00000  Uiso   1.00
H1815  H     0.91526   0.71543   0.81411   0.00000  Uiso   1.00
H1816  H     0.94444   0.76886   0.75838   0.00000  Uiso   1.00
H1817  H     0.99446   0.74460   0.76577   0.00000  Uiso   1.00
C1818  C     0.70405   0.91921   0.86895   0.00000  Uiso   1.00
C1819  C     0.71896   0.90883   0.92204   0.00000  Uiso   1.00
H1820  H     0.69361   0.89287   0.94259   0.00000  Uiso   1.00
H1821  H     0.74595   0.88511   0.92326   0.00000  Uiso   1.00
H1822  H     0.72847   0.94159   0.94076   0.00000  Uiso   1.00
H1823  H     0.72890   0.93598   0.84862   0.00000  Uiso   1.00
H1824  H     0.67930   0.94559   0.87199   0.00000  Uiso   1.00
N1825  N     0.79417   0.71490   0.75481   0.00000  Uiso   1.00
O1826  O     0.75656   0.73004   0.75818   0.00000  Uiso   1.00
O1827  O     0.81034   0.71363   0.71180   0.00000  Uiso   1.00
N1828  N     0.87488   0.95159   0.91004   0.00000  Uiso   1.00
O1829  O     0.85947   0.95051   0.95351   0.00000  Uiso   1.00
O1830  O     0.91369   0.94135   0.90577   0.00000  Uiso   1.00
N1831  N     0.87250   0.71491   0.91186   0.00000  Uiso   1.00
O1832  O     0.91008   0.73010   0.90847   0.00000  Uiso   1.00
O1833  O     0.85633   0.71362   0.95488   0.00000  Uiso   1.00
N1834  N     0.79179   0.95158   0.75663   0.00000  Uiso   1.00
O1835  O     0.80719   0.95051   0.71316   0.00000  Uiso   1.00
O1836  O     0.75298   0.94134   0.76091   0.00000  Uiso   1.00
loop_
_geom_bond_atom_site_label_1
_geom_bond_atom_site_label_2
_geom_bond_distance
_geom_bond_site_symmetry_2
_ccdc_geom_bond_type
O1     C5      1.304   .     A
O1     Cu13    1.956   .     S
O2     C6      1.306   .     A
O2     Cu14    1.956   .     S
O3     Cu13    1.956   .     S
O3     C6      1.304   .     A
O4     Cu14    1.956   .     S
O4     C5      1.306   .     A
C5     C22     1.472   .     S
C6     C21     1.472   .     S
O7     C11     1.295   .     A
O7     Cu13    1.928   .     S
O8     C12     1.295   .     A
O8     Cu14    1.928   .     S
O9     C12     1.295   .     A
O9     Cu13    1.928   .     S
O10    C11     1.295   .     A
O10    Cu14    1.928   .     S
C11    C15     1.406   .     S
C12    C16     1.406   .     S
Cu13   Cu14    2.705   .     S
Cu13   N27     2.033   .     S
Cu14   N28     2.033   .     S
C15    C1240   1.189   1_554 S
C16    C627    1.189   .     S
C17    C29     1.522   .     S
C17    C22     1.411   .     A
C17    C155    1.403   1_455 S
C18    C21     1.413   .     A
C18    C36     1.528   .     S
C18    C88     1.399   .     S
C19    C43     1.522   .     S
C19    C21     1.411   .     A
C19    C85     1.403   .     S
C20    C50     1.528   .     S
C20    C22     1.413   .     A
C20    C154    1.399   1_455 S
C23    N28     1.376   .     A
C23    N57     1.430   .     S
C23    C434    1.423   1_545 S
C24    N60     1.430   .     S
C24    N27     1.374   .     A
C24    C229    1.423   .     S
C25    N28     1.376   .     A
C25    N63     1.430   .     S
C25    C432    1.423   1_545 S
C26    N27     1.374   .     A
C26    N66     1.430   .     S
C26    C227    1.423   .     S
C29    C30     1.524   .     S
C29    H35     1.112   .     S
C29    H34     1.113   .     S
C30    H32     1.101   .     S
C30    H31     1.107   .     S
C30    H33     1.108   .     S
C36    H42     1.110   .     S
C36    H41     1.105   .     S
C36    C37     1.531   .     S
C37    H39     1.109   .     S
C37    H38     1.111   .     S
C37    H40     1.111   .     S
C43    C44     1.524   .     S
C43    H48     1.113   .     S
C43    H49     1.112   .     S
C44    H47     1.101   .     S
C44    H46     1.107   .     S
C44    H45     1.108   .     S
C50    H56     1.110   .     S
C50    C51     1.531   .     S
C50    H55     1.105   .     S
C51    H54     1.111   .     S
C51    H52     1.111   .     S
C51    H53     1.109   .     S
N57    O59     1.300   .     A
N57    O58     1.299   .     A
N60    O61     1.301   .     A
N60    O62     1.300   .     A
N63    O65     1.300   .     A
N63    O64     1.299   .     A
N66    O68     1.300   .     A
N66    O67     1.301   .     A
O69    C73     1.304   .     A
O69    Cu81    1.956   .     S
O70    C74     1.306   .     A
O70    Cu82    1.956   .     S
O71    Cu81    1.956   .     S
O71    C74     1.304   .     A
O72    Cu82    1.956   .     S
O72    C73     1.306   .     A
C73    C90     1.472   .     S
C74    C89     1.472   .     S
O75    C79     1.295   .     A
O75    Cu81    1.928   .     S
O76    C80     1.295   .     A
O76    Cu82    1.928   .     S
O77    C80     1.295   .     A
O77    Cu81    1.928   .     S
O78    C79     1.295   .     A
O78    Cu82    1.928   .     S
C79    C83     1.406   .     S
C80    C84     1.406   .     S
Cu81   Cu82    2.705   .     S
Cu81   N95     2.033   .     S
Cu82   N96     2.033   .     S
C83    C1308   1.189   1_554 S
C84    C695    1.189   .     S
C85    C97     1.522   .     S
C85    C90     1.411   .     A
C86    C89     1.413   .     A
C86    C104    1.528   .     S
C86    C156    1.399   .     S
C87    C111    1.522   .     S
C87    C89     1.411   .     A
C87    C153    1.403   .     S
C88    C118    1.528   .     S
C88    C90     1.413   .     A
C91    N96     1.376   .     A
C91    N125    1.430   .     S
C91    C502    1.423   1_545 S
C92    N128    1.430   .     S
C92    N95     1.374   .     A
C92    C297    1.423   .     S
C93    N96     1.376   .     A
C93    N131    1.430   .     S
C93    C500    1.423   1_545 S
C94    N95     1.374   .     A
C94    N134    1.430   .     S
C94    C295    1.423   .     S
C97    C98     1.524   .     S
C97    H103    1.112   .     S
C97    H102    1.113   .     S
C98    H100    1.101   .     S
C98    H99     1.107   .     S
C98    H101    1.108   .     S
C104   H110    1.110   .     S
C104   H109    1.105   .     S
C104   C105    1.531   .     S
C105   H107    1.109   .     S
C105   H106    1.111   .     S
C105   H108    1.111   .     S
C111   C112    1.524   .     S
C111   H116    1.113   .     S
C111   H117    1.112   .     S
C112   H115    1.101   .     S
C112   H114    1.107   .     S
C112   H113    1.108   .     S
C118   H124    1.110   .     S
C118   C119    1.531   .     S
C118   H123    1.105   .     S
C119   H122    1.111   .     S
C119   H120    1.111   .     S
C119   H121    1.109   .     S
N125   O127    1.300   .     A
N125   O126    1.299   .     A
N128   O129    1.301   .     A
N128   O130    1.300   .     A
N131   O133    1.300   .     A
N131   O132    1.299   .     A
N134   O136    1.300   .     A
N134   O135    1.301   .     A
O137   C141    1.304   .     A
O137   Cu149   1.956   .     S
O138   C142    1.306   .     A
O138   Cu150   1.956   .     S
O139   Cu149   1.956   .     S
O139   C142    1.304   .     A
O140   Cu150   1.956   .     S
O140   C141    1.306   .     A
C141   C158    1.472   .     S
C142   C157    1.472   .     S
O143   C147    1.295   .     A
O143   Cu149   1.928   .     S
O144   C148    1.295   .     A
O144   Cu150   1.928   .     S
O145   C148    1.295   .     A
O145   Cu149   1.928   .     S
O146   C147    1.295   .     A
O146   Cu150   1.928   .     S
C147   C151    1.406   .     S
C148   C152    1.406   .     S
Cu149  Cu150   2.705   .     S
Cu149  N163    2.033   .     S
Cu150  N164    2.033   .     S
C151   C1376   1.189   1_554 S
C152   C763    1.189   .     S
C153   C165    1.522   .     S
C153   C158    1.411   .     A
C154   C157    1.413   .     A
C154   C172    1.528   .     S
C154   C20     1.399   1_655 S
C155   C179    1.522   .     S
C155   C157    1.411   .     A
C155   C17     1.403   1_655 S
C156   C186    1.528   .     S
C156   C158    1.413   .     A
C159   N164    1.376   .     A
C159   N193    1.430   .     S
C159   C570    1.423   1_545 S
C160   N196    1.430   .     S
C160   N163    1.374   .     A
C160   C365    1.423   .     S
C161   N164    1.376   .     A
C161   N199    1.430   .     S
C161   C568    1.423   1_545 S
C162   N163    1.374   .     A
C162   N202    1.430   .     S
C162   C363    1.423   .     S
C165   C166    1.524   .     S
C165   H171    1.112   .     S
C165   H170    1.113   .     S
C166   H168    1.101   .     S
C166   H167    1.107   .     S
C166   H169    1.108   .     S
C172   H178    1.110   .     S
C172   H177    1.105   .     S
C172   C173    1.531   .     S
C173   H175    1.109   .     S
C173   H174    1.111   .     S
C173   H176    1.111   .     S
C179   C180    1.524   .     S
C179   H184    1.113   .     S
C179   H185    1.112   .     S
C180   H183    1.101   .     S
C180   H182    1.107   .     S
C180   H181    1.108   .     S
C186   H192    1.110   .     S
C186   C187    1.531   .     S
C186   H191    1.105   .     S
C187   H190    1.111   .     S
C187   H188    1.111   .     S
C187   H189    1.109   .     S
N193   O195    1.300   .     A
N193   O194    1.299   .     A
N196   O197    1.301   .     A
N196   O198    1.300   .     A
N199   O201    1.300   .     A
N199   O200    1.299   .     A
N202   O204    1.300   .     A
N202   O203    1.301   .     A
O205   C209    1.304   .     A
O205   Cu217   1.956   .     S
O206   C210    1.306   .     A
O206   Cu218   1.956   .     S
O207   Cu217   1.956   .     S
O207   C210    1.304   .     A
O208   Cu218   1.956   .     S
O208   C209    1.306   .     A
C209   C226    1.472   .     S
C210   C225    1.472   .     S
O211   C215    1.295   .     A
O211   Cu217   1.928   .     S
O212   C216    1.295   .     A
O212   Cu218   1.928   .     S
O213   C216    1.295   .     A
O213   Cu217   1.928   .     S
O214   C215    1.295   .     A
O214   Cu218   1.928   .     S
C215   C219    1.406   .     S
C216   C220    1.406   .     S
Cu217  Cu218   2.705   .     S
Cu217  N231    2.033   .     S
Cu218  N232    2.033   .     S
C219   C1444   1.189   1_554 S
C220   C831    1.189   .     S
C221   C233    1.522   .     S
C221   C226    1.411   .     A
C221   C359    1.403   1_455 S
C222   C225    1.413   .     A
C222   C240    1.528   .     S
C222   C292    1.399   .     S
C223   C247    1.522   .     S
C223   C225    1.411   .     A
C223   C289    1.403   .     S
C224   C254    1.528   .     S
C224   C226    1.413   .     A
C224   C358    1.399   1_455 S
C227   N232    1.376   .     A
C227   N261    1.430   .     S
C228   N264    1.430   .     S
C228   N231    1.374   .     A
C228   C433    1.423   .     S
C229   N232    1.376   .     A
C229   N267    1.430   .     S
C230   N231    1.374   .     A
C230   N270    1.430   .     S
C230   C431    1.423   .     S
C233   C234    1.524   .     S
C233   H239    1.112   .     S
C233   H238    1.113   .     S
C234   H236    1.101   .     S
C234   H235    1.107   .     S
C234   H237    1.108   .     S
C240   H246    1.110   .     S
C240   H245    1.105   .     S
C240   C241    1.531   .     S
C241   H243    1.109   .     S
C241   H242    1.111   .     S
C241   H244    1.111   .     S
C247   C248    1.524   .     S
C247   H252    1.113   .     S
C247   H253    1.112   .     S
C248   H251    1.101   .     S
C248   H250    1.107   .     S
C248   H249    1.108   .     S
C254   H260    1.110   .     S
C254   C255    1.531   .     S
C254   H259    1.105   .     S
C255   H258    1.111   .     S
C255   H256    1.111   .     S
C255   H257    1.109   .     S
N261   O263    1.300   .     A
N261   O262    1.299   .     A
N264   O265    1.301   .     A
N264   O266    1.300   .     A
N267   O269    1.300   .     A
N267   O268    1.299   .     A
N270   O272    1.300   .     A
N270   O271    1.301   .     A
O273   C277    1.304   .     A
O273   Cu285   1.956   .     S
O274   C278    1.306   .     A
O274   Cu286   1.956   .     S
O275   Cu285   1.956   .     S
O275   C278    1.304   .     A
O276   Cu286   1.956   .     S
O276   C277    1.306   .     A
C277   C294    1.472   .     S
C278   C293    1.472   .     S
O279   C283    1.295   .     A
O279   Cu285   1.928   .     S
O280   C284    1.295   .     A
O280   Cu286   1.928   .     S
O281   C284    1.295   .     A
O281   Cu285   1.928   .     S
O282   C283    1.295   .     A
O282   Cu286   1.928   .     S
C283   C287    1.406   .     S
C284   C288    1.406   .     S
Cu285  Cu286   2.705   .     S
Cu285  N299    2.033   .     S
Cu286  N300    2.033   .     S
C287   C1512   1.189   1_554 S
C288   C899    1.189   .     S
C289   C301    1.522   .     S
C289   C294    1.411   .     A
C290   C293    1.413   .     A
C290   C308    1.528   .     S
C290   C360    1.399   .     S
C291   C315    1.522   .     S
C291   C293    1.411   .     A
C291   C357    1.403   .     S
C292   C322    1.528   .     S
C292   C294    1.413   .     A
C295   N300    1.376   .     A
C295   N329    1.430   .     S
C296   N332    1.430   .     S
C296   N299    1.374   .     A
C296   C501    1.423   .     S
C297   N300    1.376   .     A
C297   N335    1.430   .     S
C298   N299    1.374   .     A
C298   N338    1.430   .     S
C298   C499    1.423   .     S
C301   C302    1.524   .     S
C301   H307    1.112   .     S
C301   H306    1.113   .     S
C302   H304    1.101   .     S
C302   H303    1.107   .     S
C302   H305    1.108   .     S
C308   H314    1.110   .     S
C308   H313    1.105   .     S
C308   C309    1.531   .     S
C309   H311    1.109   .     S
C309   H310    1.111   .     S
C309   H312    1.111   .     S
C315   C316    1.524   .     S
C315   H320    1.113   .     S
C315   H321    1.112   .     S
C316   H319    1.101   .     S
C316   H318    1.107   .     S
C316   H317    1.108   .     S
C322   H328    1.110   .     S
C322   C323    1.531   .     S
C322   H327    1.105   .     S
C323   H326    1.111   .     S
C323   H324    1.111   .     S
C323   H325    1.109   .     S
N329   O331    1.300   .     A
N329   O330    1.299   .     A
N332   O333    1.301   .     A
N332   O334    1.300   .     A
N335   O337    1.300   .     A
N335   O336    1.299   .     A
N338   O340    1.300   .     A
N338   O339    1.301   .     A
O341   C345    1.304   .     A
O341   Cu353   1.956   .     S
O342   C346    1.306   .     A
O342   Cu354   1.956   .     S
O343   Cu353   1.956   .     S
O343   C346    1.304   .     A
O344   Cu354   1.956   .     S
O344   C345    1.306   .     A
C345   C362    1.472   .     S
C346   C361    1.472   .     S
O347   C351    1.295   .     A
O347   Cu353   1.928   .     S
O348   C352    1.295   .     A
O348   Cu354   1.928   .     S
O349   C352    1.295   .     A
O349   Cu353   1.928   .     S
O350   C351    1.295   .     A
O350   Cu354   1.928   .     S
C351   C355    1.406   .     S
C352   C356    1.406   .     S
Cu353  Cu354   2.705   .     S
Cu353  N367    2.033   .     S
Cu354  N368    2.033   .     S
C355   C1580   1.189   1_554 S
C356   C967    1.189   .     S
C357   C369    1.522   .     S
C357   C362    1.411   .     A
C358   C361    1.413   .     A
C358   C376    1.528   .     S
C358   C224    1.399   1_655 S
C359   C383    1.522   .     S
C359   C361    1.411   .     A
C359   C221    1.403   1_655 S
C360   C390    1.528   .     S
C360   C362    1.413   .     A
C363   N368    1.376   .     A
C363   N397    1.430   .     S
C364   N400    1.430   .     S
C364   N367    1.374   .     A
C364   C569    1.423   .     S
C365   N368    1.376   .     A
C365   N403    1.430   .     S
C366   N367    1.374   .     A
C366   N406    1.430   .     S
C366   C567    1.423   .     S
C369   C370    1.524   .     S
C369   H375    1.112   .     S
C369   H374    1.113   .     S
C370   H372    1.101   .     S
C370   H371    1.107   .     S
C370   H373    1.108   .     S
C376   H382    1.110   .     S
C376   H381    1.105   .     S
C376   C377    1.531   .     S
C377   H379    1.109   .     S
C377   H378    1.111   .     S
C377   H380    1.111   .     S
C383   C384    1.524   .     S
C383   H388    1.113   .     S
C383   H389    1.112   .     S
C384   H387    1.101   .     S
C384   H386    1.107   .     S
C384   H385    1.108   .     S
C390   H396    1.110   .     S
C390   C391    1.531   .     S
C390   H395    1.105   .     S
C391   H394    1.111   .     S
C391   H392    1.111   .     S
C391   H393    1.109   .     S
N397   O399    1.300   .     A
N397   O398    1.299   .     A
N400   O401    1.301   .     A
N400   O402    1.300   .     A
N403   O405    1.300   .     A
N403   O404    1.299   .     A
N406   O408    1.300   .     A
N406   O407    1.301   .     A
O409   C413    1.304   .     A
O409   Cu421   1.956   .     S
O410   C414    1.306   .     A
O410   Cu422   1.956   .     S
O411   Cu421   1.956   .     S
O411   C414    1.304   .     A
O412   Cu422   1.956   .     S
O412   C413    1.306   .     A
C413   C430    1.472   .     S
C414   C429    1.472   .     S
O415   C419    1.295   .     A
O415   Cu421   1.928   .     S
O416   C420    1.295   .     A
O416   Cu422   1.928   .     S
O417   C420    1.295   .     A
O417   Cu421   1.928   .     S
O418   C419    1.295   .     A
O418   Cu422   1.928   .     S
C419   C423    1.406   .     S
C420   C424    1.406   .     S
Cu421  Cu422   2.705   .     S
Cu421  N435    2.033   .     S
Cu422  N436    2.033   .     S
C423   C1648   1.189   1_554 S
C424   C1035   1.189   .     S
C425   C437    1.522   .     S
C425   C430    1.411   .     A
C425   C563    1.403   1_455 S
C426   C429    1.413   .     A
C426   C444    1.528   .     S
C426   C496    1.399   .     S
C427   C451    1.522   .     S
C427   C429    1.411   .     A
C427   C493    1.403   .     S
C428   C458    1.528   .     S
C428   C430    1.413   .     A
C428   C562    1.399   1_455 S
C431   N436    1.376   .     A
C431   N465    1.430   .     S
C432   N468    1.430   .     S
C432   N435    1.374   .     A
C432   C25     1.423   1_565 S
C433   N436    1.376   .     A
C433   N471    1.430   .     S
C434   N435    1.374   .     A
C434   N474    1.430   .     S
C434   C23     1.423   1_565 S
C437   C438    1.524   .     S
C437   H443    1.112   .     S
C437   H442    1.113   .     S
C438   H440    1.101   .     S
C438   H439    1.107   .     S
C438   H441    1.108   .     S
C444   H450    1.110   .     S
C444   H449    1.105   .     S
C444   C445    1.531   .     S
C445   H447    1.109   .     S
C445   H446    1.111   .     S
C445   H448    1.111   .     S
C451   C452    1.524   .     S
C451   H456    1.113   .     S
C451   H457    1.112   .     S
C452   H455    1.101   .     S
C452   H454    1.107   .     S
C452   H453    1.108   .     S
C458   H464    1.110   .     S
C458   C459    1.531   .     S
C458   H463    1.105   .     S
C459   H462    1.111   .     S
C459   H460    1.111   .     S
C459   H461    1.109   .     S
N465   O467    1.300   .     A
N465   O466    1.299   .     A
N468   O469    1.301   .     A
N468   O470    1.300   .     A
N471   O473    1.300   .     A
N471   O472    1.299   .     A
N474   O476    1.300   .     A
N474   O475    1.301   .     A
O477   C481    1.304   .     A
O477   Cu489   1.956   .     S
O478   C482    1.306   .     A
O478   Cu490   1.956   .     S
O479   Cu489   1.956   .     S
O479   C482    1.304   .     A
O480   Cu490   1.956   .     S
O480   C481    1.306   .     A
C481   C498    1.472   .     S
C482   C497    1.472   .     S
O483   C487    1.295   .     A
O483   Cu489   1.928   .     S
O484   C488    1.295   .     A
O484   Cu490   1.928   .     S
O485   C488    1.295   .     A
O485   Cu489   1.928   .     S
O486   C487    1.295   .     A
O486   Cu490   1.928   .     S
C487   C491    1.406   .     S
C488   C492    1.406   .     S
Cu489  Cu490   2.705   .     S
Cu489  N503    2.033   .     S
Cu490  N504    2.033   .     S
C491   C1716   1.189   1_554 S
C492   C1103   1.189   .     S
C493   C505    1.522   .     S
C493   C498    1.411   .     A
C494   C497    1.413   .     A
C494   C512    1.528   .     S
C494   C564    1.399   .     S
C495   C519    1.522   .     S
C495   C497    1.411   .     A
C495   C561    1.403   .     S
C496   C526    1.528   .     S
C496   C498    1.413   .     A
C499   N504    1.376   .     A
C499   N533    1.430   .     S
C500   N536    1.430   .     S
C500   N503    1.374   .     A
C500   C93     1.423   1_565 S
C501   N504    1.376   .     A
C501   N539    1.430   .     S
C502   N503    1.374   .     A
C502   N542    1.430   .     S
C502   C91     1.423   1_565 S
C505   C506    1.524   .     S
C505   H511    1.112   .     S
C505   H510    1.113   .     S
C506   H508    1.101   .     S
C506   H507    1.107   .     S
C506   H509    1.108   .     S
C512   H518    1.110   .     S
C512   H517    1.105   .     S
C512   C513    1.531   .     S
C513   H515    1.109   .     S
C513   H514    1.111   .     S
C513   H516    1.111   .     S
C519   C520    1.524   .     S
C519   H524    1.113   .     S
C519   H525    1.112   .     S
C520   H523    1.101   .     S
C520   H522    1.107   .     S
C520   H521    1.108   .     S
C526   H532    1.110   .     S
C526   C527    1.531   .     S
C526   H531    1.105   .     S
C527   H530    1.111   .     S
C527   H528    1.111   .     S
C527   H529    1.109   .     S
N533   O535    1.300   .     A
N533   O534    1.299   .     A
N536   O537    1.301   .     A
N536   O538    1.300   .     A
N539   O541    1.300   .     A
N539   O540    1.299   .     A
N542   O544    1.300   .     A
N542   O543    1.301   .     A
O545   C549    1.304   .     A
O545   Cu557   1.956   .     S
O546   C550    1.306   .     A
O546   Cu558   1.956   .     S
O547   Cu557   1.956   .     S
O547   C550    1.304   .     A
O548   Cu558   1.956   .     S
O548   C549    1.306   .     A
C549   C566    1.472   .     S
C550   C565    1.472   .     S
O551   C555    1.295   .     A
O551   Cu557   1.928   .     S
O552   C556    1.295   .     A
O552   Cu558   1.928   .     S
O553   C556    1.295   .     A
O553   Cu557   1.928   .     S
O554   C555    1.295   .     A
O554   Cu558   1.928   .     S
C555   C559    1.406   .     S
C556   C560    1.406   .     S
Cu557  Cu558   2.705   .     S
Cu557  N571    2.033   .     S
Cu558  N572    2.033   .     S
C559   C1784   1.189   1_554 S
C560   C1171   1.189   .     S
C561   C573    1.522   .     S
C561   C566    1.411   .     A
C562   C565    1.413   .     A
C562   C580    1.528   .     S
C562   C428    1.399   1_655 S
C563   C587    1.522   .     S
C563   C565    1.411   .     A
C563   C425    1.403   1_655 S
C564   C594    1.528   .     S
C564   C566    1.413   .     A
C567   N572    1.376   .     A
C567   N601    1.430   .     S
C568   N604    1.430   .     S
C568   N571    1.374   .     A
C568   C161    1.423   1_565 S
C569   N572    1.376   .     A
C569   N607    1.430   .     S
C570   N571    1.374   .     A
C570   N610    1.430   .     S
C570   C159    1.423   1_565 S
C573   C574    1.524   .     S
C573   H579    1.112   .     S
C573   H578    1.113   .     S
C574   H576    1.101   .     S
C574   H575    1.107   .     S
C574   H577    1.108   .     S
C580   H586    1.110   .     S
C580   H585    1.105   .     S
C580   C581    1.531   .     S
C581   H583    1.109   .     S
C581   H582    1.111   .     S
C581   H584    1.111   .     S
C587   C588    1.524   .     S
C587   H592    1.113   .     S
C587   H593    1.112   .     S
C588   H591    1.101   .     S
C588   H590    1.107   .     S
C588   H589    1.108   .     S
C594   H600    1.110   .     S
C594   C595    1.531   .     S
C594   H599    1.105   .     S
C595   H598    1.111   .     S
C595   H596    1.111   .     S
C595   H597    1.109   .     S
N601   O603    1.300   .     A
N601   O602    1.299   .     A
N604   O605    1.301   .     A
N604   O606    1.300   .     A
N607   O609    1.300   .     A
N607   O608    1.299   .     A
N610   O612    1.300   .     A
N610   O611    1.301   .     A
O613   C617    1.304   .     A
O613   Cu625   1.956   .     S
O614   C618    1.306   .     A
O614   Cu626   1.956   .     S
O615   Cu625   1.956   .     S
O615   C618    1.304   .     A
O616   Cu626   1.956   .     S
O616   C617    1.306   .     A
C617   C634    1.472   .     S
C618   C633    1.472   .     S
O619   C623    1.295   .     A
O619   Cu625   1.928   .     S
O620   C624    1.295   .     A
O620   Cu626   1.928   .     S
O621   C624    1.295   .     A
O621   Cu625   1.928   .     S
O622   C623    1.295   .     A
O622   Cu626   1.928   .     S
C623   C627    1.406   .     S
C624   C628    1.406   .     S
Cu625  Cu626   2.705   .     S
Cu625  N639    2.033   .     S
Cu626  N640    2.033   .     S
C628   C1239   1.189   .     S
C629   C641    1.522   .     S
C629   C634    1.411   .     A
C629   C767    1.403   1_455 S
C630   C633    1.413   .     A
C630   C648    1.528   .     S
C630   C700    1.399   .     S
C631   C655    1.522   .     S
C631   C633    1.411   .     A
C631   C697    1.403   .     S
C632   C662    1.528   .     S
C632   C634    1.413   .     A
C632   C766    1.399   1_455 S
C635   N640    1.376   .     A
C635   N669    1.430   .     S
C635   C1046   1.423   1_545 S
C636   N672    1.430   .     S
C636   N639    1.374   .     A
C636   C841    1.423   .     S
C637   N640    1.376   .     A
C637   N675    1.430   .     S
C637   C1044   1.423   1_545 S
C638   N639    1.374   .     A
C638   N678    1.430   .     S
C638   C839    1.423   .     S
C641   C642    1.524   .     S
C641   H647    1.112   .     S
C641   H646    1.113   .     S
C642   H644    1.101   .     S
C642   H643    1.107   .     S
C642   H645    1.108   .     S
C648   H654    1.110   .     S
C648   H653    1.105   .     S
C648   C649    1.531   .     S
C649   H651    1.109   .     S
C649   H650    1.111   .     S
C649   H652    1.111   .     S
C655   C656    1.524   .     S
C655   H660    1.113   .     S
C655   H661    1.112   .     S
C656   H659    1.101   .     S
C656   H658    1.107   .     S
C656   H657    1.108   .     S
C662   H668    1.110   .     S
C662   C663    1.531   .     S
C662   H667    1.105   .     S
C663   H666    1.111   .     S
C663   H664    1.111   .     S
C663   H665    1.109   .     S
N669   O671    1.300   .     A
N669   O670    1.299   .     A
N672   O673    1.301   .     A
N672   O674    1.300   .     A
N675   O677    1.300   .     A
N675   O676    1.299   .     A
N678   O680    1.300   .     A
N678   O679    1.301   .     A
O681   C685    1.304   .     A
O681   Cu693   1.956   .     S
O682   C686    1.306   .     A
O682   Cu694   1.956   .     S
O683   Cu693   1.956   .     S
O683   C686    1.304   .     A
O684   Cu694   1.956   .     S
O684   C685    1.306   .     A
C685   C702    1.472   .     S
C686   C701    1.472   .     S
O687   C691    1.295   .     A
O687   Cu693   1.928   .     S
O688   C692    1.295   .     A
O688   Cu694   1.928   .     S
O689   C692    1.295   .     A
O689   Cu693   1.928   .     S
O690   C691    1.295   .     A
O690   Cu694   1.928   .     S
C691   C695    1.406   .     S
C692   C696    1.406   .     S
Cu693  Cu694   2.705   .     S
Cu693  N707    2.033   .     S
Cu694  N708    2.033   .     S
C696   C1307   1.189   .     S
C697   C709    1.522   .     S
C697   C702    1.411   .     A
C698   C701    1.413   .     A
C698   C716    1.528   .     S
C698   C768    1.399   .     S
C699   C723    1.522   .     S
C699   C701    1.411   .     A
C699   C765    1.403   .     S
C700   C730    1.528   .     S
C700   C702    1.413   .     A
C703   N708    1.376   .     A
C703   N737    1.430   .     S
C703   C1114   1.423   1_545 S
C704   N740    1.430   .     S
C704   N707    1.374   .     A
C704   C909    1.423   .     S
C705   N708    1.376   .     A
C705   N743    1.430   .     S
C705   C1112   1.423   1_545 S
C706   N707    1.374   .     A
C706   N746    1.430   .     S
C706   C907    1.423   .     S
C709   C710    1.524   .     S
C709   H715    1.112   .     S
C709   H714    1.113   .     S
C710   H712    1.101   .     S
C710   H711    1.107   .     S
C710   H713    1.108   .     S
C716   H722    1.110   .     S
C716   H721    1.105   .     S
C716   C717    1.531   .     S
C717   H719    1.109   .     S
C717   H718    1.111   .     S
C717   H720    1.111   .     S
C723   C724    1.524   .     S
C723   H728    1.113   .     S
C723   H729    1.112   .     S
C724   H727    1.101   .     S
C724   H726    1.107   .     S
C724   H725    1.108   .     S
C730   H736    1.110   .     S
C730   C731    1.531   .     S
C730   H735    1.105   .     S
C731   H734    1.111   .     S
C731   H732    1.111   .     S
C731   H733    1.109   .     S
N737   O739    1.300   .     A
N737   O738    1.299   .     A
N740   O741    1.301   .     A
N740   O742    1.300   .     A
N743   O745    1.300   .     A
N743   O744    1.299   .     A
N746   O748    1.300   .     A
N746   O747    1.301   .     A
O749   C753    1.304   .     A
O749   Cu761   1.956   .     S
O750   C754    1.306   .     A
O750   Cu762   1.956   .     S
O751   Cu761   1.956   .     S
O751   C754    1.304   .     A
O752   Cu762   1.956   .     S
O752   C753    1.306   .     A
C753   C770    1.472   .     S
C754   C769    1.472   .     S
O755   C759    1.295   .     A
O755   Cu761   1.928   .     S
O756   C760    1.295   .     A
O756   Cu762   1.928   .     S
O757   C760    1.295   .     A
O757   Cu761   1.928   .     S
O758   C759    1.295   .     A
O758   Cu762   1.928   .     S
C759   C763    1.406   .     S
C760   C764    1.406   .     S
Cu761  Cu762   2.705   .     S
Cu761  N775    2.033   .     S
Cu762  N776    2.033   .     S
C764   C1375   1.189   .     S
C765   C777    1.522   .     S
C765   C770    1.411   .     A
C766   C769    1.413   .     A
C766   C784    1.528   .     S
C766   C632    1.399   1_655 S
C767   C791    1.522   .     S
C767   C769    1.411   .     A
C767   C629    1.403   1_655 S
C768   C798    1.528   .     S
C768   C770    1.413   .     A
C771   N776    1.376   .     A
C771   N805    1.430   .     S
C771   C1182   1.423   1_545 S
C772   N808    1.430   .     S
C772   N775    1.374   .     A
C772   C977    1.423   .     S
C773   N776    1.376   .     A
C773   N811    1.430   .     S
C773   C1180   1.423   1_545 S
C774   N775    1.374   .     A
C774   N814    1.430   .     S
C774   C975    1.423   .     S
C777   C778    1.524   .     S
C777   H783    1.112   .     S
C777   H782    1.113   .     S
C778   H780    1.101   .     S
C778   H779    1.107   .     S
C778   H781    1.108   .     S
C784   H790    1.110   .     S
C784   H789    1.105   .     S
C784   C785    1.531   .     S
C785   H787    1.109   .     S
C785   H786    1.111   .     S
C785   H788    1.111   .     S
C791   C792    1.524   .     S
C791   H796    1.113   .     S
C791   H797    1.112   .     S
C792   H795    1.101   .     S
C792   H794    1.107   .     S
C792   H793    1.108   .     S
C798   H804    1.110   .     S
C798   C799    1.531   .     S
C798   H803    1.105   .     S
C799   H802    1.111   .     S
C799   H800    1.111   .     S
C799   H801    1.109   .     S
N805   O807    1.300   .     A
N805   O806    1.299   .     A
N808   O809    1.301   .     A
N808   O810    1.300   .     A
N811   O813    1.300   .     A
N811   O812    1.299   .     A
N814   O816    1.300   .     A
N814   O815    1.301   .     A
O817   C821    1.304   .     A
O817   Cu829   1.956   .     S
O818   C822    1.306   .     A
O818   Cu830   1.956   .     S
O819   Cu829   1.956   .     S
O819   C822    1.304   .     A
O820   Cu830   1.956   .     S
O820   C821    1.306   .     A
C821   C838    1.472   .     S
C822   C837    1.472   .     S
O823   C827    1.295   .     A
O823   Cu829   1.928   .     S
O824   C828    1.295   .     A
O824   Cu830   1.928   .     S
O825   C828    1.295   .     A
O825   Cu829   1.928   .     S
O826   C827    1.295   .     A
O826   Cu830   1.928   .     S
C827   C831    1.406   .     S
C828   C832    1.406   .     S
Cu829  Cu830   2.705   .     S
Cu829  N843    2.033   .     S
Cu830  N844    2.033   .     S
C832   C1443   1.189   .     S
C833   C845    1.522   .     S
C833   C838    1.411   .     A
C833   C971    1.403   1_455 S
C834   C837    1.413   .     A
C834   C852    1.528   .     S
C834   C904    1.399   .     S
C835   C859    1.522   .     S
C835   C837    1.411   .     A
C835   C901    1.403   .     S
C836   C866    1.528   .     S
C836   C838    1.413   .     A
C836   C970    1.399   1_455 S
C839   N844    1.376   .     A
C839   N873    1.430   .     S
C840   N876    1.430   .     S
C840   N843    1.374   .     A
C840   C1045   1.423   .     S
C841   N844    1.376   .     A
C841   N879    1.430   .     S
C842   N843    1.374   .     A
C842   N882    1.430   .     S
C842   C1043   1.423   .     S
C845   C846    1.524   .     S
C845   H851    1.112   .     S
C845   H850    1.113   .     S
C846   H848    1.101   .     S
C846   H847    1.107   .     S
C846   H849    1.108   .     S
C852   H858    1.110   .     S
C852   H857    1.105   .     S
C852   C853    1.531   .     S
C853   H855    1.109   .     S
C853   H854    1.111   .     S
C853   H856    1.111   .     S
C859   C860    1.524   .     S
C859   H864    1.113   .     S
C859   H865    1.112   .     S
C860   H863    1.101   .     S
C860   H862    1.107   .     S
C860   H861    1.108   .     S
C866   H872    1.110   .     S
C866   C867    1.531   .     S
C866   H871    1.105   .     S
C867   H870    1.111   .     S
C867   H868    1.111   .     S
C867   H869    1.109   .     S
N873   O875    1.300   .     A
N873   O874    1.299   .     A
N876   O877    1.301   .     A
N876   O878    1.300   .     A
N879   O881    1.300   .     A
N879   O880    1.299   .     A
N882   O884    1.300   .     A
N882   O883    1.301   .     A
O885   C889    1.304   .     A
O885   Cu897   1.956   .     S
O886   C890    1.306   .     A
O886   Cu898   1.956   .     S
O887   Cu897   1.956   .     S
O887   C890    1.304   .     A
O888   Cu898   1.956   .     S
O888   C889    1.306   .     A
C889   C906    1.472   .     S
C890   C905    1.472   .     S
O891   C895    1.295   .     A
O891   Cu897   1.928   .     S
O892   C896    1.295   .     A
O892   Cu898   1.928   .     S
O893   C896    1.295   .     A
O893   Cu897   1.928   .     S
O894   C895    1.295   .     A
O894   Cu898   1.928   .     S
C895   C899    1.406   .     S
C896   C900    1.406   .     S
Cu897  Cu898   2.705   .     S
Cu897  N911    2.033   .     S
Cu898  N912    2.033   .     S
C900   C1511   1.189   .     S
C901   C913    1.522   .     S
C901   C906    1.411   .     A
C902   C905    1.413   .     A
C902   C920    1.528   .     S
C902   C972    1.399   .     S
C903   C927    1.522   .     S
C903   C905    1.411   .     A
C903   C969    1.403   .     S
C904   C934    1.528   .     S
C904   C906    1.413   .     A
C907   N912    1.376   .     A
C907   N941    1.430   .     S
C908   N944    1.430   .     S
C908   N911    1.374   .     A
C908   C1113   1.423   .     S
C909   N912    1.376   .     A
C909   N947    1.430   .     S
C910   N911    1.374   .     A
C910   N950    1.430   .     S
C910   C1111   1.423   .     S
C913   C914    1.524   .     S
C913   H919    1.112   .     S
C913   H918    1.113   .     S
C914   H916    1.101   .     S
C914   H915    1.107   .     S
C914   H917    1.108   .     S
C920   H926    1.110   .     S
C920   H925    1.105   .     S
C920   C921    1.531   .     S
C921   H923    1.109   .     S
C921   H922    1.111   .     S
C921   H924    1.111   .     S
C927   C928    1.524   .     S
C927   H932    1.113   .     S
C927   H933    1.112   .     S
C928   H931    1.101   .     S
C928   H930    1.107   .     S
C928   H929    1.108   .     S
C934   H940    1.110   .     S
C934   C935    1.531   .     S
C934   H939    1.105   .     S
C935   H938    1.111   .     S
C935   H936    1.111   .     S
C935   H937    1.109   .     S
N941   O943    1.300   .     A
N941   O942    1.299   .     A
N944   O945    1.301   .     A
N944   O946    1.300   .     A
N947   O949    1.300   .     A
N947   O948    1.299   .     A
N950   O952    1.300   .     A
N950   O951    1.301   .     A
O953   C957    1.304   .     A
O953   Cu965   1.956   .     S
O954   C958    1.306   .     A
O954   Cu966   1.956   .     S
O955   Cu965   1.956   .     S
O955   C958    1.304   .     A
O956   Cu966   1.956   .     S
O956   C957    1.306   .     A
C957   C974    1.472   .     S
C958   C973    1.472   .     S
O959   C963    1.295   .     A
O959   Cu965   1.928   .     S
O960   C964    1.295   .     A
O960   Cu966   1.928   .     S
O961   C964    1.295   .     A
O961   Cu965   1.928   .     S
O962   C963    1.295   .     A
O962   Cu966   1.928   .     S
C963   C967    1.406   .     S
C964   C968    1.406   .     S
Cu965  Cu966   2.705   .     S
Cu965  N979    2.033   .     S
Cu966  N980    2.033   .     S
C968   C1579   1.189   .     S
C969   C981    1.522   .     S
C969   C974    1.411   .     A
C970   C973    1.413   .     A
C970   C988    1.528   .     S
C970   C836    1.399   1_655 S
C971   C995    1.522   .     S
C971   C973    1.411   .     A
C971   C833    1.403   1_655 S
C972   C1002   1.528   .     S
C972   C974    1.413   .     A
C975   N980    1.376   .     A
C975   N1009   1.430   .     S
C976   N1012   1.430   .     S
C976   N979    1.374   .     A
C976   C1181   1.423   .     S
C977   N980    1.376   .     A
C977   N1015   1.430   .     S
C978   N979    1.374   .     A
C978   N1018   1.430   .     S
C978   C1179   1.423   .     S
C981   C982    1.524   .     S
C981   H987    1.112   .     S
C981   H986    1.113   .     S
C982   H984    1.101   .     S
C982   H983    1.107   .     S
C982   H985    1.108   .     S
C988   H994    1.110   .     S
C988   H993    1.105   .     S
C988   C989    1.531   .     S
C989   H991    1.109   .     S
C989   H990    1.111   .     S
C989   H992    1.111   .     S
C995   C996    1.524   .     S
C995   H1000   1.113   .     S
C995   H1001   1.112   .     S
C996   H999    1.101   .     S
C996   H998    1.107   .     S
C996   H997    1.108   .     S
C1002  H1008   1.110   .     S
C1002  C1003   1.531   .     S
C1002  H1007   1.105   .     S
C1003  H1006   1.111   .     S
C1003  H1004   1.111   .     S
C1003  H1005   1.109   .     S
N1009  O1011   1.300   .     A
N1009  O1010   1.299   .     A
N1012  O1013   1.301   .     A
N1012  O1014   1.300   .     A
N1015  O1017   1.300   .     A
N1015  O1016   1.299   .     A
N1018  O1020   1.300   .     A
N1018  O1019   1.301   .     A
O1021  C1025   1.304   .     A
O1021  Cu1033  1.956   .     S
O1022  C1026   1.306   .     A
O1022  Cu1034  1.956   .     S
O1023  Cu1033  1.956   .     S
O1023  C1026   1.304   .     A
O1024  Cu1034  1.956   .     S
O1024  C1025   1.306   .     A
C1025  C1042   1.472   .     S
C1026  C1041   1.472   .     S
O1027  C1031   1.295   .     A
O1027  Cu1033  1.928   .     S
O1028  C1032   1.295   .     A
O1028  Cu1034  1.928   .     S
O1029  C1032   1.295   .     A
O1029  Cu1033  1.928   .     S
O1030  C1031   1.295   .     A
O1030  Cu1034  1.928   .     S
C1031  C1035   1.406   .     S
C1032  C1036   1.406   .     S
Cu1033 Cu1034  2.705   .     S
Cu1033 N1047   2.033   .     S
Cu1034 N1048   2.033   .     S
C1036  C1647   1.189   .     S
C1037  C1049   1.522   .     S
C1037  C1042   1.411   .     A
C1037  C1175   1.403   1_455 S
C1038  C1041   1.413   .     A
C1038  C1056   1.528   .     S
C1038  C1108   1.399   .     S
C1039  C1063   1.522   .     S
C1039  C1041   1.411   .     A
C1039  C1105   1.403   .     S
C1040  C1070   1.528   .     S
C1040  C1042   1.413   .     A
C1040  C1174   1.399   1_455 S
C1043  N1048   1.376   .     A
C1043  N1077   1.430   .     S
C1044  N1080   1.430   .     S
C1044  N1047   1.374   .     A
C1044  C637    1.423   1_565 S
C1045  N1048   1.376   .     A
C1045  N1083   1.430   .     S
C1046  N1047   1.374   .     A
C1046  N1086   1.430   .     S
C1046  C635    1.423   1_565 S
C1049  C1050   1.524   .     S
C1049  H1055   1.112   .     S
C1049  H1054   1.113   .     S
C1050  H1052   1.101   .     S
C1050  H1051   1.107   .     S
C1050  H1053   1.108   .     S
C1056  H1062   1.110   .     S
C1056  H1061   1.105   .     S
C1056  C1057   1.531   .     S
C1057  H1059   1.109   .     S
C1057  H1058   1.111   .     S
C1057  H1060   1.111   .     S
C1063  C1064   1.524   .     S
C1063  H1068   1.113   .     S
C1063  H1069   1.112   .     S
C1064  H1067   1.101   .     S
C1064  H1066   1.107   .     S
C1064  H1065   1.108   .     S
C1070  H1076   1.110   .     S
C1070  C1071   1.531   .     S
C1070  H1075   1.105   .     S
C1071  H1074   1.111   .     S
C1071  H1072   1.111   .     S
C1071  H1073   1.109   .     S
N1077  O1079   1.300   .     A
N1077  O1078   1.299   .     A
N1080  O1081   1.301   .     A
N1080  O1082   1.300   .     A
N1083  O1085   1.300   .     A
N1083  O1084   1.299   .     A
N1086  O1088   1.300   .     A
N1086  O1087   1.301   .     A
O1089  C1093   1.304   .     A
O1089  Cu1101  1.956   .     S
O1090  C1094   1.306   .     A
O1090  Cu1102  1.956   .     S
O1091  Cu1101  1.956   .     S
O1091  C1094   1.304   .     A
O1092  Cu1102  1.956   .     S
O1092  C1093   1.306   .     A
C1093  C1110   1.472   .     S
C1094  C1109   1.472   .     S
O1095  C1099   1.295   .     A
O1095  Cu1101  1.928   .     S
O1096  C1100   1.295   .     A
O1096  Cu1102  1.928   .     S
O1097  C1100   1.295   .     A
O1097  Cu1101  1.928   .     S
O1098  C1099   1.295   .     A
O1098  Cu1102  1.928   .     S
C1099  C1103   1.406   .     S
C1100  C1104   1.406   .     S
Cu1101 Cu1102  2.705   .     S
Cu1101 N1115   2.033   .     S
Cu1102 N1116   2.033   .     S
C1104  C1715   1.189   .     S
C1105  C1117   1.522   .     S
C1105  C1110   1.411   .     A
C1106  C1109   1.413   .     A
C1106  C1124   1.528   .     S
C1106  C1176   1.399   .     S
C1107  C1131   1.522   .     S
C1107  C1109   1.411   .     A
C1107  C1173   1.403   .     S
C1108  C1138   1.528   .     S
C1108  C1110   1.413   .     A
C1111  N1116   1.376   .     A
C1111  N1145   1.430   .     S
C1112  N1148   1.430   .     S
C1112  N1115   1.374   .     A
C1112  C705    1.423   1_565 S
C1113  N1116   1.376   .     A
C1113  N1151   1.430   .     S
C1114  N1115   1.374   .     A
C1114  N1154   1.430   .     S
C1114  C703    1.423   1_565 S
C1117  C1118   1.524   .     S
C1117  H1123   1.112   .     S
C1117  H1122   1.113   .     S
C1118  H1120   1.101   .     S
C1118  H1119   1.107   .     S
C1118  H1121   1.108   .     S
C1124  H1130   1.110   .     S
C1124  H1129   1.105   .     S
C1124  C1125   1.531   .     S
C1125  H1127   1.109   .     S
C1125  H1126   1.111   .     S
C1125  H1128   1.111   .     S
C1131  C1132   1.524   .     S
C1131  H1136   1.113   .     S
C1131  H1137   1.112   .     S
C1132  H1135   1.101   .     S
C1132  H1134   1.107   .     S
C1132  H1133   1.108   .     S
C1138  H1144   1.110   .     S
C1138  C1139   1.531   .     S
C1138  H1143   1.105   .     S
C1139  H1142   1.111   .     S
C1139  H1140   1.111   .     S
C1139  H1141   1.109   .     S
N1145  O1147   1.300   .     A
N1145  O1146   1.299   .     A
N1148  O1149   1.301   .     A
N1148  O1150   1.300   .     A
N1151  O1153   1.300   .     A
N1151  O1152   1.299   .     A
N1154  O1156   1.300   .     A
N1154  O1155   1.301   .     A
O1157  C1161   1.304   .     A
O1157  Cu1169  1.956   .     S
O1158  C1162   1.306   .     A
O1158  Cu1170  1.956   .     S
O1159  Cu1169  1.956   .     S
O1159  C1162   1.304   .     A
O1160  Cu1170  1.956   .     S
O1160  C1161   1.306   .     A
C1161  C1178   1.472   .     S
C1162  C1177   1.472   .     S
O1163  C1167   1.295   .     A
O1163  Cu1169  1.928   .     S
O1164  C1168   1.295   .     A
O1164  Cu1170  1.928   .     S
O1165  C1168   1.295   .     A
O1165  Cu1169  1.928   .     S
O1166  C1167   1.295   .     A
O1166  Cu1170  1.928   .     S
C1167  C1171   1.406   .     S
C1168  C1172   1.406   .     S
Cu1169 Cu1170  2.705   .     S
Cu1169 N1183   2.033   .     S
Cu1170 N1184   2.033   .     S
C1172  C1783   1.189   .     S
C1173  C1185   1.522   .     S
C1173  C1178   1.411   .     A
C1174  C1177   1.413   .     A
C1174  C1192   1.528   .     S
C1174  C1040   1.399   1_655 S
C1175  C1199   1.522   .     S
C1175  C1177   1.411   .     A
C1175  C1037   1.403   1_655 S
C1176  C1206   1.528   .     S
C1176  C1178   1.413   .     A
C1179  N1184   1.376   .     A
C1179  N1213   1.430   .     S
C1180  N1216   1.430   .     S
C1180  N1183   1.374   .     A
C1180  C773    1.423   1_565 S
C1181  N1184   1.376   .     A
C1181  N1219   1.430   .     S
C1182  N1183   1.374   .     A
C1182  N1222   1.430   .     S
C1182  C771    1.423   1_565 S
C1185  C1186   1.524   .     S
C1185  H1191   1.112   .     S
C1185  H1190   1.113   .     S
C1186  H1188   1.101   .     S
C1186  H1187   1.107   .     S
C1186  H1189   1.108   .     S
C1192  H1198   1.110   .     S
C1192  H1197   1.105   .     S
C1192  C1193   1.531   .     S
C1193  H1195   1.109   .     S
C1193  H1194   1.111   .     S
C1193  H1196   1.111   .     S
C1199  C1200   1.524   .     S
C1199  H1204   1.113   .     S
C1199  H1205   1.112   .     S
C1200  H1203   1.101   .     S
C1200  H1202   1.107   .     S
C1200  H1201   1.108   .     S
C1206  H1212   1.110   .     S
C1206  C1207   1.531   .     S
C1206  H1211   1.105   .     S
C1207  H1210   1.111   .     S
C1207  H1208   1.111   .     S
C1207  H1209   1.109   .     S
N1213  O1215   1.300   .     A
N1213  O1214   1.299   .     A
N1216  O1217   1.301   .     A
N1216  O1218   1.300   .     A
N1219  O1221   1.300   .     A
N1219  O1220   1.299   .     A
N1222  O1224   1.300   .     A
N1222  O1223   1.301   .     A
O1225  C1229   1.304   .     A
O1225  Cu1237  1.956   .     S
O1226  C1230   1.306   .     A
O1226  Cu1238  1.956   .     S
O1227  Cu1237  1.956   .     S
O1227  C1230   1.304   .     A
O1228  Cu1238  1.956   .     S
O1228  C1229   1.306   .     A
C1229  C1246   1.472   .     S
C1230  C1245   1.472   .     S
O1231  C1235   1.295   .     A
O1231  Cu1237  1.928   .     S
O1232  C1236   1.295   .     A
O1232  Cu1238  1.928   .     S
O1233  C1236   1.295   .     A
O1233  Cu1237  1.928   .     S
O1234  C1235   1.295   .     A
O1234  Cu1238  1.928   .     S
C1235  C1239   1.406   .     S
C1236  C1240   1.406   .     S
Cu1237 Cu1238  2.705   .     S
Cu1237 N1251   2.033   .     S
Cu1238 N1252   2.033   .     S
C1240  C15     1.189   1_556 S
C1241  C1253   1.522   .     S
C1241  C1246   1.411   .     A
C1241  C1379   1.403   1_455 S
C1242  C1245   1.413   .     A
C1242  C1260   1.528   .     S
C1242  C1312   1.399   .     S
C1243  C1267   1.522   .     S
C1243  C1245   1.411   .     A
C1243  C1309   1.403   .     S
C1244  C1274   1.528   .     S
C1244  C1246   1.413   .     A
C1244  C1378   1.399   1_455 S
C1247  N1252   1.376   .     A
C1247  N1281   1.430   .     S
C1247  C1658   1.423   1_545 S
C1248  N1284   1.430   .     S
C1248  N1251   1.374   .     A
C1248  C1453   1.423   .     S
C1249  N1252   1.376   .     A
C1249  N1287   1.430   .     S
C1249  C1656   1.423   1_545 S
C1250  N1251   1.374   .     A
C1250  N1290   1.430   .     S
C1250  C1451   1.423   .     S
C1253  C1254   1.524   .     S
C1253  H1259   1.112   .     S
C1253  H1258   1.113   .     S
C1254  H1256   1.101   .     S
C1254  H1255   1.107   .     S
C1254  H1257   1.108   .     S
C1260  H1266   1.110   .     S
C1260  H1265   1.105   .     S
C1260  C1261   1.531   .     S
C1261  H1263   1.109   .     S
C1261  H1262   1.111   .     S
C1261  H1264   1.111   .     S
C1267  C1268   1.524   .     S
C1267  H1272   1.113   .     S
C1267  H1273   1.112   .     S
C1268  H1271   1.101   .     S
C1268  H1270   1.107   .     S
C1268  H1269   1.108   .     S
C1274  H1280   1.110   .     S
C1274  C1275   1.531   .     S
C1274  H1279   1.105   .     S
C1275  H1278   1.111   .     S
C1275  H1276   1.111   .     S
C1275  H1277   1.109   .     S
N1281  O1283   1.300   .     A
N1281  O1282   1.299   .     A
N1284  O1285   1.301   .     A
N1284  O1286   1.300   .     A
N1287  O1289   1.300   .     A
N1287  O1288   1.299   .     A
N1290  O1292   1.300   .     A
N1290  O1291   1.301   .     A
O1293  C1297   1.304   .     A
O1293  Cu1305  1.956   .     S
O1294  C1298   1.306   .     A
O1294  Cu1306  1.956   .     S
O1295  Cu1305  1.956   .     S
O1295  C1298   1.304   .     A
O1296  Cu1306  1.956   .     S
O1296  C1297   1.306   .     A
C1297  C1314   1.472   .     S
C1298  C1313   1.472   .     S
O1299  C1303   1.295   .     A
O1299  Cu1305  1.928   .     S
O1300  C1304   1.295   .     A
O1300  Cu1306  1.928   .     S
O1301  C1304   1.295   .     A
O1301  Cu1305  1.928   .     S
O1302  C1303   1.295   .     A
O1302  Cu1306  1.928   .     S
C1303  C1307   1.406   .     S
C1304  C1308   1.406   .     S
Cu1305 Cu1306  2.705   .     S
Cu1305 N1319   2.033   .     S
Cu1306 N1320   2.033   .     S
C1308  C83     1.189   1_556 S
C1309  C1321   1.522   .     S
C1309  C1314   1.411   .     A
C1310  C1313   1.413   .     A
C1310  C1328   1.528   .     S
C1310  C1380   1.399   .     S
C1311  C1335   1.522   .     S
C1311  C1313   1.411   .     A
C1311  C1377   1.403   .     S
C1312  C1342   1.528   .     S
C1312  C1314   1.413   .     A
C1315  N1320   1.376   .     A
C1315  N1349   1.430   .     S
C1315  C1726   1.423   1_545 S
C1316  N1352   1.430   .     S
C1316  N1319   1.374   .     A
C1316  C1521   1.423   .     S
C1317  N1320   1.376   .     A
C1317  N1355   1.430   .     S
C1317  C1724   1.423   1_545 S
C1318  N1319   1.374   .     A
C1318  N1358   1.430   .     S
C1318  C1519   1.423   .     S
C1321  C1322   1.524   .     S
C1321  H1327   1.112   .     S
C1321  H1326   1.113   .     S
C1322  H1324   1.101   .     S
C1322  H1323   1.107   .     S
C1322  H1325   1.108   .     S
C1328  H1334   1.110   .     S
C1328  H1333   1.105   .     S
C1328  C1329   1.531   .     S
C1329  H1331   1.109   .     S
C1329  H1330   1.111   .     S
C1329  H1332   1.111   .     S
C1335  C1336   1.524   .     S
C1335  H1340   1.113   .     S
C1335  H1341   1.112   .     S
C1336  H1339   1.101   .     S
C1336  H1338   1.107   .     S
C1336  H1337   1.108   .     S
C1342  H1348   1.110   .     S
C1342  C1343   1.531   .     S
C1342  H1347   1.105   .     S
C1343  H1346   1.111   .     S
C1343  H1344   1.111   .     S
C1343  H1345   1.109   .     S
N1349  O1351   1.300   .     A
N1349  O1350   1.299   .     A
N1352  O1353   1.301   .     A
N1352  O1354   1.300   .     A
N1355  O1357   1.300   .     A
N1355  O1356   1.299   .     A
N1358  O1360   1.300   .     A
N1358  O1359   1.301   .     A
O1361  C1365   1.304   .     A
O1361  Cu1373  1.956   .     S
O1362  C1366   1.306   .     A
O1362  Cu1374  1.956   .     S
O1363  Cu1373  1.956   .     S
O1363  C1366   1.304   .     A
O1364  Cu1374  1.956   .     S
O1364  C1365   1.306   .     A
C1365  C1382   1.472   .     S
C1366  C1381   1.472   .     S
O1367  C1371   1.295   .     A
O1367  Cu1373  1.928   .     S
O1368  C1372   1.295   .     A
O1368  Cu1374  1.928   .     S
O1369  C1372   1.295   .     A
O1369  Cu1373  1.928   .     S
O1370  C1371   1.295   .     A
O1370  Cu1374  1.928   .     S
C1371  C1375   1.406   .     S
C1372  C1376   1.406   .     S
Cu1373 Cu1374  2.705   .     S
Cu1373 N1387   2.033   .     S
Cu1374 N1388   2.033   .     S
C1376  C151    1.189   1_556 S
C1377  C1389   1.522   .     S
C1377  C1382   1.411   .     A
C1378  C1381   1.413   .     A
C1378  C1396   1.528   .     S
C1378  C1244   1.399   1_655 S
C1379  C1403   1.522   .     S
C1379  C1381   1.411   .     A
C1379  C1241   1.403   1_655 S
C1380  C1410   1.528   .     S
C1380  C1382   1.413   .     A
C1383  N1388   1.376   .     A
C1383  N1417   1.430   .     S
C1383  C1794   1.423   1_545 S
C1384  N1420   1.430   .     S
C1384  N1387   1.374   .     A
C1384  C1589   1.423   .     S
C1385  N1388   1.376   .     A
C1385  N1423   1.430   .     S
C1385  C1792   1.423   1_545 S
C1386  N1387   1.374   .     A
C1386  N1426   1.430   .     S
C1386  C1587   1.423   .     S
C1389  C1390   1.524   .     S
C1389  H1395   1.112   .     S
C1389  H1394   1.113   .     S
C1390  H1392   1.101   .     S
C1390  H1391   1.107   .     S
C1390  H1393   1.108   .     S
C1396  H1402   1.110   .     S
C1396  H1401   1.105   .     S
C1396  C1397   1.531   .     S
C1397  H1399   1.109   .     S
C1397  H1398   1.111   .     S
C1397  H1400   1.111   .     S
C1403  C1404   1.524   .     S
C1403  H1408   1.113   .     S
C1403  H1409   1.112   .     S
C1404  H1407   1.101   .     S
C1404  H1406   1.107   .     S
C1404  H1405   1.108   .     S
C1410  H1416   1.110   .     S
C1410  C1411   1.531   .     S
C1410  H1415   1.105   .     S
C1411  H1414   1.111   .     S
C1411  H1412   1.111   .     S
C1411  H1413   1.109   .     S
N1417  O1419   1.300   .     A
N1417  O1418   1.299   .     A
N1420  O1421   1.301   .     A
N1420  O1422   1.300   .     A
N1423  O1425   1.300   .     A
N1423  O1424   1.299   .     A
N1426  O1428   1.300   .     A
N1426  O1427   1.301   .     A
O1429  C1433   1.304   .     A
O1429  Cu1441  1.956   .     S
O1430  C1434   1.306   .     A
O1430  Cu1442  1.956   .     S
O1431  Cu1441  1.956   .     S
O1431  C1434   1.304   .     A
O1432  Cu1442  1.956   .     S
O1432  C1433   1.306   .     A
C1433  C1450   1.472   .     S
C1434  C1449   1.472   .     S
O1435  C1439   1.295   .     A
O1435  Cu1441  1.928   .     S
O1436  C1440   1.295   .     A
O1436  Cu1442  1.928   .     S
O1437  C1440   1.295   .     A
O1437  Cu1441  1.928   .     S
O1438  C1439   1.295   .     A
O1438  Cu1442  1.928   .     S
C1439  C1443   1.406   .     S
C1440  C1444   1.406   .     S
Cu1441 Cu1442  2.705   .     S
Cu1441 N1455   2.033   .     S
Cu1442 N1456   2.033   .     S
C1444  C219    1.189   1_556 S
C1445  C1457   1.522   .     S
C1445  C1450   1.411   .     A
C1445  C1583   1.403   1_455 S
C1446  C1449   1.413   .     A
C1446  C1464   1.528   .     S
C1446  C1516   1.399   .     S
C1447  C1471   1.522   .     S
C1447  C1449   1.411   .     A
C1447  C1513   1.403   .     S
C1448  C1478   1.528   .     S
C1448  C1450   1.413   .     A
C1448  C1582   1.399   1_455 S
C1451  N1456   1.376   .     A
C1451  N1485   1.430   .     S
C1452  N1488   1.430   .     S
C1452  N1455   1.374   .     A
C1452  C1657   1.423   .     S
C1453  N1456   1.376   .     A
C1453  N1491   1.430   .     S
C1454  N1455   1.374   .     A
C1454  N1494   1.430   .     S
C1454  C1655   1.423   .     S
C1457  C1458   1.524   .     S
C1457  H1463   1.112   .     S
C1457  H1462   1.113   .     S
C1458  H1460   1.101   .     S
C1458  H1459   1.107   .     S
C1458  H1461   1.108   .     S
C1464  H1470   1.110   .     S
C1464  H1469   1.105   .     S
C1464  C1465   1.531   .     S
C1465  H1467   1.109   .     S
C1465  H1466   1.111   .     S
C1465  H1468   1.111   .     S
C1471  C1472   1.524   .     S
C1471  H1476   1.113   .     S
C1471  H1477   1.112   .     S
C1472  H1475   1.101   .     S
C1472  H1474   1.107   .     S
C1472  H1473   1.108   .     S
C1478  H1484   1.110   .     S
C1478  C1479   1.531   .     S
C1478  H1483   1.105   .     S
C1479  H1482   1.111   .     S
C1479  H1480   1.111   .     S
C1479  H1481   1.109   .     S
N1485  O1487   1.300   .     A
N1485  O1486   1.299   .     A
N1488  O1489   1.301   .     A
N1488  O1490   1.300   .     A
N1491  O1493   1.300   .     A
N1491  O1492   1.299   .     A
N1494  O1496   1.300   .     A
N1494  O1495   1.301   .     A
O1497  C1501   1.304   .     A
O1497  Cu1509  1.956   .     S
O1498  C1502   1.306   .     A
O1498  Cu1510  1.956   .     S
O1499  Cu1509  1.956   .     S
O1499  C1502   1.304   .     A
O1500  Cu1510  1.956   .     S
O1500  C1501   1.306   .     A
C1501  C1518   1.472   .     S
C1502  C1517   1.472   .     S
O1503  C1507   1.295   .     A
O1503  Cu1509  1.928   .     S
O1504  C1508   1.295   .     A
O1504  Cu1510  1.928   .     S
O1505  C1508   1.295   .     A
O1505  Cu1509  1.928   .     S
O1506  C1507   1.295   .     A
O1506  Cu1510  1.928   .     S
C1507  C1511   1.406   .     S
C1508  C1512   1.406   .     S
Cu1509 Cu1510  2.705   .     S
Cu1509 N1523   2.033   .     S
Cu1510 N1524   2.033   .     S
C1512  C287    1.189   1_556 S
C1513  C1525   1.522   .     S
C1513  C1518   1.411   .     A
C1514  C1517   1.413   .     A
C1514  C1532   1.528   .     S
C1514  C1584   1.399   .     S
C1515  C1539   1.522   .     S
C1515  C1517   1.411   .     A
C1515  C1581   1.403   .     S
C1516  C1546   1.528   .     S
C1516  C1518   1.413   .     A
C1519  N1524   1.376   .     A
C1519  N1553   1.430   .     S
C1520  N1556   1.430   .     S
C1520  N1523   1.374   .     A
C1520  C1725   1.423   .     S
C1521  N1524   1.376   .     A
C1521  N1559   1.430   .     S
C1522  N1523   1.374   .     A
C1522  N1562   1.430   .     S
C1522  C1723   1.423   .     S
C1525  C1526   1.524   .     S
C1525  H1531   1.112   .     S
C1525  H1530   1.113   .     S
C1526  H1528   1.101   .     S
C1526  H1527   1.107   .     S
C1526  H1529   1.108   .     S
C1532  H1538   1.110   .     S
C1532  H1537   1.105   .     S
C1532  C1533   1.531   .     S
C1533  H1535   1.109   .     S
C1533  H1534   1.111   .     S
C1533  H1536   1.111   .     S
C1539  C1540   1.524   .     S
C1539  H1544   1.113   .     S
C1539  H1545   1.112   .     S
C1540  H1543   1.101   .     S
C1540  H1542   1.107   .     S
C1540  H1541   1.108   .     S
C1546  H1552   1.110   .     S
C1546  C1547   1.531   .     S
C1546  H1551   1.105   .     S
C1547  H1550   1.111   .     S
C1547  H1548   1.111   .     S
C1547  H1549   1.109   .     S
N1553  O1555   1.300   .     A
N1553  O1554   1.299   .     A
N1556  O1557   1.301   .     A
N1556  O1558   1.300   .     A
N1559  O1561   1.300   .     A
N1559  O1560   1.299   .     A
N1562  O1564   1.300   .     A
N1562  O1563   1.301   .     A
O1565  C1569   1.304   .     A
O1565  Cu1577  1.956   .     S
O1566  C1570   1.306   .     A
O1566  Cu1578  1.956   .     S
O1567  Cu1577  1.956   .     S
O1567  C1570   1.304   .     A
O1568  Cu1578  1.956   .     S
O1568  C1569   1.306   .     A
C1569  C1586   1.472   .     S
C1570  C1585   1.472   .     S
O1571  C1575   1.295   .     A
O1571  Cu1577  1.928   .     S
O1572  C1576   1.295   .     A
O1572  Cu1578  1.928   .     S
O1573  C1576   1.295   .     A
O1573  Cu1577  1.928   .     S
O1574  C1575   1.295   .     A
O1574  Cu1578  1.928   .     S
C1575  C1579   1.406   .     S
C1576  C1580   1.406   .     S
Cu1577 Cu1578  2.705   .     S
Cu1577 N1591   2.033   .     S
Cu1578 N1592   2.033   .     S
C1580  C355    1.189   1_556 S
C1581  C1593   1.522   .     S
C1581  C1586   1.411   .     A
C1582  C1585   1.413   .     A
C1582  C1600   1.528   .     S
C1582  C1448   1.399   1_655 S
C1583  C1607   1.522   .     S
C1583  C1585   1.411   .     A
C1583  C1445   1.403   1_655 S
C1584  C1614   1.528   .     S
C1584  C1586   1.413   .     A
C1587  N1592   1.376   .     A
C1587  N1621   1.430   .     S
C1588  N1624   1.430   .     S
C1588  N1591   1.374   .     A
C1588  C1793   1.423   .     S
C1589  N1592   1.376   .     A
C1589  N1627   1.430   .     S
C1590  N1591   1.374   .     A
C1590  N1630   1.430   .     S
C1590  C1791   1.423   .     S
C1593  C1594   1.524   .     S
C1593  H1599   1.112   .     S
C1593  H1598   1.113   .     S
C1594  H1596   1.101   .     S
C1594  H1595   1.107   .     S
C1594  H1597   1.108   .     S
C1600  H1606   1.110   .     S
C1600  H1605   1.105   .     S
C1600  C1601   1.531   .     S
C1601  H1603   1.109   .     S
C1601  H1602   1.111   .     S
C1601  H1604   1.111   .     S
C1607  C1608   1.524   .     S
C1607  H1612   1.113   .     S
C1607  H1613   1.112   .     S
C1608  H1611   1.101   .     S
C1608  H1610   1.107   .     S
C1608  H1609   1.108   .     S
C1614  H1620   1.110   .     S
C1614  C1615   1.531   .     S
C1614  H1619   1.105   .     S
C1615  H1618   1.111   .     S
C1615  H1616   1.111   .     S
C1615  H1617   1.109   .     S
N1621  O1623   1.300   .     A
N1621  O1622   1.299   .     A
N1624  O1625   1.301   .     A
N1624  O1626   1.300   .     A
N1627  O1629   1.300   .     A
N1627  O1628   1.299   .     A
N1630  O1632   1.300   .     A
N1630  O1631   1.301   .     A
O1633  C1637   1.304   .     A
O1633  Cu1645  1.956   .     S
O1634  C1638   1.306   .     A
O1634  Cu1646  1.956   .     S
O1635  Cu1645  1.956   .     S
O1635  C1638   1.304   .     A
O1636  Cu1646  1.956   .     S
O1636  C1637   1.306   .     A
C1637  C1654   1.472   .     S
C1638  C1653   1.472   .     S
O1639  C1643   1.295   .     A
O1639  Cu1645  1.928   .     S
O1640  C1644   1.295   .     A
O1640  Cu1646  1.928   .     S
O1641  C1644   1.295   .     A
O1641  Cu1645  1.928   .     S
O1642  C1643   1.295   .     A
O1642  Cu1646  1.928   .     S
C1643  C1647   1.406   .     S
C1644  C1648   1.406   .     S
Cu1645 Cu1646  2.705   .     S
Cu1645 N1659   2.033   .     S
Cu1646 N1660   2.033   .     S
C1648  C423    1.189   1_556 S
C1649  C1661   1.522   .     S
C1649  C1654   1.411   .     A
C1649  C1787   1.403   1_455 S
C1650  C1653   1.413   .     A
C1650  C1668   1.528   .     S
C1650  C1720   1.399   .     S
C1651  C1675   1.522   .     S
C1651  C1653   1.411   .     A
C1651  C1717   1.403   .     S
C1652  C1682   1.528   .     S
C1652  C1654   1.413   .     A
C1652  C1786   1.399   1_455 S
C1655  N1660   1.376   .     A
C1655  N1689   1.430   .     S
C1656  N1692   1.430   .     S
C1656  N1659   1.374   .     A
C1656  C1249   1.423   1_565 S
C1657  N1660   1.376   .     A
C1657  N1695   1.430   .     S
C1658  N1659   1.374   .     A
C1658  N1698   1.430   .     S
C1658  C1247   1.423   1_565 S
C1661  C1662   1.524   .     S
C1661  H1667   1.112   .     S
C1661  H1666   1.113   .     S
C1662  H1664   1.101   .     S
C1662  H1663   1.107   .     S
C1662  H1665   1.108   .     S
C1668  H1674   1.110   .     S
C1668  H1673   1.105   .     S
C1668  C1669   1.531   .     S
C1669  H1671   1.109   .     S
C1669  H1670   1.111   .     S
C1669  H1672   1.111   .     S
C1675  C1676   1.524   .     S
C1675  H1680   1.113   .     S
C1675  H1681   1.112   .     S
C1676  H1679   1.101   .     S
C1676  H1678   1.107   .     S
C1676  H1677   1.108   .     S
C1682  H1688   1.110   .     S
C1682  C1683   1.531   .     S
C1682  H1687   1.105   .     S
C1683  H1686   1.111   .     S
C1683  H1684   1.111   .     S
C1683  H1685   1.109   .     S
N1689  O1691   1.300   .     A
N1689  O1690   1.299   .     A
N1692  O1693   1.301   .     A
N1692  O1694   1.300   .     A
N1695  O1697   1.300   .     A
N1695  O1696   1.299   .     A
N1698  O1700   1.300   .     A
N1698  O1699   1.301   .     A
O1701  C1705   1.304   .     A
O1701  Cu1713  1.956   .     S
O1702  C1706   1.306   .     A
O1702  Cu1714  1.956   .     S
O1703  Cu1713  1.956   .     S
O1703  C1706   1.304   .     A
O1704  Cu1714  1.956   .     S
O1704  C1705   1.306   .     A
C1705  C1722   1.472   .     S
C1706  C1721   1.472   .     S
O1707  C1711   1.295   .     A
O1707  Cu1713  1.928   .     S
O1708  C1712   1.295   .     A
O1708  Cu1714  1.928   .     S
O1709  C1712   1.295   .     A
O1709  Cu1713  1.928   .     S
O1710  C1711   1.295   .     A
O1710  Cu1714  1.928   .     S
C1711  C1715   1.406   .     S
C1712  C1716   1.406   .     S
Cu1713 Cu1714  2.705   .     S
Cu1713 N1727   2.033   .     S
Cu1714 N1728   2.033   .     S
C1716  C491    1.189   1_556 S
C1717  C1729   1.522   .     S
C1717  C1722   1.411   .     A
C1718  C1721   1.413   .     A
C1718  C1736   1.528   .     S
C1718  C1788   1.399   .     S
C1719  C1743   1.522   .     S
C1719  C1721   1.411   .     A
C1719  C1785   1.403   .     S
C1720  C1750   1.528   .     S
C1720  C1722   1.413   .     A
C1723  N1728   1.376   .     A
C1723  N1757   1.430   .     S
C1724  N1760   1.430   .     S
C1724  N1727   1.374   .     A
C1724  C1317   1.423   1_565 S
C1725  N1728   1.376   .     A
C1725  N1763   1.430   .     S
C1726  N1727   1.374   .     A
C1726  N1766   1.430   .     S
C1726  C1315   1.423   1_565 S
C1729  C1730   1.524   .     S
C1729  H1735   1.112   .     S
C1729  H1734   1.113   .     S
C1730  H1732   1.101   .     S
C1730  H1731   1.107   .     S
C1730  H1733   1.108   .     S
C1736  H1742   1.110   .     S
C1736  H1741   1.105   .     S
C1736  C1737   1.531   .     S
C1737  H1739   1.109   .     S
C1737  H1738   1.111   .     S
C1737  H1740   1.111   .     S
C1743  C1744   1.524   .     S
C1743  H1748   1.113   .     S
C1743  H1749   1.112   .     S
C1744  H1747   1.101   .     S
C1744  H1746   1.107   .     S
C1744  H1745   1.108   .     S
C1750  H1756   1.110   .     S
C1750  C1751   1.531   .     S
C1750  H1755   1.105   .     S
C1751  H1754   1.111   .     S
C1751  H1752   1.111   .     S
C1751  H1753   1.109   .     S
N1757  O1759   1.300   .     A
N1757  O1758   1.299   .     A
N1760  O1761   1.301   .     A
N1760  O1762   1.300   .     A
N1763  O1765   1.300   .     A
N1763  O1764   1.299   .     A
N1766  O1768   1.300   .     A
N1766  O1767   1.301   .     A
O1769  C1773   1.304   .     A
O1769  Cu1781  1.956   .     S
O1770  C1774   1.306   .     A
O1770  Cu1782  1.956   .     S
O1771  Cu1781  1.956   .     S
O1771  C1774   1.304   .     A
O1772  Cu1782  1.956   .     S
O1772  C1773   1.306   .     A
C1773  C1790   1.472   .     S
C1774  C1789   1.472   .     S
O1775  C1779   1.295   .     A
O1775  Cu1781  1.928   .     S
O1776  C1780   1.295   .     A
O1776  Cu1782  1.928   .     S
O1777  C1780   1.295   .     A
O1777  Cu1781  1.928   .     S
O1778  C1779   1.295   .     A
O1778  Cu1782  1.928   .     S
C1779  C1783   1.406   .     S
C1780  C1784   1.406   .     S
Cu1781 Cu1782  2.705   .     S
Cu1781 N1795   2.033   .     S
Cu1782 N1796   2.033   .     S
C1784  C559    1.189   1_556 S
C1785  C1797   1.522   .     S
C1785  C1790   1.411   .     A
C1786  C1789   1.413   .     A
C1786  C1804   1.528   .     S
C1786  C1652   1.399   1_655 S
C1787  C1811   1.522   .     S
C1787  C1789   1.411   .     A
C1787  C1649   1.403   1_655 S
C1788  C1818   1.528   .     S
C1788  C1790   1.413   .     A
C1791  N1796   1.376   .     A
C1791  N1825   1.430   .     S
C1792  N1828   1.430   .     S
C1792  N1795   1.374   .     A
C1792  C1385   1.423   1_565 S
C1793  N1796   1.376   .     A
C1793  N1831   1.430   .     S
C1794  N1795   1.374   .     A
C1794  N1834   1.430   .     S
C1794  C1383   1.423   1_565 S
C1797  C1798   1.524   .     S
C1797  H1803   1.112   .     S
C1797  H1802   1.113   .     S
C1798  H1800   1.101   .     S
C1798  H1799   1.107   .     S
C1798  H1801   1.108   .     S
C1804  H1810   1.110   .     S
C1804  H1809   1.105   .     S
C1804  C1805   1.531   .     S
C1805  H1807   1.109   .     S
C1805  H1806   1.111   .     S
C1805  H1808   1.111   .     S
C1811  C1812   1.524   .     S
C1811  H1816   1.113   .     S
C1811  H1817   1.112   .     S
C1812  H1815   1.101   .     S
C1812  H1814   1.107   .     S
C1812  H1813   1.108   .     S
C1818  H1824   1.110   .     S
C1818  C1819   1.531   .     S
C1818  H1823   1.105   .     S
C1819  H1822   1.111   .     S
C1819  H1820   1.111   .     S
C1819  H1821   1.109   .     S
N1825  O1827   1.300   .     A
N1825  O1826   1.299   .     A
N1828  O1829   1.301   .     A
N1828  O1830   1.300   .     A
N1831  O1833   1.300   .     A
N1831  O1832   1.299   .     A
N1834  O1836   1.300   .     A
N1834  O1835   1.301   .     A
