data_str_m2_o1_o17_pcu_sym.57
_audit_creation_date              2020-01-03
_audit_creation_method            'Materials Studio'
_symmetry_space_group_name_H-M    'P1'
_symmetry_Int_Tables_number       1
_symmetry_cell_setting            triclinic
loop_
_symmetry_equiv_pos_as_xyz
  x,y,z
_cell_length_a                    32.7135
_cell_length_b                    28.9823
_cell_length_c                    30.0900
_cell_angle_alpha                 90.6145
_cell_angle_beta                  90.2699
_cell_angle_gamma                 87.8925
loop_
_atom_site_label
_atom_site_type_symbol
_atom_site_fract_x
_atom_site_fract_y
_atom_site_fract_z
_atom_site_U_iso_or_equiv
_atom_site_adp_type
_atom_site_occupancy
C1     C     0.08756   0.16757   0.25284   0.00000  Uiso   1.00
C2     C     0.04261   0.16927   0.25612   0.00000  Uiso   1.00
C3     C     0.15153   0.02530   0.21450   0.00000  Uiso   1.00
C4     C     0.17879   0.30880   0.28678   0.00000  Uiso   1.00
C5     C     0.18267   0.02472   0.28514   0.00000  Uiso   1.00
C6     C     0.15498   0.30923   0.21299   0.00000  Uiso   1.00
C7     C     0.16685   0.16650   0.16469   0.00000  Uiso   1.00
C8     C     0.16515   0.16702   0.33522   0.00000  Uiso   1.00
C9     C     0.20135   0.15551   0.40543   0.00000  Uiso   1.00
C10    C     0.13438   0.18901   0.09426   0.00000  Uiso   1.00
C11    C     0.16502   0.16828   0.38348   0.00000  Uiso   1.00
C12    C     0.24592   0.16585   0.24712   0.00000  Uiso   1.00
C13    C     0.16717   0.16672   0.11631   0.00000  Uiso   1.00
C14    C     0.13018   0.18427   0.40709   0.00000  Uiso   1.00
C15    C     0.20061   0.14723   0.09289   0.00000  Uiso   1.00
C16    C     0.13331   0.19114   0.45358   0.00000  Uiso   1.00
C17    C     0.20273   0.15264   0.04634   0.00000  Uiso   1.00
C18    C     0.16821   0.17284   0.47646   0.00000  Uiso   1.00
C19    C     0.16877   0.17320   0.02347   0.00000  Uiso   1.00
C20    C     0.20209   0.15334   0.45231   0.00000  Uiso   1.00
C21    C     0.13537   0.19396   0.04754   0.00000  Uiso   1.00
C22    C     0.10336   0.21767   0.47747   0.00000  Uiso   1.00
C23    C     0.10409   0.21894   0.02411   0.00000  Uiso   1.00
C24    C     0.23812   0.13839   0.02199   0.00000  Uiso   1.00
C25    C     0.25838   0.18395   0.37454   0.00000  Uiso   1.00
C26    C     0.07370   0.17179   0.12597   0.00000  Uiso   1.00
C27    C     0.08988   0.18929   0.38399   0.00000  Uiso   1.00
C28    C     0.23159   0.11852   0.11706   0.00000  Uiso   1.00
C29    C     0.08766   0.28944   0.45001   0.00000  Uiso   1.00
C30    C     0.29570   0.16758   0.05155   0.00000  Uiso   1.00
C31    C     0.07288   0.24915   0.04683   0.00000  Uiso   1.00
C32    C     0.27008   0.10761   0.45350   0.00000  Uiso   1.00
C33    C     0.04425   0.09118   0.29204   0.00000  Uiso   1.00
C34    C     0.23648   0.13469   0.47568   0.00000  Uiso   1.00
C35    C     0.28839   0.24616   0.21537   0.00000  Uiso   1.00
C36    C     0.29855   0.07799   0.24587   0.00000  Uiso   1.00
C37    C     0.03749   0.25539   0.24086   0.00000  Uiso   1.00
C38    C     0.09725   0.04459   0.16878   0.00000  Uiso   1.00
C39    C     0.15876   0.29494   0.35733   0.00000  Uiso   1.00
C40    C     0.23685   0.02967   0.33577   0.00000  Uiso   1.00
C41    C     0.17778   0.29277   0.14307   0.00000  Uiso   1.00
C42    C     0.02261   0.12826   0.26614   0.00000  Uiso   1.00
C43    C     0.31105   0.20610   0.23483   0.00000  Uiso   1.00
C44    C     0.31464   0.12439   0.25450   0.00000  Uiso   1.00
C45    C     0.01957   0.20916   0.24299   0.00000  Uiso   1.00
C46    C     0.29113   0.16472   0.24366   0.00000  Uiso   1.00
Cu47   Cu    0.16667   0.21355   0.25000   0.00000  Uiso   1.00
Cu48   Cu    0.16667   0.11978   0.25000   0.00000  Uiso   1.00
H49    H     0.26896   0.19803   0.40699   0.00000  Uiso   1.00
H50    H     0.07870   0.31111   0.47925   0.00000  Uiso   1.00
H51    H     0.07253   0.30488   0.42033   0.00000  Uiso   1.00
H52    H     0.27836   0.19114   0.07470   0.00000  Uiso   1.00
H53    H     0.30228   0.18600   0.02026   0.00000  Uiso   1.00
H54    H     0.32539   0.15827   0.06761   0.00000  Uiso   1.00
H55    H     0.06125   0.30339   0.08795   0.00000  Uiso   1.00
H56    H     0.33032   0.10070   0.43991   0.00000  Uiso   1.00
H57    H     0.06815   0.02622   0.29406   0.00000  Uiso   1.00
H58    H     0.25393   0.30342   0.22794   0.00000  Uiso   1.00
H59    H     0.27026   0.03673   0.20188   0.00000  Uiso   1.00
H60    H     0.24057   0.21103   0.35611   0.00000  Uiso   1.00
H61    H     0.04415   0.31311   0.20591   0.00000  Uiso   1.00
H62    H     0.07855   0.05658   0.19754   0.00000  Uiso   1.00
H63    H     0.09025   0.00890   0.15873   0.00000  Uiso   1.00
H64    H     0.08833   0.06662   0.14021   0.00000  Uiso   1.00
H65    H     0.12790   0.28661   0.34451   0.00000  Uiso   1.00
H66    H     0.15841   0.33128   0.36940   0.00000  Uiso   1.00
H67    H     0.16561   0.27267   0.38631   0.00000  Uiso   1.00
H68    H     0.25179   0.00448   0.31231   0.00000  Uiso   1.00
H69    H     0.23235   0.01266   0.36814   0.00000  Uiso   1.00
H70    H     0.25810   0.05803   0.34175   0.00000  Uiso   1.00
H71    H     0.28590   0.17452   0.35454   0.00000  Uiso   1.00
H72    H     0.20798   0.28195   0.15737   0.00000  Uiso   1.00
H73    H     0.17869   0.32872   0.13096   0.00000  Uiso   1.00
H74    H     0.17255   0.27069   0.11349   0.00000  Uiso   1.00
H75    H     0.04472   0.18805   0.13856   0.00000  Uiso   1.00
H76    H     0.08527   0.14743   0.15168   0.00000  Uiso   1.00
H77    H     0.06641   0.15284   0.09468   0.00000  Uiso   1.00
H78    H     0.02982   0.17568   0.38434   0.00000  Uiso   1.00
H79    H     0.26059   0.05608   0.12239   0.00000  Uiso   1.00
H80    H     0.12129   0.29087   0.44506   0.00000  Uiso   1.00
N81    N     0.16667   0.28402   0.25000   0.00000  Uiso   1.00
N82    N     0.16667   0.04931   0.25000   0.00000  Uiso   1.00
O83    O     0.10655   0.20625   0.24999   0.00000  Uiso   1.00
O84    O     0.10180   0.20678   0.11919   0.00000  Uiso   1.00
O85    O     0.08646   0.21081   0.34942   0.00000  Uiso   1.00
O86    O     0.05559   0.16952   0.40251   0.00000  Uiso   1.00
O87    O     0.25271   0.13596   0.14582   0.00000  Uiso   1.00
O88    O     0.23711   0.07180   0.10572   0.00000  Uiso   1.00
O89    O     0.07389   0.24414   0.45504   0.00000  Uiso   1.00
O90    O     0.27470   0.12667   0.04308   0.00000  Uiso   1.00
O91    O     0.03650   0.24367   0.03994   0.00000  Uiso   1.00
O92    O     0.08526   0.28495   0.07475   0.00000  Uiso   1.00
O93    O     0.26253   0.07202   0.43343   0.00000  Uiso   1.00
O94    O     0.22679   0.12709   0.25001   0.00000  Uiso   1.00
O95    O     0.31028   0.12217   0.45636   0.00000  Uiso   1.00
O96    O     0.05726   0.10005   0.32918   0.00000  Uiso   1.00
O97    O     0.05149   0.04724   0.27360   0.00000  Uiso   1.00
O98    O     0.27999   0.24612   0.17575   0.00000  Uiso   1.00
O99    O     0.27509   0.28257   0.24302   0.00000  Uiso   1.00
O100   O     0.30398   0.04682   0.27240   0.00000  Uiso   1.00
O101   O     0.27880   0.06965   0.20555   0.00000  Uiso   1.00
O102   O     0.05226   0.27245   0.27434   0.00000  Uiso   1.00
O103   O     0.03530   0.28032   0.20143   0.00000  Uiso   1.00
O104   O     0.13928   0.04933   0.17698   0.00000  Uiso   1.00
O105   O     0.22679   0.20625   0.25000   0.00000  Uiso   1.00
O106   O     0.18946   0.28585   0.32520   0.00000  Uiso   1.00
O107   O     0.19918   0.04910   0.32048   0.00000  Uiso   1.00
O108   O     0.14566   0.28698   0.17367   0.00000  Uiso   1.00
O109   O     0.10655   0.12709   0.24999   0.00000  Uiso   1.00
O110   O     0.16666   0.20627   0.18513   0.00000  Uiso   1.00
O111   O     0.16668   0.12707   0.31487   0.00000  Uiso   1.00
O112   O     0.16668   0.20627   0.31487   0.00000  Uiso   1.00
O113   O     0.16666   0.12707   0.18513   0.00000  Uiso   1.00
O114   O     0.23564   0.14398   0.38020   0.00000  Uiso   1.00
C115   C     0.42089   0.16757   0.25284   0.00000  Uiso   1.00
C116   C     0.37595   0.16927   0.25612   0.00000  Uiso   1.00
C117   C     0.48486   0.02530   0.21450   0.00000  Uiso   1.00
C118   C     0.51212   0.30880   0.28678   0.00000  Uiso   1.00
C119   C     0.51600   0.02472   0.28514   0.00000  Uiso   1.00
C120   C     0.48831   0.30923   0.21299   0.00000  Uiso   1.00
C121   C     0.50018   0.16650   0.16469   0.00000  Uiso   1.00
C122   C     0.49848   0.16702   0.33522   0.00000  Uiso   1.00
C123   C     0.53469   0.15551   0.40543   0.00000  Uiso   1.00
C124   C     0.46771   0.18901   0.09426   0.00000  Uiso   1.00
C125   C     0.49836   0.16828   0.38348   0.00000  Uiso   1.00
C126   C     0.57925   0.16585   0.24712   0.00000  Uiso   1.00
C127   C     0.50050   0.16672   0.11631   0.00000  Uiso   1.00
C128   C     0.46351   0.18427   0.40709   0.00000  Uiso   1.00
C129   C     0.53394   0.14723   0.09289   0.00000  Uiso   1.00
C130   C     0.46665   0.19114   0.45358   0.00000  Uiso   1.00
C131   C     0.53606   0.15264   0.04634   0.00000  Uiso   1.00
C132   C     0.50154   0.17284   0.47646   0.00000  Uiso   1.00
C133   C     0.50210   0.17320   0.02347   0.00000  Uiso   1.00
C134   C     0.53542   0.15334   0.45231   0.00000  Uiso   1.00
C135   C     0.46870   0.19396   0.04754   0.00000  Uiso   1.00
C136   C     0.43670   0.21767   0.47747   0.00000  Uiso   1.00
C137   C     0.43742   0.21894   0.02411   0.00000  Uiso   1.00
C138   C     0.57146   0.13839   0.02199   0.00000  Uiso   1.00
C139   C     0.59171   0.18395   0.37454   0.00000  Uiso   1.00
C140   C     0.40704   0.17179   0.12597   0.00000  Uiso   1.00
C141   C     0.42321   0.18929   0.38399   0.00000  Uiso   1.00
C142   C     0.56492   0.11852   0.11706   0.00000  Uiso   1.00
C143   C     0.42099   0.28944   0.45001   0.00000  Uiso   1.00
C144   C     0.62903   0.16758   0.05155   0.00000  Uiso   1.00
C145   C     0.40621   0.24915   0.04683   0.00000  Uiso   1.00
C146   C     0.60342   0.10761   0.45350   0.00000  Uiso   1.00
C147   C     0.37758   0.09118   0.29204   0.00000  Uiso   1.00
C148   C     0.56981   0.13469   0.47568   0.00000  Uiso   1.00
C149   C     0.62172   0.24616   0.21537   0.00000  Uiso   1.00
C150   C     0.63188   0.07799   0.24587   0.00000  Uiso   1.00
C151   C     0.37083   0.25539   0.24086   0.00000  Uiso   1.00
C152   C     0.43058   0.04459   0.16878   0.00000  Uiso   1.00
C153   C     0.49210   0.29494   0.35733   0.00000  Uiso   1.00
C154   C     0.57019   0.02967   0.33577   0.00000  Uiso   1.00
C155   C     0.51111   0.29277   0.14307   0.00000  Uiso   1.00
C156   C     0.35594   0.12826   0.26614   0.00000  Uiso   1.00
C157   C     0.64438   0.20610   0.23483   0.00000  Uiso   1.00
C158   C     0.64797   0.12439   0.25450   0.00000  Uiso   1.00
C159   C     0.35291   0.20916   0.24299   0.00000  Uiso   1.00
C160   C     0.62446   0.16472   0.24366   0.00000  Uiso   1.00
Cu161  Cu    0.50000   0.21355   0.25000   0.00000  Uiso   1.00
Cu162  Cu    0.50000   0.11978   0.25000   0.00000  Uiso   1.00
H163   H     0.60229   0.19803   0.40699   0.00000  Uiso   1.00
H164   H     0.41203   0.31111   0.47925   0.00000  Uiso   1.00
H165   H     0.40587   0.30488   0.42033   0.00000  Uiso   1.00
H166   H     0.61170   0.19114   0.07470   0.00000  Uiso   1.00
H167   H     0.63561   0.18600   0.02026   0.00000  Uiso   1.00
H168   H     0.65873   0.15827   0.06761   0.00000  Uiso   1.00
H169   H     0.39459   0.30339   0.08795   0.00000  Uiso   1.00
H170   H     0.66365   0.10070   0.43991   0.00000  Uiso   1.00
H171   H     0.40148   0.02622   0.29406   0.00000  Uiso   1.00
H172   H     0.58727   0.30342   0.22794   0.00000  Uiso   1.00
H173   H     0.60360   0.03673   0.20188   0.00000  Uiso   1.00
H174   H     0.57390   0.21103   0.35611   0.00000  Uiso   1.00
H175   H     0.37748   0.31311   0.20591   0.00000  Uiso   1.00
H176   H     0.41189   0.05658   0.19754   0.00000  Uiso   1.00
H177   H     0.42358   0.00890   0.15873   0.00000  Uiso   1.00
H178   H     0.42166   0.06662   0.14021   0.00000  Uiso   1.00
H179   H     0.46123   0.28661   0.34451   0.00000  Uiso   1.00
H180   H     0.49175   0.33128   0.36940   0.00000  Uiso   1.00
H181   H     0.49895   0.27267   0.38631   0.00000  Uiso   1.00
H182   H     0.58512   0.00448   0.31231   0.00000  Uiso   1.00
H183   H     0.56569   0.01266   0.36814   0.00000  Uiso   1.00
H184   H     0.59143   0.05803   0.34175   0.00000  Uiso   1.00
H185   H     0.61924   0.17452   0.35454   0.00000  Uiso   1.00
H186   H     0.54131   0.28195   0.15737   0.00000  Uiso   1.00
H187   H     0.51202   0.32872   0.13096   0.00000  Uiso   1.00
H188   H     0.50588   0.27069   0.11349   0.00000  Uiso   1.00
H189   H     0.37806   0.18805   0.13856   0.00000  Uiso   1.00
H190   H     0.41860   0.14743   0.15168   0.00000  Uiso   1.00
H191   H     0.39974   0.15284   0.09468   0.00000  Uiso   1.00
H192   H     0.36315   0.17568   0.38434   0.00000  Uiso   1.00
H193   H     0.59392   0.05608   0.12239   0.00000  Uiso   1.00
H194   H     0.45462   0.29087   0.44506   0.00000  Uiso   1.00
N195   N     0.50000   0.28402   0.25000   0.00000  Uiso   1.00
N196   N     0.50000   0.04931   0.25000   0.00000  Uiso   1.00
O197   O     0.43988   0.20625   0.24999   0.00000  Uiso   1.00
O198   O     0.43514   0.20678   0.11919   0.00000  Uiso   1.00
O199   O     0.41979   0.21081   0.34942   0.00000  Uiso   1.00
O200   O     0.38892   0.16952   0.40251   0.00000  Uiso   1.00
O201   O     0.58604   0.13596   0.14582   0.00000  Uiso   1.00
O202   O     0.57045   0.07180   0.10572   0.00000  Uiso   1.00
O203   O     0.40722   0.24414   0.45504   0.00000  Uiso   1.00
O204   O     0.60804   0.12667   0.04308   0.00000  Uiso   1.00
O205   O     0.36984   0.24367   0.03994   0.00000  Uiso   1.00
O206   O     0.41859   0.28495   0.07475   0.00000  Uiso   1.00
O207   O     0.59586   0.07202   0.43343   0.00000  Uiso   1.00
O208   O     0.56012   0.12709   0.25001   0.00000  Uiso   1.00
O209   O     0.64361   0.12217   0.45636   0.00000  Uiso   1.00
O210   O     0.39059   0.10005   0.32918   0.00000  Uiso   1.00
O211   O     0.38482   0.04724   0.27360   0.00000  Uiso   1.00
O212   O     0.61333   0.24612   0.17575   0.00000  Uiso   1.00
O213   O     0.60842   0.28257   0.24302   0.00000  Uiso   1.00
O214   O     0.63732   0.04682   0.27240   0.00000  Uiso   1.00
O215   O     0.61213   0.06965   0.20555   0.00000  Uiso   1.00
O216   O     0.38560   0.27245   0.27434   0.00000  Uiso   1.00
O217   O     0.36864   0.28032   0.20143   0.00000  Uiso   1.00
O218   O     0.47261   0.04933   0.17698   0.00000  Uiso   1.00
O219   O     0.56012   0.20625   0.25000   0.00000  Uiso   1.00
O220   O     0.52280   0.28585   0.32520   0.00000  Uiso   1.00
O221   O     0.53251   0.04910   0.32048   0.00000  Uiso   1.00
O222   O     0.47899   0.28698   0.17367   0.00000  Uiso   1.00
O223   O     0.43988   0.12709   0.24999   0.00000  Uiso   1.00
O224   O     0.49999   0.20627   0.18513   0.00000  Uiso   1.00
O225   O     0.50001   0.12707   0.31487   0.00000  Uiso   1.00
O226   O     0.50001   0.20627   0.31487   0.00000  Uiso   1.00
O227   O     0.49999   0.12707   0.18513   0.00000  Uiso   1.00
O228   O     0.56898   0.14398   0.38020   0.00000  Uiso   1.00
C229   C     0.75422   0.16757   0.25284   0.00000  Uiso   1.00
C230   C     0.70928   0.16927   0.25612   0.00000  Uiso   1.00
C231   C     0.81819   0.02530   0.21450   0.00000  Uiso   1.00
C232   C     0.84546   0.30880   0.28678   0.00000  Uiso   1.00
C233   C     0.84934   0.02472   0.28514   0.00000  Uiso   1.00
C234   C     0.82164   0.30923   0.21299   0.00000  Uiso   1.00
C235   C     0.83351   0.16650   0.16469   0.00000  Uiso   1.00
C236   C     0.83182   0.16702   0.33522   0.00000  Uiso   1.00
C237   C     0.86802   0.15551   0.40543   0.00000  Uiso   1.00
C238   C     0.80105   0.18901   0.09426   0.00000  Uiso   1.00
C239   C     0.83169   0.16828   0.38348   0.00000  Uiso   1.00
C240   C     0.91258   0.16585   0.24712   0.00000  Uiso   1.00
C241   C     0.83384   0.16672   0.11631   0.00000  Uiso   1.00
C242   C     0.79685   0.18427   0.40709   0.00000  Uiso   1.00
C243   C     0.86728   0.14723   0.09289   0.00000  Uiso   1.00
C244   C     0.79998   0.19114   0.45358   0.00000  Uiso   1.00
C245   C     0.86939   0.15264   0.04634   0.00000  Uiso   1.00
C246   C     0.83488   0.17284   0.47646   0.00000  Uiso   1.00
C247   C     0.83543   0.17320   0.02347   0.00000  Uiso   1.00
C248   C     0.86875   0.15334   0.45231   0.00000  Uiso   1.00
C249   C     0.80203   0.19396   0.04754   0.00000  Uiso   1.00
C250   C     0.77003   0.21767   0.47747   0.00000  Uiso   1.00
C251   C     0.77076   0.21894   0.02411   0.00000  Uiso   1.00
C252   C     0.90479   0.13839   0.02199   0.00000  Uiso   1.00
C253   C     0.92505   0.18395   0.37454   0.00000  Uiso   1.00
C254   C     0.74037   0.17179   0.12597   0.00000  Uiso   1.00
C255   C     0.75654   0.18929   0.38399   0.00000  Uiso   1.00
C256   C     0.89825   0.11852   0.11706   0.00000  Uiso   1.00
C257   C     0.75433   0.28944   0.45001   0.00000  Uiso   1.00
C258   C     0.96237   0.16758   0.05155   0.00000  Uiso   1.00
C259   C     0.73954   0.24915   0.04683   0.00000  Uiso   1.00
C260   C     0.93675   0.10761   0.45350   0.00000  Uiso   1.00
C261   C     0.71091   0.09118   0.29204   0.00000  Uiso   1.00
C262   C     0.90314   0.13469   0.47568   0.00000  Uiso   1.00
C263   C     0.95506   0.24616   0.21537   0.00000  Uiso   1.00
C264   C     0.96521   0.07799   0.24587   0.00000  Uiso   1.00
C265   C     0.70416   0.25539   0.24086   0.00000  Uiso   1.00
C266   C     0.76391   0.04459   0.16878   0.00000  Uiso   1.00
C267   C     0.82543   0.29494   0.35733   0.00000  Uiso   1.00
C268   C     0.90352   0.02967   0.33577   0.00000  Uiso   1.00
C269   C     0.84445   0.29277   0.14307   0.00000  Uiso   1.00
C270   C     0.68928   0.12826   0.26614   0.00000  Uiso   1.00
C271   C     0.97771   0.20610   0.23483   0.00000  Uiso   1.00
C272   C     0.98131   0.12439   0.25450   0.00000  Uiso   1.00
C273   C     0.68624   0.20916   0.24299   0.00000  Uiso   1.00
C274   C     0.95780   0.16472   0.24366   0.00000  Uiso   1.00
Cu275  Cu    0.83333   0.21355   0.25000   0.00000  Uiso   1.00
Cu276  Cu    0.83333   0.11978   0.25000   0.00000  Uiso   1.00
H277   H     0.93562   0.19803   0.40699   0.00000  Uiso   1.00
H278   H     0.74537   0.31111   0.47925   0.00000  Uiso   1.00
H279   H     0.73920   0.30488   0.42033   0.00000  Uiso   1.00
H280   H     0.94503   0.19114   0.07470   0.00000  Uiso   1.00
H281   H     0.96894   0.18600   0.02026   0.00000  Uiso   1.00
H282   H     0.99206   0.15827   0.06761   0.00000  Uiso   1.00
H283   H     0.72792   0.30339   0.08795   0.00000  Uiso   1.00
H284   H     0.99698   0.10070   0.43991   0.00000  Uiso   1.00
H285   H     0.73481   0.02622   0.29406   0.00000  Uiso   1.00
H286   H     0.92060   0.30342   0.22794   0.00000  Uiso   1.00
H287   H     0.93693   0.03673   0.20188   0.00000  Uiso   1.00
H288   H     0.90723   0.21103   0.35611   0.00000  Uiso   1.00
H289   H     0.71081   0.31311   0.20591   0.00000  Uiso   1.00
H290   H     0.74522   0.05658   0.19754   0.00000  Uiso   1.00
H291   H     0.75692   0.00890   0.15873   0.00000  Uiso   1.00
H292   H     0.75500   0.06662   0.14021   0.00000  Uiso   1.00
H293   H     0.79456   0.28661   0.34451   0.00000  Uiso   1.00
H294   H     0.82508   0.33128   0.36940   0.00000  Uiso   1.00
H295   H     0.83228   0.27267   0.38631   0.00000  Uiso   1.00
H296   H     0.91846   0.00448   0.31231   0.00000  Uiso   1.00
H297   H     0.89902   0.01266   0.36814   0.00000  Uiso   1.00
H298   H     0.92476   0.05803   0.34175   0.00000  Uiso   1.00
H299   H     0.95257   0.17452   0.35454   0.00000  Uiso   1.00
H300   H     0.87464   0.28195   0.15737   0.00000  Uiso   1.00
H301   H     0.84536   0.32872   0.13096   0.00000  Uiso   1.00
H302   H     0.83921   0.27069   0.11349   0.00000  Uiso   1.00
H303   H     0.71139   0.18805   0.13856   0.00000  Uiso   1.00
H304   H     0.75194   0.14743   0.15168   0.00000  Uiso   1.00
H305   H     0.73308   0.15284   0.09468   0.00000  Uiso   1.00
H306   H     0.69648   0.17568   0.38434   0.00000  Uiso   1.00
H307   H     0.92725   0.05608   0.12239   0.00000  Uiso   1.00
H308   H     0.78796   0.29087   0.44506   0.00000  Uiso   1.00
N309   N     0.83333   0.28402   0.25000   0.00000  Uiso   1.00
N310   N     0.83333   0.04931   0.25000   0.00000  Uiso   1.00
O311   O     0.77321   0.20625   0.24999   0.00000  Uiso   1.00
O312   O     0.76847   0.20678   0.11919   0.00000  Uiso   1.00
O313   O     0.75312   0.21081   0.34942   0.00000  Uiso   1.00
O314   O     0.72226   0.16952   0.40251   0.00000  Uiso   1.00
O315   O     0.91938   0.13596   0.14582   0.00000  Uiso   1.00
O316   O     0.90378   0.07180   0.10572   0.00000  Uiso   1.00
O317   O     0.74055   0.24414   0.45504   0.00000  Uiso   1.00
O318   O     0.94137   0.12667   0.04308   0.00000  Uiso   1.00
O319   O     0.70317   0.24367   0.03994   0.00000  Uiso   1.00
O320   O     0.75193   0.28495   0.07475   0.00000  Uiso   1.00
O321   O     0.92920   0.07202   0.43343   0.00000  Uiso   1.00
O322   O     0.89345   0.12709   0.25001   0.00000  Uiso   1.00
O323   O     0.97695   0.12217   0.45636   0.00000  Uiso   1.00
O324   O     0.72393   0.10005   0.32918   0.00000  Uiso   1.00
O325   O     0.71816   0.04724   0.27360   0.00000  Uiso   1.00
O326   O     0.94666   0.24612   0.17575   0.00000  Uiso   1.00
O327   O     0.94176   0.28257   0.24302   0.00000  Uiso   1.00
O328   O     0.97065   0.04682   0.27240   0.00000  Uiso   1.00
O329   O     0.94547   0.06965   0.20555   0.00000  Uiso   1.00
O330   O     0.71893   0.27245   0.27434   0.00000  Uiso   1.00
O331   O     0.70197   0.28032   0.20143   0.00000  Uiso   1.00
O332   O     0.80595   0.04933   0.17698   0.00000  Uiso   1.00
O333   O     0.89345   0.20625   0.25000   0.00000  Uiso   1.00
O334   O     0.85613   0.28585   0.32520   0.00000  Uiso   1.00
O335   O     0.86584   0.04910   0.32048   0.00000  Uiso   1.00
O336   O     0.81233   0.28698   0.17367   0.00000  Uiso   1.00
O337   O     0.77321   0.12709   0.24999   0.00000  Uiso   1.00
O338   O     0.83332   0.20627   0.18513   0.00000  Uiso   1.00
O339   O     0.83334   0.12707   0.31487   0.00000  Uiso   1.00
O340   O     0.83334   0.20627   0.31487   0.00000  Uiso   1.00
O341   O     0.83332   0.12707   0.18513   0.00000  Uiso   1.00
O342   O     0.90231   0.14398   0.38020   0.00000  Uiso   1.00
C343   C     0.08756   0.50091   0.25284   0.00000  Uiso   1.00
C344   C     0.04261   0.50261   0.25612   0.00000  Uiso   1.00
C345   C     0.15153   0.35863   0.21450   0.00000  Uiso   1.00
C346   C     0.17879   0.64213   0.28678   0.00000  Uiso   1.00
C347   C     0.18267   0.35806   0.28514   0.00000  Uiso   1.00
C348   C     0.15498   0.64256   0.21299   0.00000  Uiso   1.00
C349   C     0.16685   0.49983   0.16469   0.00000  Uiso   1.00
C350   C     0.16515   0.50035   0.33522   0.00000  Uiso   1.00
C351   C     0.20135   0.48884   0.40543   0.00000  Uiso   1.00
C352   C     0.13438   0.52234   0.09426   0.00000  Uiso   1.00
C353   C     0.16502   0.50161   0.38348   0.00000  Uiso   1.00
C354   C     0.24592   0.49919   0.24712   0.00000  Uiso   1.00
C355   C     0.16717   0.50006   0.11631   0.00000  Uiso   1.00
C356   C     0.13018   0.51760   0.40709   0.00000  Uiso   1.00
C357   C     0.20061   0.48056   0.09289   0.00000  Uiso   1.00
C358   C     0.13331   0.52447   0.45358   0.00000  Uiso   1.00
C359   C     0.20273   0.48597   0.04634   0.00000  Uiso   1.00
C360   C     0.16821   0.50618   0.47646   0.00000  Uiso   1.00
C361   C     0.16877   0.50654   0.02347   0.00000  Uiso   1.00
C362   C     0.20209   0.48667   0.45231   0.00000  Uiso   1.00
C363   C     0.13537   0.52730   0.04754   0.00000  Uiso   1.00
C364   C     0.10336   0.55100   0.47747   0.00000  Uiso   1.00
C365   C     0.10409   0.55227   0.02411   0.00000  Uiso   1.00
C366   C     0.23812   0.47172   0.02199   0.00000  Uiso   1.00
C367   C     0.25838   0.51728   0.37454   0.00000  Uiso   1.00
C368   C     0.07370   0.50512   0.12597   0.00000  Uiso   1.00
C369   C     0.08988   0.52262   0.38399   0.00000  Uiso   1.00
C370   C     0.23159   0.45185   0.11706   0.00000  Uiso   1.00
C371   C     0.08766   0.62277   0.45001   0.00000  Uiso   1.00
C372   C     0.29570   0.50092   0.05155   0.00000  Uiso   1.00
C373   C     0.07288   0.58248   0.04683   0.00000  Uiso   1.00
C374   C     0.27008   0.44094   0.45350   0.00000  Uiso   1.00
C375   C     0.04425   0.42451   0.29204   0.00000  Uiso   1.00
C376   C     0.23648   0.46803   0.47568   0.00000  Uiso   1.00
C377   C     0.28839   0.57950   0.21537   0.00000  Uiso   1.00
C378   C     0.29855   0.41132   0.24587   0.00000  Uiso   1.00
C379   C     0.03749   0.58873   0.24086   0.00000  Uiso   1.00
C380   C     0.09725   0.37792   0.16878   0.00000  Uiso   1.00
C381   C     0.15876   0.62828   0.35733   0.00000  Uiso   1.00
C382   C     0.23685   0.36300   0.33577   0.00000  Uiso   1.00
C383   C     0.17778   0.62611   0.14307   0.00000  Uiso   1.00
C384   C     0.02261   0.46159   0.26614   0.00000  Uiso   1.00
C385   C     0.31105   0.53943   0.23483   0.00000  Uiso   1.00
C386   C     0.31464   0.45772   0.25450   0.00000  Uiso   1.00
C387   C     0.01957   0.54249   0.24299   0.00000  Uiso   1.00
C388   C     0.29113   0.49805   0.24366   0.00000  Uiso   1.00
Cu389  Cu    0.16667   0.54689   0.25000   0.00000  Uiso   1.00
Cu390  Cu    0.16667   0.45311   0.25000   0.00000  Uiso   1.00
H391   H     0.26896   0.53136   0.40699   0.00000  Uiso   1.00
H392   H     0.07870   0.64445   0.47925   0.00000  Uiso   1.00
H393   H     0.07253   0.63821   0.42033   0.00000  Uiso   1.00
H394   H     0.27836   0.52448   0.07470   0.00000  Uiso   1.00
H395   H     0.30228   0.51933   0.02026   0.00000  Uiso   1.00
H396   H     0.32539   0.49160   0.06761   0.00000  Uiso   1.00
H397   H     0.06125   0.63673   0.08795   0.00000  Uiso   1.00
H398   H     0.33032   0.43404   0.43991   0.00000  Uiso   1.00
H399   H     0.06815   0.35956   0.29406   0.00000  Uiso   1.00
H400   H     0.25393   0.63675   0.22794   0.00000  Uiso   1.00
H401   H     0.27026   0.37006   0.20188   0.00000  Uiso   1.00
H402   H     0.24057   0.54437   0.35611   0.00000  Uiso   1.00
H403   H     0.04415   0.64644   0.20591   0.00000  Uiso   1.00
H404   H     0.07855   0.38992   0.19754   0.00000  Uiso   1.00
H405   H     0.09025   0.34223   0.15873   0.00000  Uiso   1.00
H406   H     0.08833   0.39995   0.14021   0.00000  Uiso   1.00
H407   H     0.12790   0.61994   0.34451   0.00000  Uiso   1.00
H408   H     0.15841   0.66461   0.36940   0.00000  Uiso   1.00
H409   H     0.16561   0.60601   0.38631   0.00000  Uiso   1.00
H410   H     0.25179   0.33781   0.31231   0.00000  Uiso   1.00
H411   H     0.23235   0.34600   0.36814   0.00000  Uiso   1.00
H412   H     0.25810   0.39136   0.34175   0.00000  Uiso   1.00
H413   H     0.28590   0.50785   0.35454   0.00000  Uiso   1.00
H414   H     0.20798   0.61528   0.15737   0.00000  Uiso   1.00
H415   H     0.17869   0.66205   0.13096   0.00000  Uiso   1.00
H416   H     0.17255   0.60402   0.11349   0.00000  Uiso   1.00
H417   H     0.04472   0.52138   0.13856   0.00000  Uiso   1.00
H418   H     0.08527   0.48076   0.15168   0.00000  Uiso   1.00
H419   H     0.06641   0.48617   0.09468   0.00000  Uiso   1.00
H420   H     0.02982   0.50901   0.38434   0.00000  Uiso   1.00
H421   H     0.26059   0.38941   0.12239   0.00000  Uiso   1.00
H422   H     0.12129   0.62421   0.44506   0.00000  Uiso   1.00
N423   N     0.16667   0.61736   0.25000   0.00000  Uiso   1.00
N424   N     0.16667   0.38264   0.25000   0.00000  Uiso   1.00
O425   O     0.10655   0.53958   0.24999   0.00000  Uiso   1.00
O426   O     0.10180   0.54011   0.11919   0.00000  Uiso   1.00
O427   O     0.08646   0.54414   0.34942   0.00000  Uiso   1.00
O428   O     0.05559   0.50286   0.40251   0.00000  Uiso   1.00
O429   O     0.25271   0.46930   0.14582   0.00000  Uiso   1.00
O430   O     0.23711   0.40513   0.10572   0.00000  Uiso   1.00
O431   O     0.07389   0.57747   0.45504   0.00000  Uiso   1.00
O432   O     0.27470   0.46001   0.04308   0.00000  Uiso   1.00
O433   O     0.03650   0.57700   0.03994   0.00000  Uiso   1.00
O434   O     0.08526   0.61829   0.07475   0.00000  Uiso   1.00
O435   O     0.26253   0.40535   0.43343   0.00000  Uiso   1.00
O436   O     0.22679   0.46042   0.25001   0.00000  Uiso   1.00
O437   O     0.31028   0.45550   0.45636   0.00000  Uiso   1.00
O438   O     0.05726   0.43338   0.32918   0.00000  Uiso   1.00
O439   O     0.05149   0.38057   0.27360   0.00000  Uiso   1.00
O440   O     0.27999   0.57946   0.17575   0.00000  Uiso   1.00
O441   O     0.27509   0.61591   0.24302   0.00000  Uiso   1.00
O442   O     0.30398   0.38015   0.27240   0.00000  Uiso   1.00
O443   O     0.27880   0.40299   0.20555   0.00000  Uiso   1.00
O444   O     0.05226   0.60578   0.27434   0.00000  Uiso   1.00
O445   O     0.03530   0.61365   0.20143   0.00000  Uiso   1.00
O446   O     0.13928   0.38267   0.17698   0.00000  Uiso   1.00
O447   O     0.22679   0.53958   0.25000   0.00000  Uiso   1.00
O448   O     0.18946   0.61919   0.32520   0.00000  Uiso   1.00
O449   O     0.19918   0.38243   0.32048   0.00000  Uiso   1.00
O450   O     0.14566   0.62031   0.17367   0.00000  Uiso   1.00
O451   O     0.10655   0.46042   0.24999   0.00000  Uiso   1.00
O452   O     0.16666   0.53960   0.18513   0.00000  Uiso   1.00
O453   O     0.16668   0.46040   0.31487   0.00000  Uiso   1.00
O454   O     0.16668   0.53960   0.31487   0.00000  Uiso   1.00
O455   O     0.16666   0.46040   0.18513   0.00000  Uiso   1.00
O456   O     0.23564   0.47732   0.38020   0.00000  Uiso   1.00
C457   C     0.42089   0.50091   0.25284   0.00000  Uiso   1.00
C458   C     0.37595   0.50261   0.25612   0.00000  Uiso   1.00
C459   C     0.48486   0.35863   0.21450   0.00000  Uiso   1.00
C460   C     0.51212   0.64213   0.28678   0.00000  Uiso   1.00
C461   C     0.51600   0.35806   0.28514   0.00000  Uiso   1.00
C462   C     0.48831   0.64256   0.21299   0.00000  Uiso   1.00
C463   C     0.50018   0.49983   0.16469   0.00000  Uiso   1.00
C464   C     0.49848   0.50035   0.33522   0.00000  Uiso   1.00
C465   C     0.53469   0.48884   0.40543   0.00000  Uiso   1.00
C466   C     0.46771   0.52234   0.09426   0.00000  Uiso   1.00
C467   C     0.49836   0.50161   0.38348   0.00000  Uiso   1.00
C468   C     0.57925   0.49919   0.24712   0.00000  Uiso   1.00
C469   C     0.50050   0.50006   0.11631   0.00000  Uiso   1.00
C470   C     0.46351   0.51760   0.40709   0.00000  Uiso   1.00
C471   C     0.53394   0.48056   0.09289   0.00000  Uiso   1.00
C472   C     0.46665   0.52447   0.45358   0.00000  Uiso   1.00
C473   C     0.53606   0.48597   0.04634   0.00000  Uiso   1.00
C474   C     0.50154   0.50618   0.47646   0.00000  Uiso   1.00
C475   C     0.50210   0.50654   0.02347   0.00000  Uiso   1.00
C476   C     0.53542   0.48667   0.45231   0.00000  Uiso   1.00
C477   C     0.46870   0.52730   0.04754   0.00000  Uiso   1.00
C478   C     0.43670   0.55100   0.47747   0.00000  Uiso   1.00
C479   C     0.43742   0.55227   0.02411   0.00000  Uiso   1.00
C480   C     0.57146   0.47172   0.02199   0.00000  Uiso   1.00
C481   C     0.59171   0.51728   0.37454   0.00000  Uiso   1.00
C482   C     0.40704   0.50512   0.12597   0.00000  Uiso   1.00
C483   C     0.42321   0.52262   0.38399   0.00000  Uiso   1.00
C484   C     0.56492   0.45185   0.11706   0.00000  Uiso   1.00
C485   C     0.42099   0.62277   0.45001   0.00000  Uiso   1.00
C486   C     0.62903   0.50092   0.05155   0.00000  Uiso   1.00
C487   C     0.40621   0.58248   0.04683   0.00000  Uiso   1.00
C488   C     0.60342   0.44094   0.45350   0.00000  Uiso   1.00
C489   C     0.37758   0.42451   0.29204   0.00000  Uiso   1.00
C490   C     0.56981   0.46803   0.47568   0.00000  Uiso   1.00
C491   C     0.62172   0.57950   0.21537   0.00000  Uiso   1.00
C492   C     0.63188   0.41132   0.24587   0.00000  Uiso   1.00
C493   C     0.37083   0.58873   0.24086   0.00000  Uiso   1.00
C494   C     0.43058   0.37792   0.16878   0.00000  Uiso   1.00
C495   C     0.49210   0.62828   0.35733   0.00000  Uiso   1.00
C496   C     0.57019   0.36300   0.33577   0.00000  Uiso   1.00
C497   C     0.51111   0.62611   0.14307   0.00000  Uiso   1.00
C498   C     0.35594   0.46159   0.26614   0.00000  Uiso   1.00
C499   C     0.64438   0.53943   0.23483   0.00000  Uiso   1.00
C500   C     0.64797   0.45772   0.25450   0.00000  Uiso   1.00
C501   C     0.35291   0.54249   0.24299   0.00000  Uiso   1.00
C502   C     0.62446   0.49805   0.24366   0.00000  Uiso   1.00
Cu503  Cu    0.50000   0.54689   0.25000   0.00000  Uiso   1.00
Cu504  Cu    0.50000   0.45311   0.25000   0.00000  Uiso   1.00
H505   H     0.60229   0.53136   0.40699   0.00000  Uiso   1.00
H506   H     0.41203   0.64445   0.47925   0.00000  Uiso   1.00
H507   H     0.40587   0.63821   0.42033   0.00000  Uiso   1.00
H508   H     0.61170   0.52448   0.07470   0.00000  Uiso   1.00
H509   H     0.63561   0.51933   0.02026   0.00000  Uiso   1.00
H510   H     0.65873   0.49160   0.06761   0.00000  Uiso   1.00
H511   H     0.39459   0.63673   0.08795   0.00000  Uiso   1.00
H512   H     0.66365   0.43404   0.43991   0.00000  Uiso   1.00
H513   H     0.40148   0.35956   0.29406   0.00000  Uiso   1.00
H514   H     0.58727   0.63675   0.22794   0.00000  Uiso   1.00
H515   H     0.60360   0.37006   0.20188   0.00000  Uiso   1.00
H516   H     0.57390   0.54437   0.35611   0.00000  Uiso   1.00
H517   H     0.37748   0.64644   0.20591   0.00000  Uiso   1.00
H518   H     0.41189   0.38992   0.19754   0.00000  Uiso   1.00
H519   H     0.42358   0.34223   0.15873   0.00000  Uiso   1.00
H520   H     0.42166   0.39995   0.14021   0.00000  Uiso   1.00
H521   H     0.46123   0.61994   0.34451   0.00000  Uiso   1.00
H522   H     0.49175   0.66461   0.36940   0.00000  Uiso   1.00
H523   H     0.49895   0.60601   0.38631   0.00000  Uiso   1.00
H524   H     0.58512   0.33781   0.31231   0.00000  Uiso   1.00
H525   H     0.56569   0.34600   0.36814   0.00000  Uiso   1.00
H526   H     0.59143   0.39136   0.34175   0.00000  Uiso   1.00
H527   H     0.61924   0.50785   0.35454   0.00000  Uiso   1.00
H528   H     0.54131   0.61528   0.15737   0.00000  Uiso   1.00
H529   H     0.51202   0.66205   0.13096   0.00000  Uiso   1.00
H530   H     0.50588   0.60402   0.11349   0.00000  Uiso   1.00
H531   H     0.37806   0.52138   0.13856   0.00000  Uiso   1.00
H532   H     0.41860   0.48076   0.15168   0.00000  Uiso   1.00
H533   H     0.39974   0.48617   0.09468   0.00000  Uiso   1.00
H534   H     0.36315   0.50901   0.38434   0.00000  Uiso   1.00
H535   H     0.59392   0.38941   0.12239   0.00000  Uiso   1.00
H536   H     0.45462   0.62421   0.44506   0.00000  Uiso   1.00
N537   N     0.50000   0.61736   0.25000   0.00000  Uiso   1.00
N538   N     0.50000   0.38264   0.25000   0.00000  Uiso   1.00
O539   O     0.43988   0.53958   0.24999   0.00000  Uiso   1.00
O540   O     0.43514   0.54011   0.11919   0.00000  Uiso   1.00
O541   O     0.41979   0.54414   0.34942   0.00000  Uiso   1.00
O542   O     0.38892   0.50286   0.40251   0.00000  Uiso   1.00
O543   O     0.58604   0.46930   0.14582   0.00000  Uiso   1.00
O544   O     0.57045   0.40513   0.10572   0.00000  Uiso   1.00
O545   O     0.40722   0.57747   0.45504   0.00000  Uiso   1.00
O546   O     0.60804   0.46001   0.04308   0.00000  Uiso   1.00
O547   O     0.36984   0.57700   0.03994   0.00000  Uiso   1.00
O548   O     0.41859   0.61829   0.07475   0.00000  Uiso   1.00
O549   O     0.59586   0.40535   0.43343   0.00000  Uiso   1.00
O550   O     0.56012   0.46042   0.25001   0.00000  Uiso   1.00
O551   O     0.64361   0.45550   0.45636   0.00000  Uiso   1.00
O552   O     0.39059   0.43338   0.32918   0.00000  Uiso   1.00
O553   O     0.38482   0.38057   0.27360   0.00000  Uiso   1.00
O554   O     0.61333   0.57946   0.17575   0.00000  Uiso   1.00
O555   O     0.60842   0.61591   0.24302   0.00000  Uiso   1.00
O556   O     0.63732   0.38015   0.27240   0.00000  Uiso   1.00
O557   O     0.61213   0.40299   0.20555   0.00000  Uiso   1.00
O558   O     0.38560   0.60578   0.27434   0.00000  Uiso   1.00
O559   O     0.36864   0.61365   0.20143   0.00000  Uiso   1.00
O560   O     0.47261   0.38267   0.17698   0.00000  Uiso   1.00
O561   O     0.56012   0.53958   0.25000   0.00000  Uiso   1.00
O562   O     0.52280   0.61919   0.32520   0.00000  Uiso   1.00
O563   O     0.53251   0.38243   0.32048   0.00000  Uiso   1.00
O564   O     0.47899   0.62031   0.17367   0.00000  Uiso   1.00
O565   O     0.43988   0.46042   0.24999   0.00000  Uiso   1.00
O566   O     0.49999   0.53960   0.18513   0.00000  Uiso   1.00
O567   O     0.50001   0.46040   0.31487   0.00000  Uiso   1.00
O568   O     0.50001   0.53960   0.31487   0.00000  Uiso   1.00
O569   O     0.49999   0.46040   0.18513   0.00000  Uiso   1.00
O570   O     0.56898   0.47732   0.38020   0.00000  Uiso   1.00
C571   C     0.75422   0.50091   0.25284   0.00000  Uiso   1.00
C572   C     0.70928   0.50261   0.25612   0.00000  Uiso   1.00
C573   C     0.81819   0.35863   0.21450   0.00000  Uiso   1.00
C574   C     0.84546   0.64213   0.28678   0.00000  Uiso   1.00
C575   C     0.84934   0.35806   0.28514   0.00000  Uiso   1.00
C576   C     0.82164   0.64256   0.21299   0.00000  Uiso   1.00
C577   C     0.83351   0.49983   0.16469   0.00000  Uiso   1.00
C578   C     0.83182   0.50035   0.33522   0.00000  Uiso   1.00
C579   C     0.86802   0.48884   0.40543   0.00000  Uiso   1.00
C580   C     0.80105   0.52234   0.09426   0.00000  Uiso   1.00
C581   C     0.83169   0.50161   0.38348   0.00000  Uiso   1.00
C582   C     0.91258   0.49919   0.24712   0.00000  Uiso   1.00
C583   C     0.83384   0.50006   0.11631   0.00000  Uiso   1.00
C584   C     0.79685   0.51760   0.40709   0.00000  Uiso   1.00
C585   C     0.86728   0.48056   0.09289   0.00000  Uiso   1.00
C586   C     0.79998   0.52447   0.45358   0.00000  Uiso   1.00
C587   C     0.86939   0.48597   0.04634   0.00000  Uiso   1.00
C588   C     0.83488   0.50618   0.47646   0.00000  Uiso   1.00
C589   C     0.83543   0.50654   0.02347   0.00000  Uiso   1.00
C590   C     0.86875   0.48667   0.45231   0.00000  Uiso   1.00
C591   C     0.80203   0.52730   0.04754   0.00000  Uiso   1.00
C592   C     0.77003   0.55100   0.47747   0.00000  Uiso   1.00
C593   C     0.77076   0.55227   0.02411   0.00000  Uiso   1.00
C594   C     0.90479   0.47172   0.02199   0.00000  Uiso   1.00
C595   C     0.92505   0.51728   0.37454   0.00000  Uiso   1.00
C596   C     0.74037   0.50512   0.12597   0.00000  Uiso   1.00
C597   C     0.75654   0.52262   0.38399   0.00000  Uiso   1.00
C598   C     0.89825   0.45185   0.11706   0.00000  Uiso   1.00
C599   C     0.75433   0.62277   0.45001   0.00000  Uiso   1.00
C600   C     0.96237   0.50092   0.05155   0.00000  Uiso   1.00
C601   C     0.73954   0.58248   0.04683   0.00000  Uiso   1.00
C602   C     0.93675   0.44094   0.45350   0.00000  Uiso   1.00
C603   C     0.71091   0.42451   0.29204   0.00000  Uiso   1.00
C604   C     0.90314   0.46803   0.47568   0.00000  Uiso   1.00
C605   C     0.95506   0.57950   0.21537   0.00000  Uiso   1.00
C606   C     0.96521   0.41132   0.24587   0.00000  Uiso   1.00
C607   C     0.70416   0.58873   0.24086   0.00000  Uiso   1.00
C608   C     0.76391   0.37792   0.16878   0.00000  Uiso   1.00
C609   C     0.82543   0.62828   0.35733   0.00000  Uiso   1.00
C610   C     0.90352   0.36300   0.33577   0.00000  Uiso   1.00
C611   C     0.84445   0.62611   0.14307   0.00000  Uiso   1.00
C612   C     0.68928   0.46159   0.26614   0.00000  Uiso   1.00
C613   C     0.97771   0.53943   0.23483   0.00000  Uiso   1.00
C614   C     0.98131   0.45772   0.25450   0.00000  Uiso   1.00
C615   C     0.68624   0.54249   0.24299   0.00000  Uiso   1.00
C616   C     0.95780   0.49805   0.24366   0.00000  Uiso   1.00
Cu617  Cu    0.83333   0.54689   0.25000   0.00000  Uiso   1.00
Cu618  Cu    0.83333   0.45311   0.25000   0.00000  Uiso   1.00
H619   H     0.93562   0.53136   0.40699   0.00000  Uiso   1.00
H620   H     0.74537   0.64445   0.47925   0.00000  Uiso   1.00
H621   H     0.73920   0.63821   0.42033   0.00000  Uiso   1.00
H622   H     0.94503   0.52448   0.07470   0.00000  Uiso   1.00
H623   H     0.96894   0.51933   0.02026   0.00000  Uiso   1.00
H624   H     0.99206   0.49160   0.06761   0.00000  Uiso   1.00
H625   H     0.72792   0.63673   0.08795   0.00000  Uiso   1.00
H626   H     0.99698   0.43404   0.43991   0.00000  Uiso   1.00
H627   H     0.73481   0.35956   0.29406   0.00000  Uiso   1.00
H628   H     0.92060   0.63675   0.22794   0.00000  Uiso   1.00
H629   H     0.93693   0.37006   0.20188   0.00000  Uiso   1.00
H630   H     0.90723   0.54437   0.35611   0.00000  Uiso   1.00
H631   H     0.71081   0.64644   0.20591   0.00000  Uiso   1.00
H632   H     0.74522   0.38992   0.19754   0.00000  Uiso   1.00
H633   H     0.75692   0.34223   0.15873   0.00000  Uiso   1.00
H634   H     0.75500   0.39995   0.14021   0.00000  Uiso   1.00
H635   H     0.79456   0.61994   0.34451   0.00000  Uiso   1.00
H636   H     0.82508   0.66461   0.36940   0.00000  Uiso   1.00
H637   H     0.83228   0.60601   0.38631   0.00000  Uiso   1.00
H638   H     0.91846   0.33781   0.31231   0.00000  Uiso   1.00
H639   H     0.89902   0.34600   0.36814   0.00000  Uiso   1.00
H640   H     0.92476   0.39136   0.34175   0.00000  Uiso   1.00
H641   H     0.95257   0.50785   0.35454   0.00000  Uiso   1.00
H642   H     0.87464   0.61528   0.15737   0.00000  Uiso   1.00
H643   H     0.84536   0.66205   0.13096   0.00000  Uiso   1.00
H644   H     0.83921   0.60402   0.11349   0.00000  Uiso   1.00
H645   H     0.71139   0.52138   0.13856   0.00000  Uiso   1.00
H646   H     0.75194   0.48076   0.15168   0.00000  Uiso   1.00
H647   H     0.73308   0.48617   0.09468   0.00000  Uiso   1.00
H648   H     0.69648   0.50901   0.38434   0.00000  Uiso   1.00
H649   H     0.92725   0.38941   0.12239   0.00000  Uiso   1.00
H650   H     0.78796   0.62421   0.44506   0.00000  Uiso   1.00
N651   N     0.83333   0.61736   0.25000   0.00000  Uiso   1.00
N652   N     0.83333   0.38264   0.25000   0.00000  Uiso   1.00
O653   O     0.77321   0.53958   0.24999   0.00000  Uiso   1.00
O654   O     0.76847   0.54011   0.11919   0.00000  Uiso   1.00
O655   O     0.75312   0.54414   0.34942   0.00000  Uiso   1.00
O656   O     0.72226   0.50286   0.40251   0.00000  Uiso   1.00
O657   O     0.91938   0.46930   0.14582   0.00000  Uiso   1.00
O658   O     0.90378   0.40513   0.10572   0.00000  Uiso   1.00
O659   O     0.74055   0.57747   0.45504   0.00000  Uiso   1.00
O660   O     0.94137   0.46001   0.04308   0.00000  Uiso   1.00
O661   O     0.70317   0.57700   0.03994   0.00000  Uiso   1.00
O662   O     0.75193   0.61829   0.07475   0.00000  Uiso   1.00
O663   O     0.92920   0.40535   0.43343   0.00000  Uiso   1.00
O664   O     0.89345   0.46042   0.25001   0.00000  Uiso   1.00
O665   O     0.97695   0.45550   0.45636   0.00000  Uiso   1.00
O666   O     0.72393   0.43338   0.32918   0.00000  Uiso   1.00
O667   O     0.71816   0.38057   0.27360   0.00000  Uiso   1.00
O668   O     0.94666   0.57946   0.17575   0.00000  Uiso   1.00
O669   O     0.94176   0.61591   0.24302   0.00000  Uiso   1.00
O670   O     0.97065   0.38015   0.27240   0.00000  Uiso   1.00
O671   O     0.94547   0.40299   0.20555   0.00000  Uiso   1.00
O672   O     0.71893   0.60578   0.27434   0.00000  Uiso   1.00
O673   O     0.70197   0.61365   0.20143   0.00000  Uiso   1.00
O674   O     0.80595   0.38267   0.17698   0.00000  Uiso   1.00
O675   O     0.89345   0.53958   0.25000   0.00000  Uiso   1.00
O676   O     0.85613   0.61919   0.32520   0.00000  Uiso   1.00
O677   O     0.86584   0.38243   0.32048   0.00000  Uiso   1.00
O678   O     0.81233   0.62031   0.17367   0.00000  Uiso   1.00
O679   O     0.77321   0.46042   0.24999   0.00000  Uiso   1.00
O680   O     0.83332   0.53960   0.18513   0.00000  Uiso   1.00
O681   O     0.83334   0.46040   0.31487   0.00000  Uiso   1.00
O682   O     0.83334   0.53960   0.31487   0.00000  Uiso   1.00
O683   O     0.83332   0.46040   0.18513   0.00000  Uiso   1.00
O684   O     0.90231   0.47732   0.38020   0.00000  Uiso   1.00
C685   C     0.08756   0.83424   0.25284   0.00000  Uiso   1.00
C686   C     0.04261   0.83594   0.25612   0.00000  Uiso   1.00
C687   C     0.15153   0.69197   0.21450   0.00000  Uiso   1.00
C688   C     0.17879   0.97546   0.28678   0.00000  Uiso   1.00
C689   C     0.18267   0.69139   0.28514   0.00000  Uiso   1.00
C690   C     0.15498   0.97589   0.21299   0.00000  Uiso   1.00
C691   C     0.16685   0.83317   0.16469   0.00000  Uiso   1.00
C692   C     0.16515   0.83368   0.33522   0.00000  Uiso   1.00
C693   C     0.20135   0.82217   0.40543   0.00000  Uiso   1.00
C694   C     0.13438   0.85568   0.09426   0.00000  Uiso   1.00
C695   C     0.16502   0.83495   0.38348   0.00000  Uiso   1.00
C696   C     0.24592   0.83252   0.24712   0.00000  Uiso   1.00
C697   C     0.16717   0.83339   0.11631   0.00000  Uiso   1.00
C698   C     0.13018   0.85093   0.40709   0.00000  Uiso   1.00
C699   C     0.20061   0.81389   0.09289   0.00000  Uiso   1.00
C700   C     0.13331   0.85780   0.45358   0.00000  Uiso   1.00
C701   C     0.20273   0.81930   0.04634   0.00000  Uiso   1.00
C702   C     0.16821   0.83951   0.47646   0.00000  Uiso   1.00
C703   C     0.16877   0.83987   0.02347   0.00000  Uiso   1.00
C704   C     0.20209   0.82000   0.45231   0.00000  Uiso   1.00
C705   C     0.13537   0.86063   0.04754   0.00000  Uiso   1.00
C706   C     0.10336   0.88433   0.47747   0.00000  Uiso   1.00
C707   C     0.10409   0.88561   0.02411   0.00000  Uiso   1.00
C708   C     0.23812   0.80506   0.02199   0.00000  Uiso   1.00
C709   C     0.25838   0.85061   0.37454   0.00000  Uiso   1.00
C710   C     0.07370   0.83845   0.12597   0.00000  Uiso   1.00
C711   C     0.08988   0.85596   0.38399   0.00000  Uiso   1.00
C712   C     0.23159   0.78518   0.11706   0.00000  Uiso   1.00
C713   C     0.08766   0.95611   0.45001   0.00000  Uiso   1.00
C714   C     0.29570   0.83425   0.05155   0.00000  Uiso   1.00
C715   C     0.07288   0.91581   0.04683   0.00000  Uiso   1.00
C716   C     0.27008   0.77427   0.45350   0.00000  Uiso   1.00
C717   C     0.04425   0.75784   0.29204   0.00000  Uiso   1.00
C718   C     0.23648   0.80136   0.47568   0.00000  Uiso   1.00
C719   C     0.28839   0.91283   0.21537   0.00000  Uiso   1.00
C720   C     0.29855   0.74465   0.24587   0.00000  Uiso   1.00
C721   C     0.03749   0.92206   0.24086   0.00000  Uiso   1.00
C722   C     0.09725   0.71126   0.16878   0.00000  Uiso   1.00
C723   C     0.15876   0.96161   0.35733   0.00000  Uiso   1.00
C724   C     0.23685   0.69633   0.33577   0.00000  Uiso   1.00
C725   C     0.17778   0.95944   0.14307   0.00000  Uiso   1.00
C726   C     0.02261   0.79492   0.26614   0.00000  Uiso   1.00
C727   C     0.31105   0.87276   0.23483   0.00000  Uiso   1.00
C728   C     0.31464   0.79105   0.25450   0.00000  Uiso   1.00
C729   C     0.01957   0.87583   0.24299   0.00000  Uiso   1.00
C730   C     0.29113   0.83139   0.24366   0.00000  Uiso   1.00
Cu731  Cu    0.16667   0.88022   0.25000   0.00000  Uiso   1.00
Cu732  Cu    0.16667   0.78645   0.25000   0.00000  Uiso   1.00
H733   H     0.26896   0.86470   0.40699   0.00000  Uiso   1.00
H734   H     0.07870   0.97778   0.47925   0.00000  Uiso   1.00
H735   H     0.07253   0.97155   0.42033   0.00000  Uiso   1.00
H736   H     0.27836   0.85781   0.07470   0.00000  Uiso   1.00
H737   H     0.30228   0.85266   0.02026   0.00000  Uiso   1.00
H738   H     0.32539   0.82493   0.06761   0.00000  Uiso   1.00
H739   H     0.06125   0.97006   0.08795   0.00000  Uiso   1.00
H740   H     0.33032   0.76737   0.43991   0.00000  Uiso   1.00
H741   H     0.06815   0.69289   0.29406   0.00000  Uiso   1.00
H742   H     0.25393   0.97009   0.22794   0.00000  Uiso   1.00
H743   H     0.27026   0.70340   0.20188   0.00000  Uiso   1.00
H744   H     0.24057   0.87770   0.35611   0.00000  Uiso   1.00
H745   H     0.04415   0.97978   0.20591   0.00000  Uiso   1.00
H746   H     0.07855   0.72325   0.19754   0.00000  Uiso   1.00
H747   H     0.09025   0.67556   0.15873   0.00000  Uiso   1.00
H748   H     0.08833   0.73328   0.14021   0.00000  Uiso   1.00
H749   H     0.12790   0.95327   0.34451   0.00000  Uiso   1.00
H750   H     0.15841   0.99795   0.36940   0.00000  Uiso   1.00
H751   H     0.16561   0.93934   0.38631   0.00000  Uiso   1.00
H752   H     0.25179   0.67115   0.31231   0.00000  Uiso   1.00
H753   H     0.23235   0.67933   0.36814   0.00000  Uiso   1.00
H754   H     0.25810   0.72470   0.34175   0.00000  Uiso   1.00
H755   H     0.28590   0.84119   0.35454   0.00000  Uiso   1.00
H756   H     0.20798   0.94862   0.15737   0.00000  Uiso   1.00
H757   H     0.17869   0.99538   0.13096   0.00000  Uiso   1.00
H758   H     0.17255   0.93735   0.11349   0.00000  Uiso   1.00
H759   H     0.04472   0.85471   0.13856   0.00000  Uiso   1.00
H760   H     0.08527   0.81409   0.15168   0.00000  Uiso   1.00
H761   H     0.06641   0.81951   0.09468   0.00000  Uiso   1.00
H762   H     0.02982   0.84235   0.38434   0.00000  Uiso   1.00
H763   H     0.26059   0.72274   0.12239   0.00000  Uiso   1.00
H764   H     0.12129   0.95754   0.44506   0.00000  Uiso   1.00
N765   N     0.16667   0.95069   0.25000   0.00000  Uiso   1.00
N766   N     0.16667   0.71598   0.25000   0.00000  Uiso   1.00
O767   O     0.10655   0.87291   0.24999   0.00000  Uiso   1.00
O768   O     0.10180   0.87344   0.11919   0.00000  Uiso   1.00
O769   O     0.08646   0.87748   0.34942   0.00000  Uiso   1.00
O770   O     0.05559   0.83619   0.40251   0.00000  Uiso   1.00
O771   O     0.25271   0.80263   0.14582   0.00000  Uiso   1.00
O772   O     0.23711   0.73847   0.10572   0.00000  Uiso   1.00
O773   O     0.07389   0.91081   0.45504   0.00000  Uiso   1.00
O774   O     0.27470   0.79334   0.04308   0.00000  Uiso   1.00
O775   O     0.03650   0.91033   0.03994   0.00000  Uiso   1.00
O776   O     0.08526   0.95162   0.07475   0.00000  Uiso   1.00
O777   O     0.26253   0.73868   0.43343   0.00000  Uiso   1.00
O778   O     0.22679   0.79375   0.25001   0.00000  Uiso   1.00
O779   O     0.31028   0.78883   0.45636   0.00000  Uiso   1.00
O780   O     0.05726   0.76671   0.32918   0.00000  Uiso   1.00
O781   O     0.05149   0.71391   0.27360   0.00000  Uiso   1.00
O782   O     0.27999   0.91279   0.17575   0.00000  Uiso   1.00
O783   O     0.27509   0.94924   0.24302   0.00000  Uiso   1.00
O784   O     0.30398   0.71349   0.27240   0.00000  Uiso   1.00
O785   O     0.27880   0.73632   0.20555   0.00000  Uiso   1.00
O786   O     0.05226   0.93911   0.27434   0.00000  Uiso   1.00
O787   O     0.03530   0.94699   0.20143   0.00000  Uiso   1.00
O788   O     0.13928   0.71600   0.17698   0.00000  Uiso   1.00
O789   O     0.22679   0.87291   0.25000   0.00000  Uiso   1.00
O790   O     0.18946   0.95252   0.32520   0.00000  Uiso   1.00
O791   O     0.19918   0.71577   0.32048   0.00000  Uiso   1.00
O792   O     0.14566   0.95364   0.17367   0.00000  Uiso   1.00
O793   O     0.10655   0.79375   0.24999   0.00000  Uiso   1.00
O794   O     0.16666   0.87293   0.18513   0.00000  Uiso   1.00
O795   O     0.16668   0.79373   0.31487   0.00000  Uiso   1.00
O796   O     0.16668   0.87293   0.31487   0.00000  Uiso   1.00
O797   O     0.16666   0.79373   0.18513   0.00000  Uiso   1.00
O798   O     0.23564   0.81065   0.38020   0.00000  Uiso   1.00
C799   C     0.42089   0.83424   0.25284   0.00000  Uiso   1.00
C800   C     0.37595   0.83594   0.25612   0.00000  Uiso   1.00
C801   C     0.48486   0.69197   0.21450   0.00000  Uiso   1.00
C802   C     0.51212   0.97546   0.28678   0.00000  Uiso   1.00
C803   C     0.51600   0.69139   0.28514   0.00000  Uiso   1.00
C804   C     0.48831   0.97589   0.21299   0.00000  Uiso   1.00
C805   C     0.50018   0.83317   0.16469   0.00000  Uiso   1.00
C806   C     0.49848   0.83368   0.33522   0.00000  Uiso   1.00
C807   C     0.53469   0.82217   0.40543   0.00000  Uiso   1.00
C808   C     0.46771   0.85568   0.09426   0.00000  Uiso   1.00
C809   C     0.49836   0.83495   0.38348   0.00000  Uiso   1.00
C810   C     0.57925   0.83252   0.24712   0.00000  Uiso   1.00
C811   C     0.50050   0.83339   0.11631   0.00000  Uiso   1.00
C812   C     0.46351   0.85093   0.40709   0.00000  Uiso   1.00
C813   C     0.53394   0.81389   0.09289   0.00000  Uiso   1.00
C814   C     0.46665   0.85780   0.45358   0.00000  Uiso   1.00
C815   C     0.53606   0.81930   0.04634   0.00000  Uiso   1.00
C816   C     0.50154   0.83951   0.47646   0.00000  Uiso   1.00
C817   C     0.50210   0.83987   0.02347   0.00000  Uiso   1.00
C818   C     0.53542   0.82000   0.45231   0.00000  Uiso   1.00
C819   C     0.46870   0.86063   0.04754   0.00000  Uiso   1.00
C820   C     0.43670   0.88433   0.47747   0.00000  Uiso   1.00
C821   C     0.43742   0.88561   0.02411   0.00000  Uiso   1.00
C822   C     0.57146   0.80506   0.02199   0.00000  Uiso   1.00
C823   C     0.59171   0.85061   0.37454   0.00000  Uiso   1.00
C824   C     0.40704   0.83845   0.12597   0.00000  Uiso   1.00
C825   C     0.42321   0.85596   0.38399   0.00000  Uiso   1.00
C826   C     0.56492   0.78518   0.11706   0.00000  Uiso   1.00
C827   C     0.42099   0.95611   0.45001   0.00000  Uiso   1.00
C828   C     0.62903   0.83425   0.05155   0.00000  Uiso   1.00
C829   C     0.40621   0.91581   0.04683   0.00000  Uiso   1.00
C830   C     0.60342   0.77427   0.45350   0.00000  Uiso   1.00
C831   C     0.37758   0.75784   0.29204   0.00000  Uiso   1.00
C832   C     0.56981   0.80136   0.47568   0.00000  Uiso   1.00
C833   C     0.62172   0.91283   0.21537   0.00000  Uiso   1.00
C834   C     0.63188   0.74465   0.24587   0.00000  Uiso   1.00
C835   C     0.37083   0.92206   0.24086   0.00000  Uiso   1.00
C836   C     0.43058   0.71126   0.16878   0.00000  Uiso   1.00
C837   C     0.49210   0.96161   0.35733   0.00000  Uiso   1.00
C838   C     0.57019   0.69633   0.33577   0.00000  Uiso   1.00
C839   C     0.51111   0.95944   0.14307   0.00000  Uiso   1.00
C840   C     0.35594   0.79492   0.26614   0.00000  Uiso   1.00
C841   C     0.64438   0.87276   0.23483   0.00000  Uiso   1.00
C842   C     0.64797   0.79105   0.25450   0.00000  Uiso   1.00
C843   C     0.35291   0.87583   0.24299   0.00000  Uiso   1.00
C844   C     0.62446   0.83139   0.24366   0.00000  Uiso   1.00
Cu845  Cu    0.50000   0.88022   0.25000   0.00000  Uiso   1.00
Cu846  Cu    0.50000   0.78645   0.25000   0.00000  Uiso   1.00
H847   H     0.60229   0.86470   0.40699   0.00000  Uiso   1.00
H848   H     0.41203   0.97778   0.47925   0.00000  Uiso   1.00
H849   H     0.40587   0.97155   0.42033   0.00000  Uiso   1.00
H850   H     0.61170   0.85781   0.07470   0.00000  Uiso   1.00
H851   H     0.63561   0.85266   0.02026   0.00000  Uiso   1.00
H852   H     0.65873   0.82493   0.06761   0.00000  Uiso   1.00
H853   H     0.39459   0.97006   0.08795   0.00000  Uiso   1.00
H854   H     0.66365   0.76737   0.43991   0.00000  Uiso   1.00
H855   H     0.40148   0.69289   0.29406   0.00000  Uiso   1.00
H856   H     0.58727   0.97009   0.22794   0.00000  Uiso   1.00
H857   H     0.60360   0.70340   0.20188   0.00000  Uiso   1.00
H858   H     0.57390   0.87770   0.35611   0.00000  Uiso   1.00
H859   H     0.37748   0.97978   0.20591   0.00000  Uiso   1.00
H860   H     0.41189   0.72325   0.19754   0.00000  Uiso   1.00
H861   H     0.42358   0.67556   0.15873   0.00000  Uiso   1.00
H862   H     0.42166   0.73328   0.14021   0.00000  Uiso   1.00
H863   H     0.46123   0.95327   0.34451   0.00000  Uiso   1.00
H864   H     0.49175   0.99795   0.36940   0.00000  Uiso   1.00
H865   H     0.49895   0.93934   0.38631   0.00000  Uiso   1.00
H866   H     0.58512   0.67115   0.31231   0.00000  Uiso   1.00
H867   H     0.56569   0.67933   0.36814   0.00000  Uiso   1.00
H868   H     0.59143   0.72470   0.34175   0.00000  Uiso   1.00
H869   H     0.61924   0.84119   0.35454   0.00000  Uiso   1.00
H870   H     0.54131   0.94862   0.15737   0.00000  Uiso   1.00
H871   H     0.51202   0.99538   0.13096   0.00000  Uiso   1.00
H872   H     0.50588   0.93735   0.11349   0.00000  Uiso   1.00
H873   H     0.37806   0.85471   0.13856   0.00000  Uiso   1.00
H874   H     0.41860   0.81409   0.15168   0.00000  Uiso   1.00
H875   H     0.39974   0.81951   0.09468   0.00000  Uiso   1.00
H876   H     0.36315   0.84235   0.38434   0.00000  Uiso   1.00
H877   H     0.59392   0.72274   0.12239   0.00000  Uiso   1.00
H878   H     0.45462   0.95754   0.44506   0.00000  Uiso   1.00
N879   N     0.50000   0.95069   0.25000   0.00000  Uiso   1.00
N880   N     0.50000   0.71598   0.25000   0.00000  Uiso   1.00
O881   O     0.43988   0.87291   0.24999   0.00000  Uiso   1.00
O882   O     0.43514   0.87344   0.11919   0.00000  Uiso   1.00
O883   O     0.41979   0.87748   0.34942   0.00000  Uiso   1.00
O884   O     0.38892   0.83619   0.40251   0.00000  Uiso   1.00
O885   O     0.58604   0.80263   0.14582   0.00000  Uiso   1.00
O886   O     0.57045   0.73847   0.10572   0.00000  Uiso   1.00
O887   O     0.40722   0.91081   0.45504   0.00000  Uiso   1.00
O888   O     0.60804   0.79334   0.04308   0.00000  Uiso   1.00
O889   O     0.36984   0.91033   0.03994   0.00000  Uiso   1.00
O890   O     0.41859   0.95162   0.07475   0.00000  Uiso   1.00
O891   O     0.59586   0.73868   0.43343   0.00000  Uiso   1.00
O892   O     0.56012   0.79375   0.25001   0.00000  Uiso   1.00
O893   O     0.64361   0.78883   0.45636   0.00000  Uiso   1.00
O894   O     0.39059   0.76671   0.32918   0.00000  Uiso   1.00
O895   O     0.38482   0.71391   0.27360   0.00000  Uiso   1.00
O896   O     0.61333   0.91279   0.17575   0.00000  Uiso   1.00
O897   O     0.60842   0.94924   0.24302   0.00000  Uiso   1.00
O898   O     0.63732   0.71349   0.27240   0.00000  Uiso   1.00
O899   O     0.61213   0.73632   0.20555   0.00000  Uiso   1.00
O900   O     0.38560   0.93911   0.27434   0.00000  Uiso   1.00
O901   O     0.36864   0.94699   0.20143   0.00000  Uiso   1.00
O902   O     0.47261   0.71600   0.17698   0.00000  Uiso   1.00
O903   O     0.56012   0.87291   0.25000   0.00000  Uiso   1.00
O904   O     0.52280   0.95252   0.32520   0.00000  Uiso   1.00
O905   O     0.53251   0.71577   0.32048   0.00000  Uiso   1.00
O906   O     0.47899   0.95364   0.17367   0.00000  Uiso   1.00
O907   O     0.43988   0.79375   0.24999   0.00000  Uiso   1.00
O908   O     0.49999   0.87293   0.18513   0.00000  Uiso   1.00
O909   O     0.50001   0.79373   0.31487   0.00000  Uiso   1.00
O910   O     0.50001   0.87293   0.31487   0.00000  Uiso   1.00
O911   O     0.49999   0.79373   0.18513   0.00000  Uiso   1.00
O912   O     0.56898   0.81065   0.38020   0.00000  Uiso   1.00
C913   C     0.75422   0.83424   0.25284   0.00000  Uiso   1.00
C914   C     0.70928   0.83594   0.25612   0.00000  Uiso   1.00
C915   C     0.81819   0.69197   0.21450   0.00000  Uiso   1.00
C916   C     0.84546   0.97546   0.28678   0.00000  Uiso   1.00
C917   C     0.84934   0.69139   0.28514   0.00000  Uiso   1.00
C918   C     0.82164   0.97589   0.21299   0.00000  Uiso   1.00
C919   C     0.83351   0.83317   0.16469   0.00000  Uiso   1.00
C920   C     0.83182   0.83368   0.33522   0.00000  Uiso   1.00
C921   C     0.86802   0.82217   0.40543   0.00000  Uiso   1.00
C922   C     0.80105   0.85568   0.09426   0.00000  Uiso   1.00
C923   C     0.83169   0.83495   0.38348   0.00000  Uiso   1.00
C924   C     0.91258   0.83252   0.24712   0.00000  Uiso   1.00
C925   C     0.83384   0.83339   0.11631   0.00000  Uiso   1.00
C926   C     0.79685   0.85093   0.40709   0.00000  Uiso   1.00
C927   C     0.86728   0.81389   0.09289   0.00000  Uiso   1.00
C928   C     0.79998   0.85780   0.45358   0.00000  Uiso   1.00
C929   C     0.86939   0.81930   0.04634   0.00000  Uiso   1.00
C930   C     0.83488   0.83951   0.47646   0.00000  Uiso   1.00
C931   C     0.83543   0.83987   0.02347   0.00000  Uiso   1.00
C932   C     0.86875   0.82000   0.45231   0.00000  Uiso   1.00
C933   C     0.80203   0.86063   0.04754   0.00000  Uiso   1.00
C934   C     0.77003   0.88433   0.47747   0.00000  Uiso   1.00
C935   C     0.77076   0.88561   0.02411   0.00000  Uiso   1.00
C936   C     0.90479   0.80506   0.02199   0.00000  Uiso   1.00
C937   C     0.92505   0.85061   0.37454   0.00000  Uiso   1.00
C938   C     0.74037   0.83845   0.12597   0.00000  Uiso   1.00
C939   C     0.75654   0.85596   0.38399   0.00000  Uiso   1.00
C940   C     0.89825   0.78518   0.11706   0.00000  Uiso   1.00
C941   C     0.75433   0.95611   0.45001   0.00000  Uiso   1.00
C942   C     0.96237   0.83425   0.05155   0.00000  Uiso   1.00
C943   C     0.73954   0.91581   0.04683   0.00000  Uiso   1.00
C944   C     0.93675   0.77427   0.45350   0.00000  Uiso   1.00
C945   C     0.71091   0.75784   0.29204   0.00000  Uiso   1.00
C946   C     0.90314   0.80136   0.47568   0.00000  Uiso   1.00
C947   C     0.95506   0.91283   0.21537   0.00000  Uiso   1.00
C948   C     0.96521   0.74465   0.24587   0.00000  Uiso   1.00
C949   C     0.70416   0.92206   0.24086   0.00000  Uiso   1.00
C950   C     0.76391   0.71126   0.16878   0.00000  Uiso   1.00
C951   C     0.82543   0.96161   0.35733   0.00000  Uiso   1.00
C952   C     0.90352   0.69633   0.33577   0.00000  Uiso   1.00
C953   C     0.84445   0.95944   0.14307   0.00000  Uiso   1.00
C954   C     0.68928   0.79492   0.26614   0.00000  Uiso   1.00
C955   C     0.97771   0.87276   0.23483   0.00000  Uiso   1.00
C956   C     0.98131   0.79105   0.25450   0.00000  Uiso   1.00
C957   C     0.68624   0.87583   0.24299   0.00000  Uiso   1.00
C958   C     0.95780   0.83139   0.24366   0.00000  Uiso   1.00
Cu959  Cu    0.83333   0.88022   0.25000   0.00000  Uiso   1.00
Cu960  Cu    0.83333   0.78645   0.25000   0.00000  Uiso   1.00
H961   H     0.93562   0.86470   0.40699   0.00000  Uiso   1.00
H962   H     0.74537   0.97778   0.47925   0.00000  Uiso   1.00
H963   H     0.73920   0.97155   0.42033   0.00000  Uiso   1.00
H964   H     0.94503   0.85781   0.07470   0.00000  Uiso   1.00
H965   H     0.96894   0.85266   0.02026   0.00000  Uiso   1.00
H966   H     0.99206   0.82493   0.06761   0.00000  Uiso   1.00
H967   H     0.72792   0.97006   0.08795   0.00000  Uiso   1.00
H968   H     0.99698   0.76737   0.43991   0.00000  Uiso   1.00
H969   H     0.73481   0.69289   0.29406   0.00000  Uiso   1.00
H970   H     0.92060   0.97009   0.22794   0.00000  Uiso   1.00
H971   H     0.93693   0.70340   0.20188   0.00000  Uiso   1.00
H972   H     0.90723   0.87770   0.35611   0.00000  Uiso   1.00
H973   H     0.71081   0.97978   0.20591   0.00000  Uiso   1.00
H974   H     0.74522   0.72325   0.19754   0.00000  Uiso   1.00
H975   H     0.75692   0.67556   0.15873   0.00000  Uiso   1.00
H976   H     0.75500   0.73328   0.14021   0.00000  Uiso   1.00
H977   H     0.79456   0.95327   0.34451   0.00000  Uiso   1.00
H978   H     0.82508   0.99795   0.36940   0.00000  Uiso   1.00
H979   H     0.83228   0.93934   0.38631   0.00000  Uiso   1.00
H980   H     0.91846   0.67115   0.31231   0.00000  Uiso   1.00
H981   H     0.89902   0.67933   0.36814   0.00000  Uiso   1.00
H982   H     0.92476   0.72470   0.34175   0.00000  Uiso   1.00
H983   H     0.95257   0.84119   0.35454   0.00000  Uiso   1.00
H984   H     0.87464   0.94862   0.15737   0.00000  Uiso   1.00
H985   H     0.84536   0.99538   0.13096   0.00000  Uiso   1.00
H986   H     0.83921   0.93735   0.11349   0.00000  Uiso   1.00
H987   H     0.71139   0.85471   0.13856   0.00000  Uiso   1.00
H988   H     0.75194   0.81409   0.15168   0.00000  Uiso   1.00
H989   H     0.73308   0.81951   0.09468   0.00000  Uiso   1.00
H990   H     0.69648   0.84235   0.38434   0.00000  Uiso   1.00
H991   H     0.92725   0.72274   0.12239   0.00000  Uiso   1.00
H992   H     0.78796   0.95754   0.44506   0.00000  Uiso   1.00
N993   N     0.83333   0.95069   0.25000   0.00000  Uiso   1.00
N994   N     0.83333   0.71598   0.25000   0.00000  Uiso   1.00
O995   O     0.77321   0.87291   0.24999   0.00000  Uiso   1.00
O996   O     0.76847   0.87344   0.11919   0.00000  Uiso   1.00
O997   O     0.75312   0.87748   0.34942   0.00000  Uiso   1.00
O998   O     0.72226   0.83619   0.40251   0.00000  Uiso   1.00
O999   O     0.91938   0.80263   0.14582   0.00000  Uiso   1.00
O1000  O     0.90378   0.73847   0.10572   0.00000  Uiso   1.00
O1001  O     0.74055   0.91081   0.45504   0.00000  Uiso   1.00
O1002  O     0.94137   0.79334   0.04308   0.00000  Uiso   1.00
O1003  O     0.70317   0.91033   0.03994   0.00000  Uiso   1.00
O1004  O     0.75193   0.95162   0.07475   0.00000  Uiso   1.00
O1005  O     0.92920   0.73868   0.43343   0.00000  Uiso   1.00
O1006  O     0.89345   0.79375   0.25001   0.00000  Uiso   1.00
O1007  O     0.97695   0.78883   0.45636   0.00000  Uiso   1.00
O1008  O     0.72393   0.76671   0.32918   0.00000  Uiso   1.00
O1009  O     0.71816   0.71391   0.27360   0.00000  Uiso   1.00
O1010  O     0.94666   0.91279   0.17575   0.00000  Uiso   1.00
O1011  O     0.94176   0.94924   0.24302   0.00000  Uiso   1.00
O1012  O     0.97065   0.71349   0.27240   0.00000  Uiso   1.00
O1013  O     0.94547   0.73632   0.20555   0.00000  Uiso   1.00
O1014  O     0.71893   0.93911   0.27434   0.00000  Uiso   1.00
O1015  O     0.70197   0.94699   0.20143   0.00000  Uiso   1.00
O1016  O     0.80595   0.71600   0.17698   0.00000  Uiso   1.00
O1017  O     0.89345   0.87291   0.25000   0.00000  Uiso   1.00
O1018  O     0.85613   0.95252   0.32520   0.00000  Uiso   1.00
O1019  O     0.86584   0.71577   0.32048   0.00000  Uiso   1.00
O1020  O     0.81233   0.95364   0.17367   0.00000  Uiso   1.00
O1021  O     0.77321   0.79375   0.24999   0.00000  Uiso   1.00
O1022  O     0.83332   0.87293   0.18513   0.00000  Uiso   1.00
O1023  O     0.83334   0.79373   0.31487   0.00000  Uiso   1.00
O1024  O     0.83334   0.87293   0.31487   0.00000  Uiso   1.00
O1025  O     0.83332   0.79373   0.18513   0.00000  Uiso   1.00
O1026  O     0.90231   0.81065   0.38020   0.00000  Uiso   1.00
C1027  C     0.08756   0.16757   0.75284   0.00000  Uiso   1.00
C1028  C     0.04261   0.16927   0.75612   0.00000  Uiso   1.00
C1029  C     0.15153   0.02530   0.71450   0.00000  Uiso   1.00
C1030  C     0.17879   0.30880   0.78678   0.00000  Uiso   1.00
C1031  C     0.18267   0.02472   0.78514   0.00000  Uiso   1.00
C1032  C     0.15498   0.30923   0.71299   0.00000  Uiso   1.00
C1033  C     0.16685   0.16650   0.66469   0.00000  Uiso   1.00
C1034  C     0.16515   0.16702   0.83522   0.00000  Uiso   1.00
C1035  C     0.20135   0.15551   0.90543   0.00000  Uiso   1.00
C1036  C     0.13438   0.18901   0.59426   0.00000  Uiso   1.00
C1037  C     0.16502   0.16828   0.88348   0.00000  Uiso   1.00
C1038  C     0.24592   0.16585   0.74712   0.00000  Uiso   1.00
C1039  C     0.16717   0.16672   0.61631   0.00000  Uiso   1.00
C1040  C     0.13018   0.18427   0.90709   0.00000  Uiso   1.00
C1041  C     0.20061   0.14723   0.59289   0.00000  Uiso   1.00
C1042  C     0.13331   0.19114   0.95358   0.00000  Uiso   1.00
C1043  C     0.20273   0.15264   0.54634   0.00000  Uiso   1.00
C1044  C     0.16821   0.17284   0.97646   0.00000  Uiso   1.00
C1045  C     0.16877   0.17320   0.52347   0.00000  Uiso   1.00
C1046  C     0.20209   0.15334   0.95231   0.00000  Uiso   1.00
C1047  C     0.13537   0.19396   0.54754   0.00000  Uiso   1.00
C1048  C     0.10336   0.21767   0.97747   0.00000  Uiso   1.00
C1049  C     0.10409   0.21894   0.52411   0.00000  Uiso   1.00
C1050  C     0.23812   0.13839   0.52199   0.00000  Uiso   1.00
C1051  C     0.25838   0.18395   0.87454   0.00000  Uiso   1.00
C1052  C     0.07370   0.17179   0.62597   0.00000  Uiso   1.00
C1053  C     0.08988   0.18929   0.88399   0.00000  Uiso   1.00
C1054  C     0.23159   0.11852   0.61706   0.00000  Uiso   1.00
C1055  C     0.08766   0.28944   0.95001   0.00000  Uiso   1.00
C1056  C     0.29570   0.16758   0.55155   0.00000  Uiso   1.00
C1057  C     0.07288   0.24915   0.54683   0.00000  Uiso   1.00
C1058  C     0.27008   0.10761   0.95350   0.00000  Uiso   1.00
C1059  C     0.04425   0.09118   0.79204   0.00000  Uiso   1.00
C1060  C     0.23648   0.13469   0.97568   0.00000  Uiso   1.00
C1061  C     0.28839   0.24616   0.71537   0.00000  Uiso   1.00
C1062  C     0.29855   0.07799   0.74587   0.00000  Uiso   1.00
C1063  C     0.03749   0.25539   0.74086   0.00000  Uiso   1.00
C1064  C     0.09725   0.04459   0.66878   0.00000  Uiso   1.00
C1065  C     0.15876   0.29494   0.85733   0.00000  Uiso   1.00
C1066  C     0.23685   0.02967   0.83577   0.00000  Uiso   1.00
C1067  C     0.17778   0.29277   0.64307   0.00000  Uiso   1.00
C1068  C     0.02261   0.12826   0.76614   0.00000  Uiso   1.00
C1069  C     0.31105   0.20610   0.73483   0.00000  Uiso   1.00
C1070  C     0.31464   0.12439   0.75450   0.00000  Uiso   1.00
C1071  C     0.01957   0.20916   0.74299   0.00000  Uiso   1.00
C1072  C     0.29113   0.16472   0.74366   0.00000  Uiso   1.00
Cu1073 Cu    0.16667   0.21355   0.75000   0.00000  Uiso   1.00
Cu1074 Cu    0.16667   0.11978   0.75000   0.00000  Uiso   1.00
H1075  H     0.26896   0.19803   0.90699   0.00000  Uiso   1.00
H1076  H     0.07870   0.31111   0.97925   0.00000  Uiso   1.00
H1077  H     0.07253   0.30488   0.92033   0.00000  Uiso   1.00
H1078  H     0.27836   0.19114   0.57470   0.00000  Uiso   1.00
H1079  H     0.30228   0.18600   0.52026   0.00000  Uiso   1.00
H1080  H     0.32539   0.15827   0.56761   0.00000  Uiso   1.00
H1081  H     0.06125   0.30339   0.58795   0.00000  Uiso   1.00
H1082  H     0.33032   0.10070   0.93991   0.00000  Uiso   1.00
H1083  H     0.06815   0.02622   0.79406   0.00000  Uiso   1.00
H1084  H     0.25393   0.30342   0.72794   0.00000  Uiso   1.00
H1085  H     0.27026   0.03673   0.70188   0.00000  Uiso   1.00
H1086  H     0.24057   0.21103   0.85611   0.00000  Uiso   1.00
H1087  H     0.04415   0.31311   0.70591   0.00000  Uiso   1.00
H1088  H     0.07855   0.05658   0.69754   0.00000  Uiso   1.00
H1089  H     0.09025   0.00890   0.65873   0.00000  Uiso   1.00
H1090  H     0.08833   0.06662   0.64021   0.00000  Uiso   1.00
H1091  H     0.12790   0.28661   0.84451   0.00000  Uiso   1.00
H1092  H     0.15841   0.33128   0.86940   0.00000  Uiso   1.00
H1093  H     0.16561   0.27267   0.88631   0.00000  Uiso   1.00
H1094  H     0.25179   0.00448   0.81231   0.00000  Uiso   1.00
H1095  H     0.23235   0.01266   0.86814   0.00000  Uiso   1.00
H1096  H     0.25810   0.05803   0.84175   0.00000  Uiso   1.00
H1097  H     0.28590   0.17452   0.85454   0.00000  Uiso   1.00
H1098  H     0.20798   0.28195   0.65737   0.00000  Uiso   1.00
H1099  H     0.17869   0.32872   0.63096   0.00000  Uiso   1.00
H1100  H     0.17255   0.27069   0.61349   0.00000  Uiso   1.00
H1101  H     0.04472   0.18805   0.63856   0.00000  Uiso   1.00
H1102  H     0.08527   0.14743   0.65168   0.00000  Uiso   1.00
H1103  H     0.06641   0.15284   0.59468   0.00000  Uiso   1.00
H1104  H     0.02982   0.17568   0.88434   0.00000  Uiso   1.00
H1105  H     0.26059   0.05608   0.62239   0.00000  Uiso   1.00
H1106  H     0.12129   0.29087   0.94506   0.00000  Uiso   1.00
N1107  N     0.16667   0.28402   0.75000   0.00000  Uiso   1.00
N1108  N     0.16667   0.04931   0.75000   0.00000  Uiso   1.00
O1109  O     0.10655   0.20625   0.74999   0.00000  Uiso   1.00
O1110  O     0.10180   0.20678   0.61919   0.00000  Uiso   1.00
O1111  O     0.08646   0.21081   0.84942   0.00000  Uiso   1.00
O1112  O     0.05559   0.16952   0.90251   0.00000  Uiso   1.00
O1113  O     0.25271   0.13596   0.64582   0.00000  Uiso   1.00
O1114  O     0.23711   0.07180   0.60572   0.00000  Uiso   1.00
O1115  O     0.07389   0.24414   0.95504   0.00000  Uiso   1.00
O1116  O     0.27470   0.12667   0.54308   0.00000  Uiso   1.00
O1117  O     0.03650   0.24367   0.53994   0.00000  Uiso   1.00
O1118  O     0.08526   0.28495   0.57475   0.00000  Uiso   1.00
O1119  O     0.26253   0.07202   0.93343   0.00000  Uiso   1.00
O1120  O     0.22679   0.12709   0.75001   0.00000  Uiso   1.00
O1121  O     0.31028   0.12217   0.95636   0.00000  Uiso   1.00
O1122  O     0.05726   0.10005   0.82918   0.00000  Uiso   1.00
O1123  O     0.05149   0.04724   0.77360   0.00000  Uiso   1.00
O1124  O     0.27999   0.24612   0.67575   0.00000  Uiso   1.00
O1125  O     0.27509   0.28257   0.74302   0.00000  Uiso   1.00
O1126  O     0.30398   0.04682   0.77240   0.00000  Uiso   1.00
O1127  O     0.27880   0.06965   0.70555   0.00000  Uiso   1.00
O1128  O     0.05226   0.27245   0.77434   0.00000  Uiso   1.00
O1129  O     0.03530   0.28032   0.70143   0.00000  Uiso   1.00
O1130  O     0.13928   0.04933   0.67698   0.00000  Uiso   1.00
O1131  O     0.22679   0.20625   0.75000   0.00000  Uiso   1.00
O1132  O     0.18946   0.28585   0.82520   0.00000  Uiso   1.00
O1133  O     0.19918   0.04910   0.82048   0.00000  Uiso   1.00
O1134  O     0.14566   0.28698   0.67367   0.00000  Uiso   1.00
O1135  O     0.10655   0.12709   0.74999   0.00000  Uiso   1.00
O1136  O     0.16666   0.20627   0.68513   0.00000  Uiso   1.00
O1137  O     0.16668   0.12707   0.81487   0.00000  Uiso   1.00
O1138  O     0.16668   0.20627   0.81487   0.00000  Uiso   1.00
O1139  O     0.16666   0.12707   0.68513   0.00000  Uiso   1.00
O1140  O     0.23564   0.14398   0.88020   0.00000  Uiso   1.00
C1141  C     0.42089   0.16757   0.75284   0.00000  Uiso   1.00
C1142  C     0.37595   0.16927   0.75612   0.00000  Uiso   1.00
C1143  C     0.48486   0.02530   0.71450   0.00000  Uiso   1.00
C1144  C     0.51212   0.30880   0.78678   0.00000  Uiso   1.00
C1145  C     0.51600   0.02472   0.78514   0.00000  Uiso   1.00
C1146  C     0.48831   0.30923   0.71299   0.00000  Uiso   1.00
C1147  C     0.50018   0.16650   0.66469   0.00000  Uiso   1.00
C1148  C     0.49848   0.16702   0.83522   0.00000  Uiso   1.00
C1149  C     0.53469   0.15551   0.90543   0.00000  Uiso   1.00
C1150  C     0.46771   0.18901   0.59426   0.00000  Uiso   1.00
C1151  C     0.49836   0.16828   0.88348   0.00000  Uiso   1.00
C1152  C     0.57925   0.16585   0.74712   0.00000  Uiso   1.00
C1153  C     0.50050   0.16672   0.61631   0.00000  Uiso   1.00
C1154  C     0.46351   0.18427   0.90709   0.00000  Uiso   1.00
C1155  C     0.53394   0.14723   0.59289   0.00000  Uiso   1.00
C1156  C     0.46665   0.19114   0.95358   0.00000  Uiso   1.00
C1157  C     0.53606   0.15264   0.54634   0.00000  Uiso   1.00
C1158  C     0.50154   0.17284   0.97646   0.00000  Uiso   1.00
C1159  C     0.50210   0.17320   0.52347   0.00000  Uiso   1.00
C1160  C     0.53542   0.15334   0.95231   0.00000  Uiso   1.00
C1161  C     0.46870   0.19396   0.54754   0.00000  Uiso   1.00
C1162  C     0.43670   0.21767   0.97747   0.00000  Uiso   1.00
C1163  C     0.43742   0.21894   0.52411   0.00000  Uiso   1.00
C1164  C     0.57146   0.13839   0.52199   0.00000  Uiso   1.00
C1165  C     0.59171   0.18395   0.87454   0.00000  Uiso   1.00
C1166  C     0.40704   0.17179   0.62597   0.00000  Uiso   1.00
C1167  C     0.42321   0.18929   0.88399   0.00000  Uiso   1.00
C1168  C     0.56492   0.11852   0.61706   0.00000  Uiso   1.00
C1169  C     0.42099   0.28944   0.95001   0.00000  Uiso   1.00
C1170  C     0.62903   0.16758   0.55155   0.00000  Uiso   1.00
C1171  C     0.40621   0.24915   0.54683   0.00000  Uiso   1.00
C1172  C     0.60342   0.10761   0.95350   0.00000  Uiso   1.00
C1173  C     0.37758   0.09118   0.79204   0.00000  Uiso   1.00
C1174  C     0.56981   0.13469   0.97568   0.00000  Uiso   1.00
C1175  C     0.62172   0.24616   0.71537   0.00000  Uiso   1.00
C1176  C     0.63188   0.07799   0.74587   0.00000  Uiso   1.00
C1177  C     0.37083   0.25539   0.74086   0.00000  Uiso   1.00
C1178  C     0.43058   0.04459   0.66878   0.00000  Uiso   1.00
C1179  C     0.49210   0.29494   0.85733   0.00000  Uiso   1.00
C1180  C     0.57019   0.02967   0.83577   0.00000  Uiso   1.00
C1181  C     0.51111   0.29277   0.64307   0.00000  Uiso   1.00
C1182  C     0.35594   0.12826   0.76614   0.00000  Uiso   1.00
C1183  C     0.64438   0.20610   0.73483   0.00000  Uiso   1.00
C1184  C     0.64797   0.12439   0.75450   0.00000  Uiso   1.00
C1185  C     0.35291   0.20916   0.74299   0.00000  Uiso   1.00
C1186  C     0.62446   0.16472   0.74366   0.00000  Uiso   1.00
Cu1187 Cu    0.50000   0.21355   0.75000   0.00000  Uiso   1.00
Cu1188 Cu    0.50000   0.11978   0.75000   0.00000  Uiso   1.00
H1189  H     0.60229   0.19803   0.90699   0.00000  Uiso   1.00
H1190  H     0.41203   0.31111   0.97925   0.00000  Uiso   1.00
H1191  H     0.40587   0.30488   0.92033   0.00000  Uiso   1.00
H1192  H     0.61170   0.19114   0.57470   0.00000  Uiso   1.00
H1193  H     0.63561   0.18600   0.52026   0.00000  Uiso   1.00
H1194  H     0.65873   0.15827   0.56761   0.00000  Uiso   1.00
H1195  H     0.39459   0.30339   0.58795   0.00000  Uiso   1.00
H1196  H     0.66365   0.10070   0.93991   0.00000  Uiso   1.00
H1197  H     0.40148   0.02622   0.79406   0.00000  Uiso   1.00
H1198  H     0.58727   0.30342   0.72794   0.00000  Uiso   1.00
H1199  H     0.60360   0.03673   0.70188   0.00000  Uiso   1.00
H1200  H     0.57390   0.21103   0.85611   0.00000  Uiso   1.00
H1201  H     0.37748   0.31311   0.70591   0.00000  Uiso   1.00
H1202  H     0.41189   0.05658   0.69754   0.00000  Uiso   1.00
H1203  H     0.42358   0.00890   0.65873   0.00000  Uiso   1.00
H1204  H     0.42166   0.06662   0.64021   0.00000  Uiso   1.00
H1205  H     0.46123   0.28661   0.84451   0.00000  Uiso   1.00
H1206  H     0.49175   0.33128   0.86940   0.00000  Uiso   1.00
H1207  H     0.49895   0.27267   0.88631   0.00000  Uiso   1.00
H1208  H     0.58512   0.00448   0.81231   0.00000  Uiso   1.00
H1209  H     0.56569   0.01266   0.86814   0.00000  Uiso   1.00
H1210  H     0.59143   0.05803   0.84175   0.00000  Uiso   1.00
H1211  H     0.61924   0.17452   0.85454   0.00000  Uiso   1.00
H1212  H     0.54131   0.28195   0.65737   0.00000  Uiso   1.00
H1213  H     0.51202   0.32872   0.63096   0.00000  Uiso   1.00
H1214  H     0.50588   0.27069   0.61349   0.00000  Uiso   1.00
H1215  H     0.37806   0.18805   0.63856   0.00000  Uiso   1.00
H1216  H     0.41860   0.14743   0.65168   0.00000  Uiso   1.00
H1217  H     0.39974   0.15284   0.59468   0.00000  Uiso   1.00
H1218  H     0.36315   0.17568   0.88434   0.00000  Uiso   1.00
H1219  H     0.59392   0.05608   0.62239   0.00000  Uiso   1.00
H1220  H     0.45462   0.29087   0.94506   0.00000  Uiso   1.00
N1221  N     0.50000   0.28402   0.75000   0.00000  Uiso   1.00
N1222  N     0.50000   0.04931   0.75000   0.00000  Uiso   1.00
O1223  O     0.43988   0.20625   0.74999   0.00000  Uiso   1.00
O1224  O     0.43514   0.20678   0.61919   0.00000  Uiso   1.00
O1225  O     0.41979   0.21081   0.84942   0.00000  Uiso   1.00
O1226  O     0.38892   0.16952   0.90251   0.00000  Uiso   1.00
O1227  O     0.58604   0.13596   0.64582   0.00000  Uiso   1.00
O1228  O     0.57045   0.07180   0.60572   0.00000  Uiso   1.00
O1229  O     0.40722   0.24414   0.95504   0.00000  Uiso   1.00
O1230  O     0.60804   0.12667   0.54308   0.00000  Uiso   1.00
O1231  O     0.36984   0.24367   0.53994   0.00000  Uiso   1.00
O1232  O     0.41859   0.28495   0.57475   0.00000  Uiso   1.00
O1233  O     0.59586   0.07202   0.93343   0.00000  Uiso   1.00
O1234  O     0.56012   0.12709   0.75001   0.00000  Uiso   1.00
O1235  O     0.64361   0.12217   0.95636   0.00000  Uiso   1.00
O1236  O     0.39059   0.10005   0.82918   0.00000  Uiso   1.00
O1237  O     0.38482   0.04724   0.77360   0.00000  Uiso   1.00
O1238  O     0.61333   0.24612   0.67575   0.00000  Uiso   1.00
O1239  O     0.60842   0.28257   0.74302   0.00000  Uiso   1.00
O1240  O     0.63732   0.04682   0.77240   0.00000  Uiso   1.00
O1241  O     0.61213   0.06965   0.70555   0.00000  Uiso   1.00
O1242  O     0.38560   0.27245   0.77434   0.00000  Uiso   1.00
O1243  O     0.36864   0.28032   0.70143   0.00000  Uiso   1.00
O1244  O     0.47261   0.04933   0.67698   0.00000  Uiso   1.00
O1245  O     0.56012   0.20625   0.75000   0.00000  Uiso   1.00
O1246  O     0.52280   0.28585   0.82520   0.00000  Uiso   1.00
O1247  O     0.53251   0.04910   0.82048   0.00000  Uiso   1.00
O1248  O     0.47899   0.28698   0.67367   0.00000  Uiso   1.00
O1249  O     0.43988   0.12709   0.74999   0.00000  Uiso   1.00
O1250  O     0.49999   0.20627   0.68513   0.00000  Uiso   1.00
O1251  O     0.50001   0.12707   0.81487   0.00000  Uiso   1.00
O1252  O     0.50001   0.20627   0.81487   0.00000  Uiso   1.00
O1253  O     0.49999   0.12707   0.68513   0.00000  Uiso   1.00
O1254  O     0.56898   0.14398   0.88020   0.00000  Uiso   1.00
C1255  C     0.75422   0.16757   0.75284   0.00000  Uiso   1.00
C1256  C     0.70928   0.16927   0.75612   0.00000  Uiso   1.00
C1257  C     0.81819   0.02530   0.71450   0.00000  Uiso   1.00
C1258  C     0.84546   0.30880   0.78678   0.00000  Uiso   1.00
C1259  C     0.84934   0.02472   0.78514   0.00000  Uiso   1.00
C1260  C     0.82164   0.30923   0.71299   0.00000  Uiso   1.00
C1261  C     0.83351   0.16650   0.66469   0.00000  Uiso   1.00
C1262  C     0.83182   0.16702   0.83522   0.00000  Uiso   1.00
C1263  C     0.86802   0.15551   0.90543   0.00000  Uiso   1.00
C1264  C     0.80105   0.18901   0.59426   0.00000  Uiso   1.00
C1265  C     0.83169   0.16828   0.88348   0.00000  Uiso   1.00
C1266  C     0.91258   0.16585   0.74712   0.00000  Uiso   1.00
C1267  C     0.83384   0.16672   0.61631   0.00000  Uiso   1.00
C1268  C     0.79685   0.18427   0.90709   0.00000  Uiso   1.00
C1269  C     0.86728   0.14723   0.59289   0.00000  Uiso   1.00
C1270  C     0.79998   0.19114   0.95358   0.00000  Uiso   1.00
C1271  C     0.86939   0.15264   0.54634   0.00000  Uiso   1.00
C1272  C     0.83488   0.17284   0.97646   0.00000  Uiso   1.00
C1273  C     0.83543   0.17320   0.52347   0.00000  Uiso   1.00
C1274  C     0.86875   0.15334   0.95231   0.00000  Uiso   1.00
C1275  C     0.80203   0.19396   0.54754   0.00000  Uiso   1.00
C1276  C     0.77003   0.21767   0.97747   0.00000  Uiso   1.00
C1277  C     0.77076   0.21894   0.52411   0.00000  Uiso   1.00
C1278  C     0.90479   0.13839   0.52199   0.00000  Uiso   1.00
C1279  C     0.92505   0.18395   0.87454   0.00000  Uiso   1.00
C1280  C     0.74037   0.17179   0.62597   0.00000  Uiso   1.00
C1281  C     0.75654   0.18929   0.88399   0.00000  Uiso   1.00
C1282  C     0.89825   0.11852   0.61706   0.00000  Uiso   1.00
C1283  C     0.75433   0.28944   0.95001   0.00000  Uiso   1.00
C1284  C     0.96237   0.16758   0.55155   0.00000  Uiso   1.00
C1285  C     0.73954   0.24915   0.54683   0.00000  Uiso   1.00
C1286  C     0.93675   0.10761   0.95350   0.00000  Uiso   1.00
C1287  C     0.71091   0.09118   0.79204   0.00000  Uiso   1.00
C1288  C     0.90314   0.13469   0.97568   0.00000  Uiso   1.00
C1289  C     0.95506   0.24616   0.71537   0.00000  Uiso   1.00
C1290  C     0.96521   0.07799   0.74587   0.00000  Uiso   1.00
C1291  C     0.70416   0.25539   0.74086   0.00000  Uiso   1.00
C1292  C     0.76391   0.04459   0.66878   0.00000  Uiso   1.00
C1293  C     0.82543   0.29494   0.85733   0.00000  Uiso   1.00
C1294  C     0.90352   0.02967   0.83577   0.00000  Uiso   1.00
C1295  C     0.84445   0.29277   0.64307   0.00000  Uiso   1.00
C1296  C     0.68928   0.12826   0.76614   0.00000  Uiso   1.00
C1297  C     0.97771   0.20610   0.73483   0.00000  Uiso   1.00
C1298  C     0.98131   0.12439   0.75450   0.00000  Uiso   1.00
C1299  C     0.68624   0.20916   0.74299   0.00000  Uiso   1.00
C1300  C     0.95780   0.16472   0.74366   0.00000  Uiso   1.00
Cu1301 Cu    0.83333   0.21355   0.75000   0.00000  Uiso   1.00
Cu1302 Cu    0.83333   0.11978   0.75000   0.00000  Uiso   1.00
H1303  H     0.93562   0.19803   0.90699   0.00000  Uiso   1.00
H1304  H     0.74537   0.31111   0.97925   0.00000  Uiso   1.00
H1305  H     0.73920   0.30488   0.92033   0.00000  Uiso   1.00
H1306  H     0.94503   0.19114   0.57470   0.00000  Uiso   1.00
H1307  H     0.96894   0.18600   0.52026   0.00000  Uiso   1.00
H1308  H     0.99206   0.15827   0.56761   0.00000  Uiso   1.00
H1309  H     0.72792   0.30339   0.58795   0.00000  Uiso   1.00
H1310  H     0.99698   0.10070   0.93991   0.00000  Uiso   1.00
H1311  H     0.73481   0.02622   0.79406   0.00000  Uiso   1.00
H1312  H     0.92060   0.30342   0.72794   0.00000  Uiso   1.00
H1313  H     0.93693   0.03673   0.70188   0.00000  Uiso   1.00
H1314  H     0.90723   0.21103   0.85611   0.00000  Uiso   1.00
H1315  H     0.71081   0.31311   0.70591   0.00000  Uiso   1.00
H1316  H     0.74522   0.05658   0.69754   0.00000  Uiso   1.00
H1317  H     0.75692   0.00890   0.65873   0.00000  Uiso   1.00
H1318  H     0.75500   0.06662   0.64021   0.00000  Uiso   1.00
H1319  H     0.79456   0.28661   0.84451   0.00000  Uiso   1.00
H1320  H     0.82508   0.33128   0.86940   0.00000  Uiso   1.00
H1321  H     0.83228   0.27267   0.88631   0.00000  Uiso   1.00
H1322  H     0.91846   0.00448   0.81231   0.00000  Uiso   1.00
H1323  H     0.89902   0.01266   0.86814   0.00000  Uiso   1.00
H1324  H     0.92476   0.05803   0.84175   0.00000  Uiso   1.00
H1325  H     0.95257   0.17452   0.85454   0.00000  Uiso   1.00
H1326  H     0.87464   0.28195   0.65737   0.00000  Uiso   1.00
H1327  H     0.84536   0.32872   0.63096   0.00000  Uiso   1.00
H1328  H     0.83921   0.27069   0.61349   0.00000  Uiso   1.00
H1329  H     0.71139   0.18805   0.63856   0.00000  Uiso   1.00
H1330  H     0.75194   0.14743   0.65168   0.00000  Uiso   1.00
H1331  H     0.73308   0.15284   0.59468   0.00000  Uiso   1.00
H1332  H     0.69648   0.17568   0.88434   0.00000  Uiso   1.00
H1333  H     0.92725   0.05608   0.62239   0.00000  Uiso   1.00
H1334  H     0.78796   0.29087   0.94506   0.00000  Uiso   1.00
N1335  N     0.83333   0.28402   0.75000   0.00000  Uiso   1.00
N1336  N     0.83333   0.04931   0.75000   0.00000  Uiso   1.00
O1337  O     0.77321   0.20625   0.74999   0.00000  Uiso   1.00
O1338  O     0.76847   0.20678   0.61919   0.00000  Uiso   1.00
O1339  O     0.75312   0.21081   0.84942   0.00000  Uiso   1.00
O1340  O     0.72226   0.16952   0.90251   0.00000  Uiso   1.00
O1341  O     0.91938   0.13596   0.64582   0.00000  Uiso   1.00
O1342  O     0.90378   0.07180   0.60572   0.00000  Uiso   1.00
O1343  O     0.74055   0.24414   0.95504   0.00000  Uiso   1.00
O1344  O     0.94137   0.12667   0.54308   0.00000  Uiso   1.00
O1345  O     0.70317   0.24367   0.53994   0.00000  Uiso   1.00
O1346  O     0.75193   0.28495   0.57475   0.00000  Uiso   1.00
O1347  O     0.92920   0.07202   0.93343   0.00000  Uiso   1.00
O1348  O     0.89345   0.12709   0.75001   0.00000  Uiso   1.00
O1349  O     0.97695   0.12217   0.95636   0.00000  Uiso   1.00
O1350  O     0.72393   0.10005   0.82918   0.00000  Uiso   1.00
O1351  O     0.71816   0.04724   0.77360   0.00000  Uiso   1.00
O1352  O     0.94666   0.24612   0.67575   0.00000  Uiso   1.00
O1353  O     0.94176   0.28257   0.74302   0.00000  Uiso   1.00
O1354  O     0.97065   0.04682   0.77240   0.00000  Uiso   1.00
O1355  O     0.94547   0.06965   0.70555   0.00000  Uiso   1.00
O1356  O     0.71893   0.27245   0.77434   0.00000  Uiso   1.00
O1357  O     0.70197   0.28032   0.70143   0.00000  Uiso   1.00
O1358  O     0.80595   0.04933   0.67698   0.00000  Uiso   1.00
O1359  O     0.89345   0.20625   0.75000   0.00000  Uiso   1.00
O1360  O     0.85613   0.28585   0.82520   0.00000  Uiso   1.00
O1361  O     0.86584   0.04910   0.82048   0.00000  Uiso   1.00
O1362  O     0.81233   0.28698   0.67367   0.00000  Uiso   1.00
O1363  O     0.77321   0.12709   0.74999   0.00000  Uiso   1.00
O1364  O     0.83332   0.20627   0.68513   0.00000  Uiso   1.00
O1365  O     0.83334   0.12707   0.81487   0.00000  Uiso   1.00
O1366  O     0.83334   0.20627   0.81487   0.00000  Uiso   1.00
O1367  O     0.83332   0.12707   0.68513   0.00000  Uiso   1.00
O1368  O     0.90231   0.14398   0.88020   0.00000  Uiso   1.00
C1369  C     0.08756   0.50091   0.75284   0.00000  Uiso   1.00
C1370  C     0.04261   0.50261   0.75612   0.00000  Uiso   1.00
C1371  C     0.15153   0.35863   0.71450   0.00000  Uiso   1.00
C1372  C     0.17879   0.64213   0.78678   0.00000  Uiso   1.00
C1373  C     0.18267   0.35806   0.78514   0.00000  Uiso   1.00
C1374  C     0.15498   0.64256   0.71299   0.00000  Uiso   1.00
C1375  C     0.16685   0.49983   0.66469   0.00000  Uiso   1.00
C1376  C     0.16515   0.50035   0.83522   0.00000  Uiso   1.00
C1377  C     0.20135   0.48884   0.90543   0.00000  Uiso   1.00
C1378  C     0.13438   0.52234   0.59426   0.00000  Uiso   1.00
C1379  C     0.16502   0.50161   0.88348   0.00000  Uiso   1.00
C1380  C     0.24592   0.49919   0.74712   0.00000  Uiso   1.00
C1381  C     0.16717   0.50006   0.61631   0.00000  Uiso   1.00
C1382  C     0.13018   0.51760   0.90709   0.00000  Uiso   1.00
C1383  C     0.20061   0.48056   0.59289   0.00000  Uiso   1.00
C1384  C     0.13331   0.52447   0.95358   0.00000  Uiso   1.00
C1385  C     0.20273   0.48597   0.54634   0.00000  Uiso   1.00
C1386  C     0.16821   0.50618   0.97646   0.00000  Uiso   1.00
C1387  C     0.16877   0.50654   0.52347   0.00000  Uiso   1.00
C1388  C     0.20209   0.48667   0.95231   0.00000  Uiso   1.00
C1389  C     0.13537   0.52730   0.54754   0.00000  Uiso   1.00
C1390  C     0.10336   0.55100   0.97747   0.00000  Uiso   1.00
C1391  C     0.10409   0.55227   0.52411   0.00000  Uiso   1.00
C1392  C     0.23812   0.47172   0.52199   0.00000  Uiso   1.00
C1393  C     0.25838   0.51728   0.87454   0.00000  Uiso   1.00
C1394  C     0.07370   0.50512   0.62597   0.00000  Uiso   1.00
C1395  C     0.08988   0.52262   0.88399   0.00000  Uiso   1.00
C1396  C     0.23159   0.45185   0.61706   0.00000  Uiso   1.00
C1397  C     0.08766   0.62277   0.95001   0.00000  Uiso   1.00
C1398  C     0.29570   0.50092   0.55155   0.00000  Uiso   1.00
C1399  C     0.07288   0.58248   0.54683   0.00000  Uiso   1.00
C1400  C     0.27008   0.44094   0.95350   0.00000  Uiso   1.00
C1401  C     0.04425   0.42451   0.79204   0.00000  Uiso   1.00
C1402  C     0.23648   0.46803   0.97568   0.00000  Uiso   1.00
C1403  C     0.28839   0.57950   0.71537   0.00000  Uiso   1.00
C1404  C     0.29855   0.41132   0.74587   0.00000  Uiso   1.00
C1405  C     0.03749   0.58873   0.74086   0.00000  Uiso   1.00
C1406  C     0.09725   0.37792   0.66878   0.00000  Uiso   1.00
C1407  C     0.15876   0.62828   0.85733   0.00000  Uiso   1.00
C1408  C     0.23685   0.36300   0.83577   0.00000  Uiso   1.00
C1409  C     0.17778   0.62611   0.64307   0.00000  Uiso   1.00
C1410  C     0.02261   0.46159   0.76614   0.00000  Uiso   1.00
C1411  C     0.31105   0.53943   0.73483   0.00000  Uiso   1.00
C1412  C     0.31464   0.45772   0.75450   0.00000  Uiso   1.00
C1413  C     0.01957   0.54249   0.74299   0.00000  Uiso   1.00
C1414  C     0.29113   0.49805   0.74366   0.00000  Uiso   1.00
Cu1415 Cu    0.16667   0.54689   0.75000   0.00000  Uiso   1.00
Cu1416 Cu    0.16667   0.45311   0.75000   0.00000  Uiso   1.00
H1417  H     0.26896   0.53136   0.90699   0.00000  Uiso   1.00
H1418  H     0.07870   0.64445   0.97925   0.00000  Uiso   1.00
H1419  H     0.07253   0.63821   0.92033   0.00000  Uiso   1.00
H1420  H     0.27836   0.52448   0.57470   0.00000  Uiso   1.00
H1421  H     0.30228   0.51933   0.52026   0.00000  Uiso   1.00
H1422  H     0.32539   0.49160   0.56761   0.00000  Uiso   1.00
H1423  H     0.06125   0.63673   0.58795   0.00000  Uiso   1.00
H1424  H     0.33032   0.43404   0.93991   0.00000  Uiso   1.00
H1425  H     0.06815   0.35956   0.79406   0.00000  Uiso   1.00
H1426  H     0.25393   0.63675   0.72794   0.00000  Uiso   1.00
H1427  H     0.27026   0.37006   0.70188   0.00000  Uiso   1.00
H1428  H     0.24057   0.54437   0.85611   0.00000  Uiso   1.00
H1429  H     0.04415   0.64644   0.70591   0.00000  Uiso   1.00
H1430  H     0.07855   0.38992   0.69754   0.00000  Uiso   1.00
H1431  H     0.09025   0.34223   0.65873   0.00000  Uiso   1.00
H1432  H     0.08833   0.39995   0.64021   0.00000  Uiso   1.00
H1433  H     0.12790   0.61994   0.84451   0.00000  Uiso   1.00
H1434  H     0.15841   0.66461   0.86940   0.00000  Uiso   1.00
H1435  H     0.16561   0.60601   0.88631   0.00000  Uiso   1.00
H1436  H     0.25179   0.33781   0.81231   0.00000  Uiso   1.00
H1437  H     0.23235   0.34600   0.86814   0.00000  Uiso   1.00
H1438  H     0.25810   0.39136   0.84175   0.00000  Uiso   1.00
H1439  H     0.28590   0.50785   0.85454   0.00000  Uiso   1.00
H1440  H     0.20798   0.61528   0.65737   0.00000  Uiso   1.00
H1441  H     0.17869   0.66205   0.63096   0.00000  Uiso   1.00
H1442  H     0.17255   0.60402   0.61349   0.00000  Uiso   1.00
H1443  H     0.04472   0.52138   0.63856   0.00000  Uiso   1.00
H1444  H     0.08527   0.48076   0.65168   0.00000  Uiso   1.00
H1445  H     0.06641   0.48617   0.59468   0.00000  Uiso   1.00
H1446  H     0.02982   0.50901   0.88434   0.00000  Uiso   1.00
H1447  H     0.26059   0.38941   0.62239   0.00000  Uiso   1.00
H1448  H     0.12129   0.62421   0.94506   0.00000  Uiso   1.00
N1449  N     0.16667   0.61736   0.75000   0.00000  Uiso   1.00
N1450  N     0.16667   0.38264   0.75000   0.00000  Uiso   1.00
O1451  O     0.10655   0.53958   0.74999   0.00000  Uiso   1.00
O1452  O     0.10180   0.54011   0.61919   0.00000  Uiso   1.00
O1453  O     0.08646   0.54414   0.84942   0.00000  Uiso   1.00
O1454  O     0.05559   0.50286   0.90251   0.00000  Uiso   1.00
O1455  O     0.25271   0.46930   0.64582   0.00000  Uiso   1.00
O1456  O     0.23711   0.40513   0.60572   0.00000  Uiso   1.00
O1457  O     0.07389   0.57747   0.95504   0.00000  Uiso   1.00
O1458  O     0.27470   0.46001   0.54308   0.00000  Uiso   1.00
O1459  O     0.03650   0.57700   0.53994   0.00000  Uiso   1.00
O1460  O     0.08526   0.61829   0.57475   0.00000  Uiso   1.00
O1461  O     0.26253   0.40535   0.93343   0.00000  Uiso   1.00
O1462  O     0.22679   0.46042   0.75001   0.00000  Uiso   1.00
O1463  O     0.31028   0.45550   0.95636   0.00000  Uiso   1.00
O1464  O     0.05726   0.43338   0.82918   0.00000  Uiso   1.00
O1465  O     0.05149   0.38057   0.77360   0.00000  Uiso   1.00
O1466  O     0.27999   0.57946   0.67575   0.00000  Uiso   1.00
O1467  O     0.27509   0.61591   0.74302   0.00000  Uiso   1.00
O1468  O     0.30398   0.38015   0.77240   0.00000  Uiso   1.00
O1469  O     0.27880   0.40299   0.70555   0.00000  Uiso   1.00
O1470  O     0.05226   0.60578   0.77434   0.00000  Uiso   1.00
O1471  O     0.03530   0.61365   0.70143   0.00000  Uiso   1.00
O1472  O     0.13928   0.38267   0.67698   0.00000  Uiso   1.00
O1473  O     0.22679   0.53958   0.75000   0.00000  Uiso   1.00
O1474  O     0.18946   0.61919   0.82520   0.00000  Uiso   1.00
O1475  O     0.19918   0.38243   0.82048   0.00000  Uiso   1.00
O1476  O     0.14566   0.62031   0.67367   0.00000  Uiso   1.00
O1477  O     0.10655   0.46042   0.74999   0.00000  Uiso   1.00
O1478  O     0.16666   0.53960   0.68513   0.00000  Uiso   1.00
O1479  O     0.16668   0.46040   0.81487   0.00000  Uiso   1.00
O1480  O     0.16668   0.53960   0.81487   0.00000  Uiso   1.00
O1481  O     0.16666   0.46040   0.68513   0.00000  Uiso   1.00
O1482  O     0.23564   0.47732   0.88020   0.00000  Uiso   1.00
C1483  C     0.42089   0.50091   0.75284   0.00000  Uiso   1.00
C1484  C     0.37595   0.50261   0.75612   0.00000  Uiso   1.00
C1485  C     0.48486   0.35863   0.71450   0.00000  Uiso   1.00
C1486  C     0.51212   0.64213   0.78678   0.00000  Uiso   1.00
C1487  C     0.51600   0.35806   0.78514   0.00000  Uiso   1.00
C1488  C     0.48831   0.64256   0.71299   0.00000  Uiso   1.00
C1489  C     0.50018   0.49983   0.66469   0.00000  Uiso   1.00
C1490  C     0.49848   0.50035   0.83522   0.00000  Uiso   1.00
C1491  C     0.53469   0.48884   0.90543   0.00000  Uiso   1.00
C1492  C     0.46771   0.52234   0.59426   0.00000  Uiso   1.00
C1493  C     0.49836   0.50161   0.88348   0.00000  Uiso   1.00
C1494  C     0.57925   0.49919   0.74712   0.00000  Uiso   1.00
C1495  C     0.50050   0.50006   0.61631   0.00000  Uiso   1.00
C1496  C     0.46351   0.51760   0.90709   0.00000  Uiso   1.00
C1497  C     0.53394   0.48056   0.59289   0.00000  Uiso   1.00
C1498  C     0.46665   0.52447   0.95358   0.00000  Uiso   1.00
C1499  C     0.53606   0.48597   0.54634   0.00000  Uiso   1.00
C1500  C     0.50154   0.50618   0.97646   0.00000  Uiso   1.00
C1501  C     0.50210   0.50654   0.52347   0.00000  Uiso   1.00
C1502  C     0.53542   0.48667   0.95231   0.00000  Uiso   1.00
C1503  C     0.46870   0.52730   0.54754   0.00000  Uiso   1.00
C1504  C     0.43670   0.55100   0.97747   0.00000  Uiso   1.00
C1505  C     0.43742   0.55227   0.52411   0.00000  Uiso   1.00
C1506  C     0.57146   0.47172   0.52199   0.00000  Uiso   1.00
C1507  C     0.59171   0.51728   0.87454   0.00000  Uiso   1.00
C1508  C     0.40704   0.50512   0.62597   0.00000  Uiso   1.00
C1509  C     0.42321   0.52262   0.88399   0.00000  Uiso   1.00
C1510  C     0.56492   0.45185   0.61706   0.00000  Uiso   1.00
C1511  C     0.42099   0.62277   0.95001   0.00000  Uiso   1.00
C1512  C     0.62903   0.50092   0.55155   0.00000  Uiso   1.00
C1513  C     0.40621   0.58248   0.54683   0.00000  Uiso   1.00
C1514  C     0.60342   0.44094   0.95350   0.00000  Uiso   1.00
C1515  C     0.37758   0.42451   0.79204   0.00000  Uiso   1.00
C1516  C     0.56981   0.46803   0.97568   0.00000  Uiso   1.00
C1517  C     0.62172   0.57950   0.71537   0.00000  Uiso   1.00
C1518  C     0.63188   0.41132   0.74587   0.00000  Uiso   1.00
C1519  C     0.37083   0.58873   0.74086   0.00000  Uiso   1.00
C1520  C     0.43058   0.37792   0.66878   0.00000  Uiso   1.00
C1521  C     0.49210   0.62828   0.85733   0.00000  Uiso   1.00
C1522  C     0.57019   0.36300   0.83577   0.00000  Uiso   1.00
C1523  C     0.51111   0.62611   0.64307   0.00000  Uiso   1.00
C1524  C     0.35594   0.46159   0.76614   0.00000  Uiso   1.00
C1525  C     0.64438   0.53943   0.73483   0.00000  Uiso   1.00
C1526  C     0.64797   0.45772   0.75450   0.00000  Uiso   1.00
C1527  C     0.35291   0.54249   0.74299   0.00000  Uiso   1.00
C1528  C     0.62446   0.49805   0.74366   0.00000  Uiso   1.00
Cu1529 Cu    0.50000   0.54689   0.75000   0.00000  Uiso   1.00
Cu1530 Cu    0.50000   0.45311   0.75000   0.00000  Uiso   1.00
H1531  H     0.60229   0.53136   0.90699   0.00000  Uiso   1.00
H1532  H     0.41203   0.64445   0.97925   0.00000  Uiso   1.00
H1533  H     0.40587   0.63821   0.92033   0.00000  Uiso   1.00
H1534  H     0.61170   0.52448   0.57470   0.00000  Uiso   1.00
H1535  H     0.63561   0.51933   0.52026   0.00000  Uiso   1.00
H1536  H     0.65873   0.49160   0.56761   0.00000  Uiso   1.00
H1537  H     0.39459   0.63673   0.58795   0.00000  Uiso   1.00
H1538  H     0.66365   0.43404   0.93991   0.00000  Uiso   1.00
H1539  H     0.40148   0.35956   0.79406   0.00000  Uiso   1.00
H1540  H     0.58727   0.63675   0.72794   0.00000  Uiso   1.00
H1541  H     0.60360   0.37006   0.70188   0.00000  Uiso   1.00
H1542  H     0.57390   0.54437   0.85611   0.00000  Uiso   1.00
H1543  H     0.37748   0.64644   0.70591   0.00000  Uiso   1.00
H1544  H     0.41189   0.38992   0.69754   0.00000  Uiso   1.00
H1545  H     0.42358   0.34223   0.65873   0.00000  Uiso   1.00
H1546  H     0.42166   0.39995   0.64021   0.00000  Uiso   1.00
H1547  H     0.46123   0.61994   0.84451   0.00000  Uiso   1.00
H1548  H     0.49175   0.66461   0.86940   0.00000  Uiso   1.00
H1549  H     0.49895   0.60601   0.88631   0.00000  Uiso   1.00
H1550  H     0.58512   0.33781   0.81231   0.00000  Uiso   1.00
H1551  H     0.56569   0.34600   0.86814   0.00000  Uiso   1.00
H1552  H     0.59143   0.39136   0.84175   0.00000  Uiso   1.00
H1553  H     0.61924   0.50785   0.85454   0.00000  Uiso   1.00
H1554  H     0.54131   0.61528   0.65737   0.00000  Uiso   1.00
H1555  H     0.51202   0.66205   0.63096   0.00000  Uiso   1.00
H1556  H     0.50588   0.60402   0.61349   0.00000  Uiso   1.00
H1557  H     0.37806   0.52138   0.63856   0.00000  Uiso   1.00
H1558  H     0.41860   0.48076   0.65168   0.00000  Uiso   1.00
H1559  H     0.39974   0.48617   0.59468   0.00000  Uiso   1.00
H1560  H     0.36315   0.50901   0.88434   0.00000  Uiso   1.00
H1561  H     0.59392   0.38941   0.62239   0.00000  Uiso   1.00
H1562  H     0.45462   0.62421   0.94506   0.00000  Uiso   1.00
N1563  N     0.50000   0.61736   0.75000   0.00000  Uiso   1.00
N1564  N     0.50000   0.38264   0.75000   0.00000  Uiso   1.00
O1565  O     0.43988   0.53958   0.74999   0.00000  Uiso   1.00
O1566  O     0.43514   0.54011   0.61919   0.00000  Uiso   1.00
O1567  O     0.41979   0.54414   0.84942   0.00000  Uiso   1.00
O1568  O     0.38892   0.50286   0.90251   0.00000  Uiso   1.00
O1569  O     0.58604   0.46930   0.64582   0.00000  Uiso   1.00
O1570  O     0.57045   0.40513   0.60572   0.00000  Uiso   1.00
O1571  O     0.40722   0.57747   0.95504   0.00000  Uiso   1.00
O1572  O     0.60804   0.46001   0.54308   0.00000  Uiso   1.00
O1573  O     0.36984   0.57700   0.53994   0.00000  Uiso   1.00
O1574  O     0.41859   0.61829   0.57475   0.00000  Uiso   1.00
O1575  O     0.59586   0.40535   0.93343   0.00000  Uiso   1.00
O1576  O     0.56012   0.46042   0.75001   0.00000  Uiso   1.00
O1577  O     0.64361   0.45550   0.95636   0.00000  Uiso   1.00
O1578  O     0.39059   0.43338   0.82918   0.00000  Uiso   1.00
O1579  O     0.38482   0.38057   0.77360   0.00000  Uiso   1.00
O1580  O     0.61333   0.57946   0.67575   0.00000  Uiso   1.00
O1581  O     0.60842   0.61591   0.74302   0.00000  Uiso   1.00
O1582  O     0.63732   0.38015   0.77240   0.00000  Uiso   1.00
O1583  O     0.61213   0.40299   0.70555   0.00000  Uiso   1.00
O1584  O     0.38560   0.60578   0.77434   0.00000  Uiso   1.00
O1585  O     0.36864   0.61365   0.70143   0.00000  Uiso   1.00
O1586  O     0.47261   0.38267   0.67698   0.00000  Uiso   1.00
O1587  O     0.56012   0.53958   0.75000   0.00000  Uiso   1.00
O1588  O     0.52280   0.61919   0.82520   0.00000  Uiso   1.00
O1589  O     0.53251   0.38243   0.82048   0.00000  Uiso   1.00
O1590  O     0.47899   0.62031   0.67367   0.00000  Uiso   1.00
O1591  O     0.43988   0.46042   0.74999   0.00000  Uiso   1.00
O1592  O     0.49999   0.53960   0.68513   0.00000  Uiso   1.00
O1593  O     0.50001   0.46040   0.81487   0.00000  Uiso   1.00
O1594  O     0.50001   0.53960   0.81487   0.00000  Uiso   1.00
O1595  O     0.49999   0.46040   0.68513   0.00000  Uiso   1.00
O1596  O     0.56898   0.47732   0.88020   0.00000  Uiso   1.00
C1597  C     0.75422   0.50091   0.75284   0.00000  Uiso   1.00
C1598  C     0.70928   0.50261   0.75612   0.00000  Uiso   1.00
C1599  C     0.81819   0.35863   0.71450   0.00000  Uiso   1.00
C1600  C     0.84546   0.64213   0.78678   0.00000  Uiso   1.00
C1601  C     0.84934   0.35806   0.78514   0.00000  Uiso   1.00
C1602  C     0.82164   0.64256   0.71299   0.00000  Uiso   1.00
C1603  C     0.83351   0.49983   0.66469   0.00000  Uiso   1.00
C1604  C     0.83182   0.50035   0.83522   0.00000  Uiso   1.00
C1605  C     0.86802   0.48884   0.90543   0.00000  Uiso   1.00
C1606  C     0.80105   0.52234   0.59426   0.00000  Uiso   1.00
C1607  C     0.83169   0.50161   0.88348   0.00000  Uiso   1.00
C1608  C     0.91258   0.49919   0.74712   0.00000  Uiso   1.00
C1609  C     0.83384   0.50006   0.61631   0.00000  Uiso   1.00
C1610  C     0.79685   0.51760   0.90709   0.00000  Uiso   1.00
C1611  C     0.86728   0.48056   0.59289   0.00000  Uiso   1.00
C1612  C     0.79998   0.52447   0.95358   0.00000  Uiso   1.00
C1613  C     0.86939   0.48597   0.54634   0.00000  Uiso   1.00
C1614  C     0.83488   0.50618   0.97646   0.00000  Uiso   1.00
C1615  C     0.83543   0.50654   0.52347   0.00000  Uiso   1.00
C1616  C     0.86875   0.48667   0.95231   0.00000  Uiso   1.00
C1617  C     0.80203   0.52730   0.54754   0.00000  Uiso   1.00
C1618  C     0.77003   0.55100   0.97747   0.00000  Uiso   1.00
C1619  C     0.77076   0.55227   0.52411   0.00000  Uiso   1.00
C1620  C     0.90479   0.47172   0.52199   0.00000  Uiso   1.00
C1621  C     0.92505   0.51728   0.87454   0.00000  Uiso   1.00
C1622  C     0.74037   0.50512   0.62597   0.00000  Uiso   1.00
C1623  C     0.75654   0.52262   0.88399   0.00000  Uiso   1.00
C1624  C     0.89825   0.45185   0.61706   0.00000  Uiso   1.00
C1625  C     0.75433   0.62277   0.95001   0.00000  Uiso   1.00
C1626  C     0.96237   0.50092   0.55155   0.00000  Uiso   1.00
C1627  C     0.73954   0.58248   0.54683   0.00000  Uiso   1.00
C1628  C     0.93675   0.44094   0.95350   0.00000  Uiso   1.00
C1629  C     0.71091   0.42451   0.79204   0.00000  Uiso   1.00
C1630  C     0.90314   0.46803   0.97568   0.00000  Uiso   1.00
C1631  C     0.95506   0.57950   0.71537   0.00000  Uiso   1.00
C1632  C     0.96521   0.41132   0.74587   0.00000  Uiso   1.00
C1633  C     0.70416   0.58873   0.74086   0.00000  Uiso   1.00
C1634  C     0.76391   0.37792   0.66878   0.00000  Uiso   1.00
C1635  C     0.82543   0.62828   0.85733   0.00000  Uiso   1.00
C1636  C     0.90352   0.36300   0.83577   0.00000  Uiso   1.00
C1637  C     0.84445   0.62611   0.64307   0.00000  Uiso   1.00
C1638  C     0.68928   0.46159   0.76614   0.00000  Uiso   1.00
C1639  C     0.97771   0.53943   0.73483   0.00000  Uiso   1.00
C1640  C     0.98131   0.45772   0.75450   0.00000  Uiso   1.00
C1641  C     0.68624   0.54249   0.74299   0.00000  Uiso   1.00
C1642  C     0.95780   0.49805   0.74366   0.00000  Uiso   1.00
Cu1643 Cu    0.83333   0.54689   0.75000   0.00000  Uiso   1.00
Cu1644 Cu    0.83333   0.45311   0.75000   0.00000  Uiso   1.00
H1645  H     0.93562   0.53136   0.90699   0.00000  Uiso   1.00
H1646  H     0.74537   0.64445   0.97925   0.00000  Uiso   1.00
H1647  H     0.73920   0.63821   0.92033   0.00000  Uiso   1.00
H1648  H     0.94503   0.52448   0.57470   0.00000  Uiso   1.00
H1649  H     0.96894   0.51933   0.52026   0.00000  Uiso   1.00
H1650  H     0.99206   0.49160   0.56761   0.00000  Uiso   1.00
H1651  H     0.72792   0.63673   0.58795   0.00000  Uiso   1.00
H1652  H     0.99698   0.43404   0.93991   0.00000  Uiso   1.00
H1653  H     0.73481   0.35956   0.79406   0.00000  Uiso   1.00
H1654  H     0.92060   0.63675   0.72794   0.00000  Uiso   1.00
H1655  H     0.93693   0.37006   0.70188   0.00000  Uiso   1.00
H1656  H     0.90723   0.54437   0.85611   0.00000  Uiso   1.00
H1657  H     0.71081   0.64644   0.70591   0.00000  Uiso   1.00
H1658  H     0.74522   0.38992   0.69754   0.00000  Uiso   1.00
H1659  H     0.75692   0.34223   0.65873   0.00000  Uiso   1.00
H1660  H     0.75500   0.39995   0.64021   0.00000  Uiso   1.00
H1661  H     0.79456   0.61994   0.84451   0.00000  Uiso   1.00
H1662  H     0.82508   0.66461   0.86940   0.00000  Uiso   1.00
H1663  H     0.83228   0.60601   0.88631   0.00000  Uiso   1.00
H1664  H     0.91846   0.33781   0.81231   0.00000  Uiso   1.00
H1665  H     0.89902   0.34600   0.86814   0.00000  Uiso   1.00
H1666  H     0.92476   0.39136   0.84175   0.00000  Uiso   1.00
H1667  H     0.95257   0.50785   0.85454   0.00000  Uiso   1.00
H1668  H     0.87464   0.61528   0.65737   0.00000  Uiso   1.00
H1669  H     0.84536   0.66205   0.63096   0.00000  Uiso   1.00
H1670  H     0.83921   0.60402   0.61349   0.00000  Uiso   1.00
H1671  H     0.71139   0.52138   0.63856   0.00000  Uiso   1.00
H1672  H     0.75194   0.48076   0.65168   0.00000  Uiso   1.00
H1673  H     0.73308   0.48617   0.59468   0.00000  Uiso   1.00
H1674  H     0.69648   0.50901   0.88434   0.00000  Uiso   1.00
H1675  H     0.92725   0.38941   0.62239   0.00000  Uiso   1.00
H1676  H     0.78796   0.62421   0.94506   0.00000  Uiso   1.00
N1677  N     0.83333   0.61736   0.75000   0.00000  Uiso   1.00
N1678  N     0.83333   0.38264   0.75000   0.00000  Uiso   1.00
O1679  O     0.77321   0.53958   0.74999   0.00000  Uiso   1.00
O1680  O     0.76847   0.54011   0.61919   0.00000  Uiso   1.00
O1681  O     0.75312   0.54414   0.84942   0.00000  Uiso   1.00
O1682  O     0.72226   0.50286   0.90251   0.00000  Uiso   1.00
O1683  O     0.91938   0.46930   0.64582   0.00000  Uiso   1.00
O1684  O     0.90378   0.40513   0.60572   0.00000  Uiso   1.00
O1685  O     0.74055   0.57747   0.95504   0.00000  Uiso   1.00
O1686  O     0.94137   0.46001   0.54308   0.00000  Uiso   1.00
O1687  O     0.70317   0.57700   0.53994   0.00000  Uiso   1.00
O1688  O     0.75193   0.61829   0.57475   0.00000  Uiso   1.00
O1689  O     0.92920   0.40535   0.93343   0.00000  Uiso   1.00
O1690  O     0.89345   0.46042   0.75001   0.00000  Uiso   1.00
O1691  O     0.97695   0.45550   0.95636   0.00000  Uiso   1.00
O1692  O     0.72393   0.43338   0.82918   0.00000  Uiso   1.00
O1693  O     0.71816   0.38057   0.77360   0.00000  Uiso   1.00
O1694  O     0.94666   0.57946   0.67575   0.00000  Uiso   1.00
O1695  O     0.94176   0.61591   0.74302   0.00000  Uiso   1.00
O1696  O     0.97065   0.38015   0.77240   0.00000  Uiso   1.00
O1697  O     0.94547   0.40299   0.70555   0.00000  Uiso   1.00
O1698  O     0.71893   0.60578   0.77434   0.00000  Uiso   1.00
O1699  O     0.70197   0.61365   0.70143   0.00000  Uiso   1.00
O1700  O     0.80595   0.38267   0.67698   0.00000  Uiso   1.00
O1701  O     0.89345   0.53958   0.75000   0.00000  Uiso   1.00
O1702  O     0.85613   0.61919   0.82520   0.00000  Uiso   1.00
O1703  O     0.86584   0.38243   0.82048   0.00000  Uiso   1.00
O1704  O     0.81233   0.62031   0.67367   0.00000  Uiso   1.00
O1705  O     0.77321   0.46042   0.74999   0.00000  Uiso   1.00
O1706  O     0.83332   0.53960   0.68513   0.00000  Uiso   1.00
O1707  O     0.83334   0.46040   0.81487   0.00000  Uiso   1.00
O1708  O     0.83334   0.53960   0.81487   0.00000  Uiso   1.00
O1709  O     0.83332   0.46040   0.68513   0.00000  Uiso   1.00
O1710  O     0.90231   0.47732   0.88020   0.00000  Uiso   1.00
C1711  C     0.08756   0.83424   0.75284   0.00000  Uiso   1.00
C1712  C     0.04261   0.83594   0.75612   0.00000  Uiso   1.00
C1713  C     0.15153   0.69197   0.71450   0.00000  Uiso   1.00
C1714  C     0.17879   0.97546   0.78678   0.00000  Uiso   1.00
C1715  C     0.18267   0.69139   0.78514   0.00000  Uiso   1.00
C1716  C     0.15498   0.97589   0.71299   0.00000  Uiso   1.00
C1717  C     0.16685   0.83317   0.66469   0.00000  Uiso   1.00
C1718  C     0.16515   0.83368   0.83522   0.00000  Uiso   1.00
C1719  C     0.20135   0.82217   0.90543   0.00000  Uiso   1.00
C1720  C     0.13438   0.85568   0.59426   0.00000  Uiso   1.00
C1721  C     0.16502   0.83495   0.88348   0.00000  Uiso   1.00
C1722  C     0.24592   0.83252   0.74712   0.00000  Uiso   1.00
C1723  C     0.16717   0.83339   0.61631   0.00000  Uiso   1.00
C1724  C     0.13018   0.85093   0.90709   0.00000  Uiso   1.00
C1725  C     0.20061   0.81389   0.59289   0.00000  Uiso   1.00
C1726  C     0.13331   0.85780   0.95358   0.00000  Uiso   1.00
C1727  C     0.20273   0.81930   0.54634   0.00000  Uiso   1.00
C1728  C     0.16821   0.83951   0.97646   0.00000  Uiso   1.00
C1729  C     0.16877   0.83987   0.52347   0.00000  Uiso   1.00
C1730  C     0.20209   0.82000   0.95231   0.00000  Uiso   1.00
C1731  C     0.13537   0.86063   0.54754   0.00000  Uiso   1.00
C1732  C     0.10336   0.88433   0.97747   0.00000  Uiso   1.00
C1733  C     0.10409   0.88561   0.52411   0.00000  Uiso   1.00
C1734  C     0.23812   0.80506   0.52199   0.00000  Uiso   1.00
C1735  C     0.25838   0.85061   0.87454   0.00000  Uiso   1.00
C1736  C     0.07370   0.83845   0.62597   0.00000  Uiso   1.00
C1737  C     0.08988   0.85596   0.88399   0.00000  Uiso   1.00
C1738  C     0.23159   0.78518   0.61706   0.00000  Uiso   1.00
C1739  C     0.08766   0.95611   0.95001   0.00000  Uiso   1.00
C1740  C     0.29570   0.83425   0.55155   0.00000  Uiso   1.00
C1741  C     0.07288   0.91581   0.54683   0.00000  Uiso   1.00
C1742  C     0.27008   0.77427   0.95350   0.00000  Uiso   1.00
C1743  C     0.04425   0.75784   0.79204   0.00000  Uiso   1.00
C1744  C     0.23648   0.80136   0.97568   0.00000  Uiso   1.00
C1745  C     0.28839   0.91283   0.71537   0.00000  Uiso   1.00
C1746  C     0.29855   0.74465   0.74587   0.00000  Uiso   1.00
C1747  C     0.03749   0.92206   0.74086   0.00000  Uiso   1.00
C1748  C     0.09725   0.71126   0.66878   0.00000  Uiso   1.00
C1749  C     0.15876   0.96161   0.85733   0.00000  Uiso   1.00
C1750  C     0.23685   0.69633   0.83577   0.00000  Uiso   1.00
C1751  C     0.17778   0.95944   0.64307   0.00000  Uiso   1.00
C1752  C     0.02261   0.79492   0.76614   0.00000  Uiso   1.00
C1753  C     0.31105   0.87276   0.73483   0.00000  Uiso   1.00
C1754  C     0.31464   0.79105   0.75450   0.00000  Uiso   1.00
C1755  C     0.01957   0.87583   0.74299   0.00000  Uiso   1.00
C1756  C     0.29113   0.83139   0.74366   0.00000  Uiso   1.00
Cu1757 Cu    0.16667   0.88022   0.75000   0.00000  Uiso   1.00
Cu1758 Cu    0.16667   0.78645   0.75000   0.00000  Uiso   1.00
H1759  H     0.26896   0.86470   0.90699   0.00000  Uiso   1.00
H1760  H     0.07870   0.97778   0.97925   0.00000  Uiso   1.00
H1761  H     0.07253   0.97155   0.92033   0.00000  Uiso   1.00
H1762  H     0.27836   0.85781   0.57470   0.00000  Uiso   1.00
H1763  H     0.30228   0.85266   0.52026   0.00000  Uiso   1.00
H1764  H     0.32539   0.82493   0.56761   0.00000  Uiso   1.00
H1765  H     0.06125   0.97006   0.58795   0.00000  Uiso   1.00
H1766  H     0.33032   0.76737   0.93991   0.00000  Uiso   1.00
H1767  H     0.06815   0.69289   0.79406   0.00000  Uiso   1.00
H1768  H     0.25393   0.97009   0.72794   0.00000  Uiso   1.00
H1769  H     0.27026   0.70340   0.70188   0.00000  Uiso   1.00
H1770  H     0.24057   0.87770   0.85611   0.00000  Uiso   1.00
H1771  H     0.04415   0.97978   0.70591   0.00000  Uiso   1.00
H1772  H     0.07855   0.72325   0.69754   0.00000  Uiso   1.00
H1773  H     0.09025   0.67556   0.65873   0.00000  Uiso   1.00
H1774  H     0.08833   0.73328   0.64021   0.00000  Uiso   1.00
H1775  H     0.12790   0.95327   0.84451   0.00000  Uiso   1.00
H1776  H     0.15841   0.99795   0.86940   0.00000  Uiso   1.00
H1777  H     0.16561   0.93934   0.88631   0.00000  Uiso   1.00
H1778  H     0.25179   0.67115   0.81231   0.00000  Uiso   1.00
H1779  H     0.23235   0.67933   0.86814   0.00000  Uiso   1.00
H1780  H     0.25810   0.72470   0.84175   0.00000  Uiso   1.00
H1781  H     0.28590   0.84119   0.85454   0.00000  Uiso   1.00
H1782  H     0.20798   0.94862   0.65737   0.00000  Uiso   1.00
H1783  H     0.17869   0.99538   0.63096   0.00000  Uiso   1.00
H1784  H     0.17255   0.93735   0.61349   0.00000  Uiso   1.00
H1785  H     0.04472   0.85471   0.63856   0.00000  Uiso   1.00
H1786  H     0.08527   0.81409   0.65168   0.00000  Uiso   1.00
H1787  H     0.06641   0.81951   0.59468   0.00000  Uiso   1.00
H1788  H     0.02982   0.84235   0.88434   0.00000  Uiso   1.00
H1789  H     0.26059   0.72274   0.62239   0.00000  Uiso   1.00
H1790  H     0.12129   0.95754   0.94506   0.00000  Uiso   1.00
N1791  N     0.16667   0.95069   0.75000   0.00000  Uiso   1.00
N1792  N     0.16667   0.71598   0.75000   0.00000  Uiso   1.00
O1793  O     0.10655   0.87291   0.74999   0.00000  Uiso   1.00
O1794  O     0.10180   0.87344   0.61919   0.00000  Uiso   1.00
O1795  O     0.08646   0.87748   0.84942   0.00000  Uiso   1.00
O1796  O     0.05559   0.83619   0.90251   0.00000  Uiso   1.00
O1797  O     0.25271   0.80263   0.64582   0.00000  Uiso   1.00
O1798  O     0.23711   0.73847   0.60572   0.00000  Uiso   1.00
O1799  O     0.07389   0.91081   0.95504   0.00000  Uiso   1.00
O1800  O     0.27470   0.79334   0.54308   0.00000  Uiso   1.00
O1801  O     0.03650   0.91033   0.53994   0.00000  Uiso   1.00
O1802  O     0.08526   0.95162   0.57475   0.00000  Uiso   1.00
O1803  O     0.26253   0.73868   0.93343   0.00000  Uiso   1.00
O1804  O     0.22679   0.79375   0.75001   0.00000  Uiso   1.00
O1805  O     0.31028   0.78883   0.95636   0.00000  Uiso   1.00
O1806  O     0.05726   0.76671   0.82918   0.00000  Uiso   1.00
O1807  O     0.05149   0.71391   0.77360   0.00000  Uiso   1.00
O1808  O     0.27999   0.91279   0.67575   0.00000  Uiso   1.00
O1809  O     0.27509   0.94924   0.74302   0.00000  Uiso   1.00
O1810  O     0.30398   0.71349   0.77240   0.00000  Uiso   1.00
O1811  O     0.27880   0.73632   0.70555   0.00000  Uiso   1.00
O1812  O     0.05226   0.93911   0.77434   0.00000  Uiso   1.00
O1813  O     0.03530   0.94699   0.70143   0.00000  Uiso   1.00
O1814  O     0.13928   0.71600   0.67698   0.00000  Uiso   1.00
O1815  O     0.22679   0.87291   0.75000   0.00000  Uiso   1.00
O1816  O     0.18946   0.95252   0.82520   0.00000  Uiso   1.00
O1817  O     0.19918   0.71577   0.82048   0.00000  Uiso   1.00
O1818  O     0.14566   0.95364   0.67367   0.00000  Uiso   1.00
O1819  O     0.10655   0.79375   0.74999   0.00000  Uiso   1.00
O1820  O     0.16666   0.87293   0.68513   0.00000  Uiso   1.00
O1821  O     0.16668   0.79373   0.81487   0.00000  Uiso   1.00
O1822  O     0.16668   0.87293   0.81487   0.00000  Uiso   1.00
O1823  O     0.16666   0.79373   0.68513   0.00000  Uiso   1.00
O1824  O     0.23564   0.81065   0.88020   0.00000  Uiso   1.00
C1825  C     0.42089   0.83424   0.75284   0.00000  Uiso   1.00
C1826  C     0.37595   0.83594   0.75612   0.00000  Uiso   1.00
C1827  C     0.48486   0.69197   0.71450   0.00000  Uiso   1.00
C1828  C     0.51212   0.97546   0.78678   0.00000  Uiso   1.00
C1829  C     0.51600   0.69139   0.78514   0.00000  Uiso   1.00
C1830  C     0.48831   0.97589   0.71299   0.00000  Uiso   1.00
C1831  C     0.50018   0.83317   0.66469   0.00000  Uiso   1.00
C1832  C     0.49848   0.83368   0.83522   0.00000  Uiso   1.00
C1833  C     0.53469   0.82217   0.90543   0.00000  Uiso   1.00
C1834  C     0.46771   0.85568   0.59426   0.00000  Uiso   1.00
C1835  C     0.49836   0.83495   0.88348   0.00000  Uiso   1.00
C1836  C     0.57925   0.83252   0.74712   0.00000  Uiso   1.00
C1837  C     0.50050   0.83339   0.61631   0.00000  Uiso   1.00
C1838  C     0.46351   0.85093   0.90709   0.00000  Uiso   1.00
C1839  C     0.53394   0.81389   0.59289   0.00000  Uiso   1.00
C1840  C     0.46665   0.85780   0.95358   0.00000  Uiso   1.00
C1841  C     0.53606   0.81930   0.54634   0.00000  Uiso   1.00
C1842  C     0.50154   0.83951   0.97646   0.00000  Uiso   1.00
C1843  C     0.50210   0.83987   0.52347   0.00000  Uiso   1.00
C1844  C     0.53542   0.82000   0.95231   0.00000  Uiso   1.00
C1845  C     0.46870   0.86063   0.54754   0.00000  Uiso   1.00
C1846  C     0.43670   0.88433   0.97747   0.00000  Uiso   1.00
C1847  C     0.43742   0.88561   0.52411   0.00000  Uiso   1.00
C1848  C     0.57146   0.80506   0.52199   0.00000  Uiso   1.00
C1849  C     0.59171   0.85061   0.87454   0.00000  Uiso   1.00
C1850  C     0.40704   0.83845   0.62597   0.00000  Uiso   1.00
C1851  C     0.42321   0.85596   0.88399   0.00000  Uiso   1.00
C1852  C     0.56492   0.78518   0.61706   0.00000  Uiso   1.00
C1853  C     0.42099   0.95611   0.95001   0.00000  Uiso   1.00
C1854  C     0.62903   0.83425   0.55155   0.00000  Uiso   1.00
C1855  C     0.40621   0.91581   0.54683   0.00000  Uiso   1.00
C1856  C     0.60342   0.77427   0.95350   0.00000  Uiso   1.00
C1857  C     0.37758   0.75784   0.79204   0.00000  Uiso   1.00
C1858  C     0.56981   0.80136   0.97568   0.00000  Uiso   1.00
C1859  C     0.62172   0.91283   0.71537   0.00000  Uiso   1.00
C1860  C     0.63188   0.74465   0.74587   0.00000  Uiso   1.00
C1861  C     0.37083   0.92206   0.74086   0.00000  Uiso   1.00
C1862  C     0.43058   0.71126   0.66878   0.00000  Uiso   1.00
C1863  C     0.49210   0.96161   0.85733   0.00000  Uiso   1.00
C1864  C     0.57019   0.69633   0.83577   0.00000  Uiso   1.00
C1865  C     0.51111   0.95944   0.64307   0.00000  Uiso   1.00
C1866  C     0.35594   0.79492   0.76614   0.00000  Uiso   1.00
C1867  C     0.64438   0.87276   0.73483   0.00000  Uiso   1.00
C1868  C     0.64797   0.79105   0.75450   0.00000  Uiso   1.00
C1869  C     0.35291   0.87583   0.74299   0.00000  Uiso   1.00
C1870  C     0.62446   0.83139   0.74366   0.00000  Uiso   1.00
Cu1871 Cu    0.50000   0.88022   0.75000   0.00000  Uiso   1.00
Cu1872 Cu    0.50000   0.78645   0.75000   0.00000  Uiso   1.00
H1873  H     0.60229   0.86470   0.90699   0.00000  Uiso   1.00
H1874  H     0.41203   0.97778   0.97925   0.00000  Uiso   1.00
H1875  H     0.40587   0.97155   0.92033   0.00000  Uiso   1.00
H1876  H     0.61170   0.85781   0.57470   0.00000  Uiso   1.00
H1877  H     0.63561   0.85266   0.52026   0.00000  Uiso   1.00
H1878  H     0.65873   0.82493   0.56761   0.00000  Uiso   1.00
H1879  H     0.39459   0.97006   0.58795   0.00000  Uiso   1.00
H1880  H     0.66365   0.76737   0.93991   0.00000  Uiso   1.00
H1881  H     0.40148   0.69289   0.79406   0.00000  Uiso   1.00
H1882  H     0.58727   0.97009   0.72794   0.00000  Uiso   1.00
H1883  H     0.60360   0.70340   0.70188   0.00000  Uiso   1.00
H1884  H     0.57390   0.87770   0.85611   0.00000  Uiso   1.00
H1885  H     0.37748   0.97978   0.70591   0.00000  Uiso   1.00
H1886  H     0.41189   0.72325   0.69754   0.00000  Uiso   1.00
H1887  H     0.42358   0.67556   0.65873   0.00000  Uiso   1.00
H1888  H     0.42166   0.73328   0.64021   0.00000  Uiso   1.00
H1889  H     0.46123   0.95327   0.84451   0.00000  Uiso   1.00
H1890  H     0.49175   0.99795   0.86940   0.00000  Uiso   1.00
H1891  H     0.49895   0.93934   0.88631   0.00000  Uiso   1.00
H1892  H     0.58512   0.67115   0.81231   0.00000  Uiso   1.00
H1893  H     0.56569   0.67933   0.86814   0.00000  Uiso   1.00
H1894  H     0.59143   0.72470   0.84175   0.00000  Uiso   1.00
H1895  H     0.61924   0.84119   0.85454   0.00000  Uiso   1.00
H1896  H     0.54131   0.94862   0.65737   0.00000  Uiso   1.00
H1897  H     0.51202   0.99538   0.63096   0.00000  Uiso   1.00
H1898  H     0.50588   0.93735   0.61349   0.00000  Uiso   1.00
H1899  H     0.37806   0.85471   0.63856   0.00000  Uiso   1.00
H1900  H     0.41860   0.81409   0.65168   0.00000  Uiso   1.00
H1901  H     0.39974   0.81951   0.59468   0.00000  Uiso   1.00
H1902  H     0.36315   0.84235   0.88434   0.00000  Uiso   1.00
H1903  H     0.59392   0.72274   0.62239   0.00000  Uiso   1.00
H1904  H     0.45462   0.95754   0.94506   0.00000  Uiso   1.00
N1905  N     0.50000   0.95069   0.75000   0.00000  Uiso   1.00
N1906  N     0.50000   0.71598   0.75000   0.00000  Uiso   1.00
O1907  O     0.43988   0.87291   0.74999   0.00000  Uiso   1.00
O1908  O     0.43514   0.87344   0.61919   0.00000  Uiso   1.00
O1909  O     0.41979   0.87748   0.84942   0.00000  Uiso   1.00
O1910  O     0.38892   0.83619   0.90251   0.00000  Uiso   1.00
O1911  O     0.58604   0.80263   0.64582   0.00000  Uiso   1.00
O1912  O     0.57045   0.73847   0.60572   0.00000  Uiso   1.00
O1913  O     0.40722   0.91081   0.95504   0.00000  Uiso   1.00
O1914  O     0.60804   0.79334   0.54308   0.00000  Uiso   1.00
O1915  O     0.36984   0.91033   0.53994   0.00000  Uiso   1.00
O1916  O     0.41859   0.95162   0.57475   0.00000  Uiso   1.00
O1917  O     0.59586   0.73868   0.93343   0.00000  Uiso   1.00
O1918  O     0.56012   0.79375   0.75001   0.00000  Uiso   1.00
O1919  O     0.64361   0.78883   0.95636   0.00000  Uiso   1.00
O1920  O     0.39059   0.76671   0.82918   0.00000  Uiso   1.00
O1921  O     0.38482   0.71391   0.77360   0.00000  Uiso   1.00
O1922  O     0.61333   0.91279   0.67575   0.00000  Uiso   1.00
O1923  O     0.60842   0.94924   0.74302   0.00000  Uiso   1.00
O1924  O     0.63732   0.71349   0.77240   0.00000  Uiso   1.00
O1925  O     0.61213   0.73632   0.70555   0.00000  Uiso   1.00
O1926  O     0.38560   0.93911   0.77434   0.00000  Uiso   1.00
O1927  O     0.36864   0.94699   0.70143   0.00000  Uiso   1.00
O1928  O     0.47261   0.71600   0.67698   0.00000  Uiso   1.00
O1929  O     0.56012   0.87291   0.75000   0.00000  Uiso   1.00
O1930  O     0.52280   0.95252   0.82520   0.00000  Uiso   1.00
O1931  O     0.53251   0.71577   0.82048   0.00000  Uiso   1.00
O1932  O     0.47899   0.95364   0.67367   0.00000  Uiso   1.00
O1933  O     0.43988   0.79375   0.74999   0.00000  Uiso   1.00
O1934  O     0.49999   0.87293   0.68513   0.00000  Uiso   1.00
O1935  O     0.50001   0.79373   0.81487   0.00000  Uiso   1.00
O1936  O     0.50001   0.87293   0.81487   0.00000  Uiso   1.00
O1937  O     0.49999   0.79373   0.68513   0.00000  Uiso   1.00
O1938  O     0.56898   0.81065   0.88020   0.00000  Uiso   1.00
C1939  C     0.75422   0.83424   0.75284   0.00000  Uiso   1.00
C1940  C     0.70928   0.83594   0.75612   0.00000  Uiso   1.00
C1941  C     0.81819   0.69197   0.71450   0.00000  Uiso   1.00
C1942  C     0.84546   0.97546   0.78678   0.00000  Uiso   1.00
C1943  C     0.84934   0.69139   0.78514   0.00000  Uiso   1.00
C1944  C     0.82164   0.97589   0.71299   0.00000  Uiso   1.00
C1945  C     0.83351   0.83317   0.66469   0.00000  Uiso   1.00
C1946  C     0.83182   0.83368   0.83522   0.00000  Uiso   1.00
C1947  C     0.86802   0.82217   0.90543   0.00000  Uiso   1.00
C1948  C     0.80105   0.85568   0.59426   0.00000  Uiso   1.00
C1949  C     0.83169   0.83495   0.88348   0.00000  Uiso   1.00
C1950  C     0.91258   0.83252   0.74712   0.00000  Uiso   1.00
C1951  C     0.83384   0.83339   0.61631   0.00000  Uiso   1.00
C1952  C     0.79685   0.85093   0.90709   0.00000  Uiso   1.00
C1953  C     0.86728   0.81389   0.59289   0.00000  Uiso   1.00
C1954  C     0.79998   0.85780   0.95358   0.00000  Uiso   1.00
C1955  C     0.86939   0.81930   0.54634   0.00000  Uiso   1.00
C1956  C     0.83488   0.83951   0.97646   0.00000  Uiso   1.00
C1957  C     0.83543   0.83987   0.52347   0.00000  Uiso   1.00
C1958  C     0.86875   0.82000   0.95231   0.00000  Uiso   1.00
C1959  C     0.80203   0.86063   0.54754   0.00000  Uiso   1.00
C1960  C     0.77003   0.88433   0.97747   0.00000  Uiso   1.00
C1961  C     0.77076   0.88561   0.52411   0.00000  Uiso   1.00
C1962  C     0.90479   0.80506   0.52199   0.00000  Uiso   1.00
C1963  C     0.92505   0.85061   0.87454   0.00000  Uiso   1.00
C1964  C     0.74037   0.83845   0.62597   0.00000  Uiso   1.00
C1965  C     0.75654   0.85596   0.88399   0.00000  Uiso   1.00
C1966  C     0.89825   0.78518   0.61706   0.00000  Uiso   1.00
C1967  C     0.75433   0.95611   0.95001   0.00000  Uiso   1.00
C1968  C     0.96237   0.83425   0.55155   0.00000  Uiso   1.00
C1969  C     0.73954   0.91581   0.54683   0.00000  Uiso   1.00
C1970  C     0.93675   0.77427   0.95350   0.00000  Uiso   1.00
C1971  C     0.71091   0.75784   0.79204   0.00000  Uiso   1.00
C1972  C     0.90314   0.80136   0.97568   0.00000  Uiso   1.00
C1973  C     0.95506   0.91283   0.71537   0.00000  Uiso   1.00
C1974  C     0.96521   0.74465   0.74587   0.00000  Uiso   1.00
C1975  C     0.70416   0.92206   0.74086   0.00000  Uiso   1.00
C1976  C     0.76391   0.71126   0.66878   0.00000  Uiso   1.00
C1977  C     0.82543   0.96161   0.85733   0.00000  Uiso   1.00
C1978  C     0.90352   0.69633   0.83577   0.00000  Uiso   1.00
C1979  C     0.84445   0.95944   0.64307   0.00000  Uiso   1.00
C1980  C     0.68928   0.79492   0.76614   0.00000  Uiso   1.00
C1981  C     0.97771   0.87276   0.73483   0.00000  Uiso   1.00
C1982  C     0.98131   0.79105   0.75450   0.00000  Uiso   1.00
C1983  C     0.68624   0.87583   0.74299   0.00000  Uiso   1.00
C1984  C     0.95780   0.83139   0.74366   0.00000  Uiso   1.00
Cu1985 Cu    0.83333   0.88022   0.75000   0.00000  Uiso   1.00
Cu1986 Cu    0.83333   0.78645   0.75000   0.00000  Uiso   1.00
H1987  H     0.93562   0.86470   0.90699   0.00000  Uiso   1.00
H1988  H     0.74537   0.97778   0.97925   0.00000  Uiso   1.00
H1989  H     0.73920   0.97155   0.92033   0.00000  Uiso   1.00
H1990  H     0.94503   0.85781   0.57470   0.00000  Uiso   1.00
H1991  H     0.96894   0.85266   0.52026   0.00000  Uiso   1.00
H1992  H     0.99206   0.82493   0.56761   0.00000  Uiso   1.00
H1993  H     0.72792   0.97006   0.58795   0.00000  Uiso   1.00
H1994  H     0.99698   0.76737   0.93991   0.00000  Uiso   1.00
H1995  H     0.73481   0.69289   0.79406   0.00000  Uiso   1.00
H1996  H     0.92060   0.97009   0.72794   0.00000  Uiso   1.00
H1997  H     0.93693   0.70340   0.70188   0.00000  Uiso   1.00
H1998  H     0.90723   0.87770   0.85611   0.00000  Uiso   1.00
H1999  H     0.71081   0.97978   0.70591   0.00000  Uiso   1.00
H2000  H     0.74522   0.72325   0.69754   0.00000  Uiso   1.00
H2001  H     0.75692   0.67556   0.65873   0.00000  Uiso   1.00
H2002  H     0.75500   0.73328   0.64021   0.00000  Uiso   1.00
H2003  H     0.79456   0.95327   0.84451   0.00000  Uiso   1.00
H2004  H     0.82508   0.99795   0.86940   0.00000  Uiso   1.00
H2005  H     0.83228   0.93934   0.88631   0.00000  Uiso   1.00
H2006  H     0.91846   0.67115   0.81231   0.00000  Uiso   1.00
H2007  H     0.89902   0.67933   0.86814   0.00000  Uiso   1.00
H2008  H     0.92476   0.72470   0.84175   0.00000  Uiso   1.00
H2009  H     0.95257   0.84119   0.85454   0.00000  Uiso   1.00
H2010  H     0.87464   0.94862   0.65737   0.00000  Uiso   1.00
H2011  H     0.84536   0.99538   0.63096   0.00000  Uiso   1.00
H2012  H     0.83921   0.93735   0.61349   0.00000  Uiso   1.00
H2013  H     0.71139   0.85471   0.63856   0.00000  Uiso   1.00
H2014  H     0.75194   0.81409   0.65168   0.00000  Uiso   1.00
H2015  H     0.73308   0.81951   0.59468   0.00000  Uiso   1.00
H2016  H     0.69648   0.84235   0.88434   0.00000  Uiso   1.00
H2017  H     0.92725   0.72274   0.62239   0.00000  Uiso   1.00
H2018  H     0.78796   0.95754   0.94506   0.00000  Uiso   1.00
N2019  N     0.83333   0.95069   0.75000   0.00000  Uiso   1.00
N2020  N     0.83333   0.71598   0.75000   0.00000  Uiso   1.00
O2021  O     0.77321   0.87291   0.74999   0.00000  Uiso   1.00
O2022  O     0.76847   0.87344   0.61919   0.00000  Uiso   1.00
O2023  O     0.75312   0.87748   0.84942   0.00000  Uiso   1.00
O2024  O     0.72226   0.83619   0.90251   0.00000  Uiso   1.00
O2025  O     0.91938   0.80263   0.64582   0.00000  Uiso   1.00
O2026  O     0.90378   0.73847   0.60572   0.00000  Uiso   1.00
O2027  O     0.74055   0.91081   0.95504   0.00000  Uiso   1.00
O2028  O     0.94137   0.79334   0.54308   0.00000  Uiso   1.00
O2029  O     0.70317   0.91033   0.53994   0.00000  Uiso   1.00
O2030  O     0.75193   0.95162   0.57475   0.00000  Uiso   1.00
O2031  O     0.92920   0.73868   0.93343   0.00000  Uiso   1.00
O2032  O     0.89345   0.79375   0.75001   0.00000  Uiso   1.00
O2033  O     0.97695   0.78883   0.95636   0.00000  Uiso   1.00
O2034  O     0.72393   0.76671   0.82918   0.00000  Uiso   1.00
O2035  O     0.71816   0.71391   0.77360   0.00000  Uiso   1.00
O2036  O     0.94666   0.91279   0.67575   0.00000  Uiso   1.00
O2037  O     0.94176   0.94924   0.74302   0.00000  Uiso   1.00
O2038  O     0.97065   0.71349   0.77240   0.00000  Uiso   1.00
O2039  O     0.94547   0.73632   0.70555   0.00000  Uiso   1.00
O2040  O     0.71893   0.93911   0.77434   0.00000  Uiso   1.00
O2041  O     0.70197   0.94699   0.70143   0.00000  Uiso   1.00
O2042  O     0.80595   0.71600   0.67698   0.00000  Uiso   1.00
O2043  O     0.89345   0.87291   0.75000   0.00000  Uiso   1.00
O2044  O     0.85613   0.95252   0.82520   0.00000  Uiso   1.00
O2045  O     0.86584   0.71577   0.82048   0.00000  Uiso   1.00
O2046  O     0.81233   0.95364   0.67367   0.00000  Uiso   1.00
O2047  O     0.77321   0.79375   0.74999   0.00000  Uiso   1.00
O2048  O     0.83332   0.87293   0.68513   0.00000  Uiso   1.00
O2049  O     0.83334   0.79373   0.81487   0.00000  Uiso   1.00
O2050  O     0.83334   0.87293   0.81487   0.00000  Uiso   1.00
O2051  O     0.83332   0.79373   0.68513   0.00000  Uiso   1.00
O2052  O     0.90231   0.81065   0.88020   0.00000  Uiso   1.00
loop_
_geom_bond_atom_site_label_1
_geom_bond_atom_site_label_2
_geom_bond_distance
_geom_bond_site_symmetry_2
_ccdc_geom_bond_type
C1     C2      1.473   .     S
C1     O109    1.309   .     A
C1     O83     1.305   .     A
C2     C45     1.415   .     A
C2     C42     1.414   .     A
C3     O104    1.383   .     S
C3     N82     1.369   .     A
C3     C690    1.433   1_545 S
C4     N81     1.378   .     A
C4     O106    1.377   .     S
C4     C347    1.439   .     S
C5     O107    1.389   .     S
C5     N82     1.372   .     A
C5     C688    1.439   1_545 S
C6     N81     1.383   .     A
C6     O108    1.379   .     S
C6     C345    1.433   .     S
C7     O110    1.300   .     A
C7     O113    1.304   .     A
C7     C13     1.456   .     S
C8     O112    1.300   .     A
C8     O111    1.303   .     A
C8     C11     1.452   .     S
C9     O114    1.386   .     S
C9     C11     1.397   .     A
C9     C20     1.413   .     A
C10    C21     1.415   .     A
C10    C13     1.400   .     A
C10    O84     1.387   .     S
C11    C14     1.407   .     A
C12    O94     1.310   .     A
C12    C46     1.482   .     S
C12    O105    1.309   .     A
C13    C15     1.402   .     A
C14    C27     1.491   .     S
C14    C16     1.415   .     A
C15    C17     1.413   .     A
C15    C28     1.481   .     S
C16    C22     1.417   .     A
C16    C18     1.419   .     A
C17    C24     1.419   .     A
C17    C19     1.420   .     A
C18    C20     1.424   .     A
C18    C1045   1.415   .     S
C19    C21     1.425   .     A
C19    C1044   1.415   1_554 S
C20    C34     1.417   .     A
C21    C23     1.420   .     A
C22    O89     1.387   .     S
C22    C1049   1.404   .     S
C23    C31     1.485   .     S
C23    C1048   1.404   1_554 S
C24    O90     1.385   .     S
C24    C1060   1.397   1_554 S
C25    H71     1.110   .     S
C25    H60     1.112   .     S
C25    O114    1.412   .     S
C25    H49     1.113   .     S
C26    H76     1.109   .     S
C26    H77     1.114   .     S
C26    H75     1.110   .     S
C26    O84     1.411   .     S
C27    O85     1.221   .     D
C27    O86     1.399   .     S
C28    O88     1.398   .     S
C28    O87     1.222   .     D
C29    O89     1.414   .     S
C29    H51     1.109   .     S
C29    H50     1.110   .     S
C29    H80     1.113   .     S
C30    O90     1.412   .     S
C30    H54     1.109   .     S
C30    H53     1.113   .     S
C30    H52     1.113   .     S
C31    O91     1.223   .     D
C31    O92     1.398   .     S
C32    O93     1.222   .     D
C32    O95     1.398   .     S
C32    C34     1.484   .     S
C33    O97     1.396   .     S
C33    C42     1.490   .     S
C33    O96     1.222   .     D
C34    C1050   1.397   .     S
C35    O98     1.222   .     D
C35    C43     1.479   .     S
C35    O99     1.395   .     S
C36    O101    1.395   .     S
C36    O100    1.219   .     D
C36    C44     1.482   .     S
C37    O102    1.223   .     D
C37    O103    1.396   .     S
C37    C45     1.484   .     S
C38    O104    1.407   .     S
C38    H64     1.108   .     S
C38    H63     1.106   .     S
C38    H62     1.108   .     S
C39    O106    1.413   .     S
C39    H65     1.113   .     S
C39    H66     1.110   .     S
C39    H67     1.108   .     S
C40    H70     1.109   .     S
C40    H69     1.109   .     S
C40    O107    1.413   .     S
C40    H68     1.112   .     S
C41    O108    1.416   .     S
C41    H74     1.107   .     S
C41    H72     1.112   .     S
C41    H73     1.109   .     S
C42    C272    1.402   1_455 S
C43    C46     1.414   .     A
C43    C159    1.396   .     S
C44    C46     1.416   .     A
C44    C156    1.402   .     S
C45    C271    1.396   1_455 S
Cu47   O112    1.966   .     S
Cu47   O105    1.970   .     S
Cu47   O83     1.986   .     S
Cu47   Cu48    2.718   .     S
Cu47   O110    1.961   .     S
Cu47   N81     2.042   .     S
Cu48   O94     1.986   .     S
Cu48   N82     2.042   .     S
Cu48   O109    1.970   .     S
Cu48   O111    1.961   .     S
Cu48   O113    1.966   .     S
H55    O92     1.014   .     S
H56    O95     1.014   .     S
H57    O97     1.014   .     S
H58    O99     1.011   .     S
H59    O101    1.009   .     S
H61    O103    1.011   .     S
H78    O86     1.014   .     S
H79    O88     1.012   .     S
C115   C116    1.473   .     S
C115   O223    1.309   .     A
C115   O197    1.305   .     A
C116   C159    1.415   .     A
C116   C156    1.414   .     A
C117   O218    1.383   .     S
C117   N196    1.369   .     A
C117   C804    1.433   1_545 S
C118   N195    1.378   .     A
C118   O220    1.377   .     S
C118   C461    1.439   .     S
C119   O221    1.389   .     S
C119   N196    1.372   .     A
C119   C802    1.439   1_545 S
C120   N195    1.383   .     A
C120   O222    1.379   .     S
C120   C459    1.433   .     S
C121   O224    1.300   .     A
C121   O227    1.304   .     A
C121   C127    1.456   .     S
C122   O226    1.300   .     A
C122   O225    1.303   .     A
C122   C125    1.452   .     S
C123   O228    1.386   .     S
C123   C125    1.397   .     A
C123   C134    1.413   .     A
C124   C135    1.415   .     A
C124   C127    1.400   .     A
C124   O198    1.387   .     S
C125   C128    1.407   .     A
C126   O208    1.310   .     A
C126   C160    1.482   .     S
C126   O219    1.309   .     A
C127   C129    1.402   .     A
C128   C141    1.491   .     S
C128   C130    1.415   .     A
C129   C131    1.413   .     A
C129   C142    1.481   .     S
C130   C136    1.417   .     A
C130   C132    1.419   .     A
C131   C138    1.419   .     A
C131   C133    1.420   .     A
C132   C134    1.424   .     A
C132   C1159   1.415   .     S
C133   C135    1.425   .     A
C133   C1158   1.415   1_554 S
C134   C148    1.417   .     A
C135   C137    1.420   .     A
C136   O203    1.387   .     S
C136   C1163   1.404   .     S
C137   C145    1.485   .     S
C137   C1162   1.404   1_554 S
C138   O204    1.385   .     S
C138   C1174   1.397   1_554 S
C139   H185    1.110   .     S
C139   H174    1.112   .     S
C139   O228    1.412   .     S
C139   H163    1.113   .     S
C140   H190    1.109   .     S
C140   H191    1.114   .     S
C140   H189    1.110   .     S
C140   O198    1.411   .     S
C141   O199    1.221   .     D
C141   O200    1.399   .     S
C142   O202    1.398   .     S
C142   O201    1.222   .     D
C143   O203    1.414   .     S
C143   H165    1.109   .     S
C143   H164    1.110   .     S
C143   H194    1.113   .     S
C144   O204    1.412   .     S
C144   H168    1.109   .     S
C144   H167    1.113   .     S
C144   H166    1.113   .     S
C145   O205    1.223   .     D
C145   O206    1.398   .     S
C146   O207    1.222   .     D
C146   O209    1.398   .     S
C146   C148    1.484   .     S
C147   O211    1.396   .     S
C147   C156    1.490   .     S
C147   O210    1.222   .     D
C148   C1164   1.397   .     S
C149   O212    1.222   .     D
C149   C157    1.479   .     S
C149   O213    1.395   .     S
C150   O215    1.395   .     S
C150   O214    1.219   .     D
C150   C158    1.482   .     S
C151   O216    1.223   .     D
C151   O217    1.396   .     S
C151   C159    1.484   .     S
C152   O218    1.407   .     S
C152   H178    1.108   .     S
C152   H177    1.106   .     S
C152   H176    1.108   .     S
C153   O220    1.413   .     S
C153   H179    1.113   .     S
C153   H180    1.110   .     S
C153   H181    1.108   .     S
C154   H184    1.109   .     S
C154   H183    1.109   .     S
C154   O221    1.413   .     S
C154   H182    1.112   .     S
C155   O222    1.416   .     S
C155   H188    1.107   .     S
C155   H186    1.112   .     S
C155   H187    1.109   .     S
C157   C160    1.414   .     A
C157   C273    1.396   .     S
C158   C160    1.416   .     A
C158   C270    1.402   .     S
Cu161  O226    1.966   .     S
Cu161  O219    1.970   .     S
Cu161  O197    1.986   .     S
Cu161  Cu162   2.718   .     S
Cu161  O224    1.961   .     S
Cu161  N195    2.042   .     S
Cu162  O208    1.986   .     S
Cu162  N196    2.042   .     S
Cu162  O223    1.970   .     S
Cu162  O225    1.961   .     S
Cu162  O227    1.966   .     S
H169   O206    1.014   .     S
H170   O209    1.014   .     S
H171   O211    1.014   .     S
H172   O213    1.011   .     S
H173   O215    1.009   .     S
H175   O217    1.011   .     S
H192   O200    1.014   .     S
H193   O202    1.012   .     S
C229   C230    1.473   .     S
C229   O337    1.309   .     A
C229   O311    1.305   .     A
C230   C273    1.415   .     A
C230   C270    1.414   .     A
C231   O332    1.383   .     S
C231   N310    1.369   .     A
C231   C918    1.433   1_545 S
C232   N309    1.378   .     A
C232   O334    1.377   .     S
C232   C575    1.439   .     S
C233   O335    1.389   .     S
C233   N310    1.372   .     A
C233   C916    1.439   1_545 S
C234   N309    1.383   .     A
C234   O336    1.379   .     S
C234   C573    1.433   .     S
C235   O338    1.300   .     A
C235   O341    1.304   .     A
C235   C241    1.456   .     S
C236   O340    1.300   .     A
C236   O339    1.303   .     A
C236   C239    1.452   .     S
C237   O342    1.386   .     S
C237   C239    1.397   .     A
C237   C248    1.413   .     A
C238   C249    1.415   .     A
C238   C241    1.400   .     A
C238   O312    1.387   .     S
C239   C242    1.407   .     A
C240   O322    1.310   .     A
C240   C274    1.482   .     S
C240   O333    1.309   .     A
C241   C243    1.402   .     A
C242   C255    1.491   .     S
C242   C244    1.415   .     A
C243   C245    1.413   .     A
C243   C256    1.481   .     S
C244   C250    1.417   .     A
C244   C246    1.419   .     A
C245   C252    1.419   .     A
C245   C247    1.420   .     A
C246   C248    1.424   .     A
C246   C1273   1.415   .     S
C247   C249    1.425   .     A
C247   C1272   1.415   1_554 S
C248   C262    1.417   .     A
C249   C251    1.420   .     A
C250   O317    1.387   .     S
C250   C1277   1.404   .     S
C251   C259    1.485   .     S
C251   C1276   1.404   1_554 S
C252   O318    1.385   .     S
C252   C1288   1.397   1_554 S
C253   H299    1.110   .     S
C253   H288    1.112   .     S
C253   O342    1.412   .     S
C253   H277    1.113   .     S
C254   H304    1.109   .     S
C254   H305    1.114   .     S
C254   H303    1.110   .     S
C254   O312    1.411   .     S
C255   O313    1.221   .     D
C255   O314    1.399   .     S
C256   O316    1.398   .     S
C256   O315    1.222   .     D
C257   O317    1.414   .     S
C257   H279    1.109   .     S
C257   H278    1.110   .     S
C257   H308    1.113   .     S
C258   O318    1.412   .     S
C258   H282    1.109   .     S
C258   H281    1.113   .     S
C258   H280    1.113   .     S
C259   O319    1.223   .     D
C259   O320    1.398   .     S
C260   O321    1.222   .     D
C260   O323    1.398   .     S
C260   C262    1.484   .     S
C261   O325    1.396   .     S
C261   C270    1.490   .     S
C261   O324    1.222   .     D
C262   C1278   1.397   .     S
C263   O326    1.222   .     D
C263   C271    1.479   .     S
C263   O327    1.395   .     S
C264   O329    1.395   .     S
C264   O328    1.219   .     D
C264   C272    1.482   .     S
C265   O330    1.223   .     D
C265   O331    1.396   .     S
C265   C273    1.484   .     S
C266   O332    1.407   .     S
C266   H292    1.108   .     S
C266   H291    1.106   .     S
C266   H290    1.108   .     S
C267   O334    1.413   .     S
C267   H293    1.113   .     S
C267   H294    1.110   .     S
C267   H295    1.108   .     S
C268   H298    1.109   .     S
C268   H297    1.109   .     S
C268   O335    1.413   .     S
C268   H296    1.112   .     S
C269   O336    1.416   .     S
C269   H302    1.107   .     S
C269   H300    1.112   .     S
C269   H301    1.109   .     S
C271   C274    1.414   .     A
C271   C45     1.396   1_655 S
C272   C274    1.416   .     A
C272   C42     1.402   1_655 S
Cu275  O340    1.966   .     S
Cu275  O333    1.970   .     S
Cu275  O311    1.986   .     S
Cu275  Cu276   2.718   .     S
Cu275  O338    1.961   .     S
Cu275  N309    2.042   .     S
Cu276  O322    1.986   .     S
Cu276  N310    2.042   .     S
Cu276  O337    1.970   .     S
Cu276  O339    1.961   .     S
Cu276  O341    1.966   .     S
H283   O320    1.014   .     S
H284   O323    1.014   .     S
H285   O325    1.014   .     S
H286   O327    1.011   .     S
H287   O329    1.009   .     S
H289   O331    1.011   .     S
H306   O314    1.014   .     S
H307   O316    1.012   .     S
C343   C344    1.473   .     S
C343   O451    1.309   .     A
C343   O425    1.305   .     A
C344   C387    1.415   .     A
C344   C384    1.414   .     A
C345   O446    1.383   .     S
C345   N424    1.369   .     A
C346   N423    1.378   .     A
C346   O448    1.377   .     S
C346   C689    1.439   .     S
C347   O449    1.389   .     S
C347   N424    1.372   .     A
C348   N423    1.383   .     A
C348   O450    1.379   .     S
C348   C687    1.433   .     S
C349   O452    1.300   .     A
C349   O455    1.304   .     A
C349   C355    1.456   .     S
C350   O454    1.300   .     A
C350   O453    1.303   .     A
C350   C353    1.452   .     S
C351   O456    1.386   .     S
C351   C353    1.397   .     A
C351   C362    1.413   .     A
C352   C363    1.415   .     A
C352   C355    1.400   .     A
C352   O426    1.387   .     S
C353   C356    1.407   .     A
C354   O436    1.310   .     A
C354   C388    1.482   .     S
C354   O447    1.309   .     A
C355   C357    1.402   .     A
C356   C369    1.491   .     S
C356   C358    1.415   .     A
C357   C359    1.413   .     A
C357   C370    1.481   .     S
C358   C364    1.417   .     A
C358   C360    1.419   .     A
C359   C366    1.419   .     A
C359   C361    1.420   .     A
C360   C362    1.424   .     A
C360   C1387   1.415   .     S
C361   C363    1.425   .     A
C361   C1386   1.415   1_554 S
C362   C376    1.417   .     A
C363   C365    1.420   .     A
C364   O431    1.387   .     S
C364   C1391   1.404   .     S
C365   C373    1.485   .     S
C365   C1390   1.404   1_554 S
C366   O432    1.385   .     S
C366   C1402   1.397   1_554 S
C367   H413    1.110   .     S
C367   H402    1.112   .     S
C367   O456    1.412   .     S
C367   H391    1.113   .     S
C368   H418    1.109   .     S
C368   H419    1.114   .     S
C368   H417    1.110   .     S
C368   O426    1.411   .     S
C369   O427    1.221   .     D
C369   O428    1.399   .     S
C370   O430    1.398   .     S
C370   O429    1.222   .     D
C371   O431    1.414   .     S
C371   H393    1.109   .     S
C371   H392    1.110   .     S
C371   H422    1.113   .     S
C372   O432    1.412   .     S
C372   H396    1.109   .     S
C372   H395    1.113   .     S
C372   H394    1.113   .     S
C373   O433    1.223   .     D
C373   O434    1.398   .     S
C374   O435    1.222   .     D
C374   O437    1.398   .     S
C374   C376    1.484   .     S
C375   O439    1.396   .     S
C375   C384    1.490   .     S
C375   O438    1.222   .     D
C376   C1392   1.397   .     S
C377   O440    1.222   .     D
C377   C385    1.479   .     S
C377   O441    1.395   .     S
C378   O443    1.395   .     S
C378   O442    1.219   .     D
C378   C386    1.482   .     S
C379   O444    1.223   .     D
C379   O445    1.396   .     S
C379   C387    1.484   .     S
C380   O446    1.407   .     S
C380   H406    1.108   .     S
C380   H405    1.106   .     S
C380   H404    1.108   .     S
C381   O448    1.413   .     S
C381   H407    1.113   .     S
C381   H408    1.110   .     S
C381   H409    1.108   .     S
C382   H412    1.109   .     S
C382   H411    1.109   .     S
C382   O449    1.413   .     S
C382   H410    1.112   .     S
C383   O450    1.416   .     S
C383   H416    1.107   .     S
C383   H414    1.112   .     S
C383   H415    1.109   .     S
C384   C614    1.402   1_455 S
C385   C388    1.414   .     A
C385   C501    1.396   .     S
C386   C388    1.416   .     A
C386   C498    1.402   .     S
C387   C613    1.396   1_455 S
Cu389  O454    1.966   .     S
Cu389  O447    1.970   .     S
Cu389  O425    1.986   .     S
Cu389  Cu390   2.718   .     S
Cu389  O452    1.961   .     S
Cu389  N423    2.042   .     S
Cu390  O436    1.986   .     S
Cu390  N424    2.042   .     S
Cu390  O451    1.970   .     S
Cu390  O453    1.961   .     S
Cu390  O455    1.966   .     S
H397   O434    1.014   .     S
H398   O437    1.014   .     S
H399   O439    1.014   .     S
H400   O441    1.011   .     S
H401   O443    1.009   .     S
H403   O445    1.011   .     S
H420   O428    1.014   .     S
H421   O430    1.012   .     S
C457   C458    1.473   .     S
C457   O565    1.309   .     A
C457   O539    1.305   .     A
C458   C501    1.415   .     A
C458   C498    1.414   .     A
C459   O560    1.383   .     S
C459   N538    1.369   .     A
C460   N537    1.378   .     A
C460   O562    1.377   .     S
C460   C803    1.439   .     S
C461   O563    1.389   .     S
C461   N538    1.372   .     A
C462   N537    1.383   .     A
C462   O564    1.379   .     S
C462   C801    1.433   .     S
C463   O566    1.300   .     A
C463   O569    1.304   .     A
C463   C469    1.456   .     S
C464   O568    1.300   .     A
C464   O567    1.303   .     A
C464   C467    1.452   .     S
C465   O570    1.386   .     S
C465   C467    1.397   .     A
C465   C476    1.413   .     A
C466   C477    1.415   .     A
C466   C469    1.400   .     A
C466   O540    1.387   .     S
C467   C470    1.407   .     A
C468   O550    1.310   .     A
C468   C502    1.482   .     S
C468   O561    1.309   .     A
C469   C471    1.402   .     A
C470   C483    1.491   .     S
C470   C472    1.415   .     A
C471   C473    1.413   .     A
C471   C484    1.481   .     S
C472   C478    1.417   .     A
C472   C474    1.419   .     A
C473   C480    1.419   .     A
C473   C475    1.420   .     A
C474   C476    1.424   .     A
C474   C1501   1.415   .     S
C475   C477    1.425   .     A
C475   C1500   1.415   1_554 S
C476   C490    1.417   .     A
C477   C479    1.420   .     A
C478   O545    1.387   .     S
C478   C1505   1.404   .     S
C479   C487    1.485   .     S
C479   C1504   1.404   1_554 S
C480   O546    1.385   .     S
C480   C1516   1.397   1_554 S
C481   H527    1.110   .     S
C481   H516    1.112   .     S
C481   O570    1.412   .     S
C481   H505    1.113   .     S
C482   H532    1.109   .     S
C482   H533    1.114   .     S
C482   H531    1.110   .     S
C482   O540    1.411   .     S
C483   O541    1.221   .     D
C483   O542    1.399   .     S
C484   O544    1.398   .     S
C484   O543    1.222   .     D
C485   O545    1.414   .     S
C485   H507    1.109   .     S
C485   H506    1.110   .     S
C485   H536    1.113   .     S
C486   O546    1.412   .     S
C486   H510    1.109   .     S
C486   H509    1.113   .     S
C486   H508    1.113   .     S
C487   O547    1.223   .     D
C487   O548    1.398   .     S
C488   O549    1.222   .     D
C488   O551    1.398   .     S
C488   C490    1.484   .     S
C489   O553    1.396   .     S
C489   C498    1.490   .     S
C489   O552    1.222   .     D
C490   C1506   1.397   .     S
C491   O554    1.222   .     D
C491   C499    1.479   .     S
C491   O555    1.395   .     S
C492   O557    1.395   .     S
C492   O556    1.219   .     D
C492   C500    1.482   .     S
C493   O558    1.223   .     D
C493   O559    1.396   .     S
C493   C501    1.484   .     S
C494   O560    1.407   .     S
C494   H520    1.108   .     S
C494   H519    1.106   .     S
C494   H518    1.108   .     S
C495   O562    1.413   .     S
C495   H521    1.113   .     S
C495   H522    1.110   .     S
C495   H523    1.108   .     S
C496   H526    1.109   .     S
C496   H525    1.109   .     S
C496   O563    1.413   .     S
C496   H524    1.112   .     S
C497   O564    1.416   .     S
C497   H530    1.107   .     S
C497   H528    1.112   .     S
C497   H529    1.109   .     S
C499   C502    1.414   .     A
C499   C615    1.396   .     S
C500   C502    1.416   .     A
C500   C612    1.402   .     S
Cu503  O568    1.966   .     S
Cu503  O561    1.970   .     S
Cu503  O539    1.986   .     S
Cu503  Cu504   2.718   .     S
Cu503  O566    1.961   .     S
Cu503  N537    2.042   .     S
Cu504  O550    1.986   .     S
Cu504  N538    2.042   .     S
Cu504  O565    1.970   .     S
Cu504  O567    1.961   .     S
Cu504  O569    1.966   .     S
H511   O548    1.014   .     S
H512   O551    1.014   .     S
H513   O553    1.014   .     S
H514   O555    1.011   .     S
H515   O557    1.009   .     S
H517   O559    1.011   .     S
H534   O542    1.014   .     S
H535   O544    1.012   .     S
C571   C572    1.473   .     S
C571   O679    1.309   .     A
C571   O653    1.305   .     A
C572   C615    1.415   .     A
C572   C612    1.414   .     A
C573   O674    1.383   .     S
C573   N652    1.369   .     A
C574   N651    1.378   .     A
C574   O676    1.377   .     S
C574   C917    1.439   .     S
C575   O677    1.389   .     S
C575   N652    1.372   .     A
C576   N651    1.383   .     A
C576   O678    1.379   .     S
C576   C915    1.433   .     S
C577   O680    1.300   .     A
C577   O683    1.304   .     A
C577   C583    1.456   .     S
C578   O682    1.300   .     A
C578   O681    1.303   .     A
C578   C581    1.452   .     S
C579   O684    1.386   .     S
C579   C581    1.397   .     A
C579   C590    1.413   .     A
C580   C591    1.415   .     A
C580   C583    1.400   .     A
C580   O654    1.387   .     S
C581   C584    1.407   .     A
C582   O664    1.310   .     A
C582   C616    1.482   .     S
C582   O675    1.309   .     A
C583   C585    1.402   .     A
C584   C597    1.491   .     S
C584   C586    1.415   .     A
C585   C587    1.413   .     A
C585   C598    1.481   .     S
C586   C592    1.417   .     A
C586   C588    1.419   .     A
C587   C594    1.419   .     A
C587   C589    1.420   .     A
C588   C590    1.424   .     A
C588   C1615   1.415   .     S
C589   C591    1.425   .     A
C589   C1614   1.415   1_554 S
C590   C604    1.417   .     A
C591   C593    1.420   .     A
C592   O659    1.387   .     S
C592   C1619   1.404   .     S
C593   C601    1.485   .     S
C593   C1618   1.404   1_554 S
C594   O660    1.385   .     S
C594   C1630   1.397   1_554 S
C595   H641    1.110   .     S
C595   H630    1.112   .     S
C595   O684    1.412   .     S
C595   H619    1.113   .     S
C596   H646    1.109   .     S
C596   H647    1.114   .     S
C596   H645    1.110   .     S
C596   O654    1.411   .     S
C597   O655    1.221   .     D
C597   O656    1.399   .     S
C598   O658    1.398   .     S
C598   O657    1.222   .     D
C599   O659    1.414   .     S
C599   H621    1.109   .     S
C599   H620    1.110   .     S
C599   H650    1.113   .     S
C600   O660    1.412   .     S
C600   H624    1.109   .     S
C600   H623    1.113   .     S
C600   H622    1.113   .     S
C601   O661    1.223   .     D
C601   O662    1.398   .     S
C602   O663    1.222   .     D
C602   O665    1.398   .     S
C602   C604    1.484   .     S
C603   O667    1.396   .     S
C603   C612    1.490   .     S
C603   O666    1.222   .     D
C604   C1620   1.397   .     S
C605   O668    1.222   .     D
C605   C613    1.479   .     S
C605   O669    1.395   .     S
C606   O671    1.395   .     S
C606   O670    1.219   .     D
C606   C614    1.482   .     S
C607   O672    1.223   .     D
C607   O673    1.396   .     S
C607   C615    1.484   .     S
C608   O674    1.407   .     S
C608   H634    1.108   .     S
C608   H633    1.106   .     S
C608   H632    1.108   .     S
C609   O676    1.413   .     S
C609   H635    1.113   .     S
C609   H636    1.110   .     S
C609   H637    1.108   .     S
C610   H640    1.109   .     S
C610   H639    1.109   .     S
C610   O677    1.413   .     S
C610   H638    1.112   .     S
C611   O678    1.416   .     S
C611   H644    1.107   .     S
C611   H642    1.112   .     S
C611   H643    1.109   .     S
C613   C616    1.414   .     A
C613   C387    1.396   1_655 S
C614   C616    1.416   .     A
C614   C384    1.402   1_655 S
Cu617  O682    1.966   .     S
Cu617  O675    1.970   .     S
Cu617  O653    1.986   .     S
Cu617  Cu618   2.718   .     S
Cu617  O680    1.961   .     S
Cu617  N651    2.042   .     S
Cu618  O664    1.986   .     S
Cu618  N652    2.042   .     S
Cu618  O679    1.970   .     S
Cu618  O681    1.961   .     S
Cu618  O683    1.966   .     S
H625   O662    1.014   .     S
H626   O665    1.014   .     S
H627   O667    1.014   .     S
H628   O669    1.011   .     S
H629   O671    1.009   .     S
H631   O673    1.011   .     S
H648   O656    1.014   .     S
H649   O658    1.012   .     S
C685   C686    1.473   .     S
C685   O793    1.309   .     A
C685   O767    1.305   .     A
C686   C729    1.415   .     A
C686   C726    1.414   .     A
C687   O788    1.383   .     S
C687   N766    1.369   .     A
C688   N765    1.378   .     A
C688   O790    1.377   .     S
C688   C5      1.439   1_565 S
C689   O791    1.389   .     S
C689   N766    1.372   .     A
C690   N765    1.383   .     A
C690   O792    1.379   .     S
C690   C3      1.433   1_565 S
C691   O794    1.300   .     A
C691   O797    1.304   .     A
C691   C697    1.456   .     S
C692   O796    1.300   .     A
C692   O795    1.303   .     A
C692   C695    1.452   .     S
C693   O798    1.386   .     S
C693   C695    1.397   .     A
C693   C704    1.413   .     A
C694   C705    1.415   .     A
C694   C697    1.400   .     A
C694   O768    1.387   .     S
C695   C698    1.407   .     A
C696   O778    1.310   .     A
C696   C730    1.482   .     S
C696   O789    1.309   .     A
C697   C699    1.402   .     A
C698   C711    1.491   .     S
C698   C700    1.415   .     A
C699   C701    1.413   .     A
C699   C712    1.481   .     S
C700   C706    1.417   .     A
C700   C702    1.419   .     A
C701   C708    1.419   .     A
C701   C703    1.420   .     A
C702   C704    1.424   .     A
C702   C1729   1.415   .     S
C703   C705    1.425   .     A
C703   C1728   1.415   1_554 S
C704   C718    1.417   .     A
C705   C707    1.420   .     A
C706   O773    1.387   .     S
C706   C1733   1.404   .     S
C707   C715    1.485   .     S
C707   C1732   1.404   1_554 S
C708   O774    1.385   .     S
C708   C1744   1.397   1_554 S
C709   H755    1.110   .     S
C709   H744    1.112   .     S
C709   O798    1.412   .     S
C709   H733    1.113   .     S
C710   H760    1.109   .     S
C710   H761    1.114   .     S
C710   H759    1.110   .     S
C710   O768    1.411   .     S
C711   O769    1.221   .     D
C711   O770    1.399   .     S
C712   O772    1.398   .     S
C712   O771    1.222   .     D
C713   O773    1.414   .     S
C713   H735    1.109   .     S
C713   H734    1.110   .     S
C713   H764    1.113   .     S
C714   O774    1.412   .     S
C714   H738    1.109   .     S
C714   H737    1.113   .     S
C714   H736    1.113   .     S
C715   O775    1.223   .     D
C715   O776    1.398   .     S
C716   O777    1.222   .     D
C716   O779    1.398   .     S
C716   C718    1.484   .     S
C717   O781    1.396   .     S
C717   C726    1.490   .     S
C717   O780    1.222   .     D
C718   C1734   1.397   .     S
C719   O782    1.222   .     D
C719   C727    1.479   .     S
C719   O783    1.395   .     S
C720   O785    1.395   .     S
C720   O784    1.219   .     D
C720   C728    1.482   .     S
C721   O786    1.223   .     D
C721   O787    1.396   .     S
C721   C729    1.484   .     S
C722   O788    1.407   .     S
C722   H748    1.108   .     S
C722   H747    1.106   .     S
C722   H746    1.108   .     S
C723   O790    1.413   .     S
C723   H749    1.113   .     S
C723   H750    1.110   .     S
C723   H751    1.108   .     S
C724   H754    1.109   .     S
C724   H753    1.109   .     S
C724   O791    1.413   .     S
C724   H752    1.112   .     S
C725   O792    1.416   .     S
C725   H758    1.107   .     S
C725   H756    1.112   .     S
C725   H757    1.109   .     S
C726   C956    1.402   1_455 S
C727   C730    1.414   .     A
C727   C843    1.396   .     S
C728   C730    1.416   .     A
C728   C840    1.402   .     S
C729   C955    1.396   1_455 S
Cu731  O796    1.966   .     S
Cu731  O789    1.970   .     S
Cu731  O767    1.986   .     S
Cu731  Cu732   2.718   .     S
Cu731  O794    1.961   .     S
Cu731  N765    2.042   .     S
Cu732  O778    1.986   .     S
Cu732  N766    2.042   .     S
Cu732  O793    1.970   .     S
Cu732  O795    1.961   .     S
Cu732  O797    1.966   .     S
H739   O776    1.014   .     S
H740   O779    1.014   .     S
H741   O781    1.014   .     S
H742   O783    1.011   .     S
H743   O785    1.009   .     S
H745   O787    1.011   .     S
H762   O770    1.014   .     S
H763   O772    1.012   .     S
C799   C800    1.473   .     S
C799   O907    1.309   .     A
C799   O881    1.305   .     A
C800   C843    1.415   .     A
C800   C840    1.414   .     A
C801   O902    1.383   .     S
C801   N880    1.369   .     A
C802   N879    1.378   .     A
C802   O904    1.377   .     S
C802   C119    1.439   1_565 S
C803   O905    1.389   .     S
C803   N880    1.372   .     A
C804   N879    1.383   .     A
C804   O906    1.379   .     S
C804   C117    1.433   1_565 S
C805   O908    1.300   .     A
C805   O911    1.304   .     A
C805   C811    1.456   .     S
C806   O910    1.300   .     A
C806   O909    1.303   .     A
C806   C809    1.452   .     S
C807   O912    1.386   .     S
C807   C809    1.397   .     A
C807   C818    1.413   .     A
C808   C819    1.415   .     A
C808   C811    1.400   .     A
C808   O882    1.387   .     S
C809   C812    1.407   .     A
C810   O892    1.310   .     A
C810   C844    1.482   .     S
C810   O903    1.309   .     A
C811   C813    1.402   .     A
C812   C825    1.491   .     S
C812   C814    1.415   .     A
C813   C815    1.413   .     A
C813   C826    1.481   .     S
C814   C820    1.417   .     A
C814   C816    1.419   .     A
C815   C822    1.419   .     A
C815   C817    1.420   .     A
C816   C818    1.424   .     A
C816   C1843   1.415   .     S
C817   C819    1.425   .     A
C817   C1842   1.415   1_554 S
C818   C832    1.417   .     A
C819   C821    1.420   .     A
C820   O887    1.387   .     S
C820   C1847   1.404   .     S
C821   C829    1.485   .     S
C821   C1846   1.404   1_554 S
C822   O888    1.385   .     S
C822   C1858   1.397   1_554 S
C823   H869    1.110   .     S
C823   H858    1.112   .     S
C823   O912    1.412   .     S
C823   H847    1.113   .     S
C824   H874    1.109   .     S
C824   H875    1.114   .     S
C824   H873    1.110   .     S
C824   O882    1.411   .     S
C825   O883    1.221   .     D
C825   O884    1.399   .     S
C826   O886    1.398   .     S
C826   O885    1.222   .     D
C827   O887    1.414   .     S
C827   H849    1.109   .     S
C827   H848    1.110   .     S
C827   H878    1.113   .     S
C828   O888    1.412   .     S
C828   H852    1.109   .     S
C828   H851    1.113   .     S
C828   H850    1.113   .     S
C829   O889    1.223   .     D
C829   O890    1.398   .     S
C830   O891    1.222   .     D
C830   O893    1.398   .     S
C830   C832    1.484   .     S
C831   O895    1.396   .     S
C831   C840    1.490   .     S
C831   O894    1.222   .     D
C832   C1848   1.397   .     S
C833   O896    1.222   .     D
C833   C841    1.479   .     S
C833   O897    1.395   .     S
C834   O899    1.395   .     S
C834   O898    1.219   .     D
C834   C842    1.482   .     S
C835   O900    1.223   .     D
C835   O901    1.396   .     S
C835   C843    1.484   .     S
C836   O902    1.407   .     S
C836   H862    1.108   .     S
C836   H861    1.106   .     S
C836   H860    1.108   .     S
C837   O904    1.413   .     S
C837   H863    1.113   .     S
C837   H864    1.110   .     S
C837   H865    1.108   .     S
C838   H868    1.109   .     S
C838   H867    1.109   .     S
C838   O905    1.413   .     S
C838   H866    1.112   .     S
C839   O906    1.416   .     S
C839   H872    1.107   .     S
C839   H870    1.112   .     S
C839   H871    1.109   .     S
C841   C844    1.414   .     A
C841   C957    1.396   .     S
C842   C844    1.416   .     A
C842   C954    1.402   .     S
Cu845  O910    1.966   .     S
Cu845  O903    1.970   .     S
Cu845  O881    1.986   .     S
Cu845  Cu846   2.718   .     S
Cu845  O908    1.961   .     S
Cu845  N879    2.042   .     S
Cu846  O892    1.986   .     S
Cu846  N880    2.042   .     S
Cu846  O907    1.970   .     S
Cu846  O909    1.961   .     S
Cu846  O911    1.966   .     S
H853   O890    1.014   .     S
H854   O893    1.014   .     S
H855   O895    1.014   .     S
H856   O897    1.011   .     S
H857   O899    1.009   .     S
H859   O901    1.011   .     S
H876   O884    1.014   .     S
H877   O886    1.012   .     S
C913   C914    1.473   .     S
C913   O1021   1.309   .     A
C913   O995    1.305   .     A
C914   C957    1.415   .     A
C914   C954    1.414   .     A
C915   O1016   1.383   .     S
C915   N994    1.369   .     A
C916   N993    1.378   .     A
C916   O1018   1.377   .     S
C916   C233    1.439   1_565 S
C917   O1019   1.389   .     S
C917   N994    1.372   .     A
C918   N993    1.383   .     A
C918   O1020   1.379   .     S
C918   C231    1.433   1_565 S
C919   O1022   1.300   .     A
C919   O1025   1.304   .     A
C919   C925    1.456   .     S
C920   O1024   1.300   .     A
C920   O1023   1.303   .     A
C920   C923    1.452   .     S
C921   O1026   1.386   .     S
C921   C923    1.397   .     A
C921   C932    1.413   .     A
C922   C933    1.415   .     A
C922   C925    1.400   .     A
C922   O996    1.387   .     S
C923   C926    1.407   .     A
C924   O1006   1.310   .     A
C924   C958    1.482   .     S
C924   O1017   1.309   .     A
C925   C927    1.402   .     A
C926   C939    1.491   .     S
C926   C928    1.415   .     A
C927   C929    1.413   .     A
C927   C940    1.481   .     S
C928   C934    1.417   .     A
C928   C930    1.419   .     A
C929   C936    1.419   .     A
C929   C931    1.420   .     A
C930   C932    1.424   .     A
C930   C1957   1.415   .     S
C931   C933    1.425   .     A
C931   C1956   1.415   1_554 S
C932   C946    1.417   .     A
C933   C935    1.420   .     A
C934   O1001   1.387   .     S
C934   C1961   1.404   .     S
C935   C943    1.485   .     S
C935   C1960   1.404   1_554 S
C936   O1002   1.385   .     S
C936   C1972   1.397   1_554 S
C937   H983    1.110   .     S
C937   H972    1.112   .     S
C937   O1026   1.412   .     S
C937   H961    1.113   .     S
C938   H988    1.109   .     S
C938   H989    1.114   .     S
C938   H987    1.110   .     S
C938   O996    1.411   .     S
C939   O997    1.221   .     D
C939   O998    1.399   .     S
C940   O1000   1.398   .     S
C940   O999    1.222   .     D
C941   O1001   1.414   .     S
C941   H963    1.109   .     S
C941   H962    1.110   .     S
C941   H992    1.113   .     S
C942   O1002   1.412   .     S
C942   H966    1.109   .     S
C942   H965    1.113   .     S
C942   H964    1.113   .     S
C943   O1003   1.223   .     D
C943   O1004   1.398   .     S
C944   O1005   1.222   .     D
C944   O1007   1.398   .     S
C944   C946    1.484   .     S
C945   O1009   1.396   .     S
C945   C954    1.490   .     S
C945   O1008   1.222   .     D
C946   C1962   1.397   .     S
C947   O1010   1.222   .     D
C947   C955    1.479   .     S
C947   O1011   1.395   .     S
C948   O1013   1.395   .     S
C948   O1012   1.219   .     D
C948   C956    1.482   .     S
C949   O1014   1.223   .     D
C949   O1015   1.396   .     S
C949   C957    1.484   .     S
C950   O1016   1.407   .     S
C950   H976    1.108   .     S
C950   H975    1.106   .     S
C950   H974    1.108   .     S
C951   O1018   1.413   .     S
C951   H977    1.113   .     S
C951   H978    1.110   .     S
C951   H979    1.108   .     S
C952   H982    1.109   .     S
C952   H981    1.109   .     S
C952   O1019   1.413   .     S
C952   H980    1.112   .     S
C953   O1020   1.416   .     S
C953   H986    1.107   .     S
C953   H984    1.112   .     S
C953   H985    1.109   .     S
C955   C958    1.414   .     A
C955   C729    1.396   1_655 S
C956   C958    1.416   .     A
C956   C726    1.402   1_655 S
Cu959  O1024   1.966   .     S
Cu959  O1017   1.970   .     S
Cu959  O995    1.986   .     S
Cu959  Cu960   2.718   .     S
Cu959  O1022   1.961   .     S
Cu959  N993    2.042   .     S
Cu960  O1006   1.986   .     S
Cu960  N994    2.042   .     S
Cu960  O1021   1.970   .     S
Cu960  O1023   1.961   .     S
Cu960  O1025   1.966   .     S
H967   O1004   1.014   .     S
H968   O1007   1.014   .     S
H969   O1009   1.014   .     S
H970   O1011   1.011   .     S
H971   O1013   1.009   .     S
H973   O1015   1.011   .     S
H990   O998    1.014   .     S
H991   O1000   1.012   .     S
C1027  C1028   1.473   .     S
C1027  O1135   1.309   .     A
C1027  O1109   1.305   .     A
C1028  C1071   1.415   .     A
C1028  C1068   1.414   .     A
C1029  O1130   1.383   .     S
C1029  N1108   1.369   .     A
C1029  C1716   1.433   1_545 S
C1030  N1107   1.378   .     A
C1030  O1132   1.377   .     S
C1030  C1373   1.439   .     S
C1031  O1133   1.389   .     S
C1031  N1108   1.372   .     A
C1031  C1714   1.439   1_545 S
C1032  N1107   1.383   .     A
C1032  O1134   1.379   .     S
C1032  C1371   1.433   .     S
C1033  O1136   1.300   .     A
C1033  O1139   1.304   .     A
C1033  C1039   1.456   .     S
C1034  O1138   1.300   .     A
C1034  O1137   1.303   .     A
C1034  C1037   1.452   .     S
C1035  O1140   1.386   .     S
C1035  C1037   1.397   .     A
C1035  C1046   1.413   .     A
C1036  C1047   1.415   .     A
C1036  C1039   1.400   .     A
C1036  O1110   1.387   .     S
C1037  C1040   1.407   .     A
C1038  O1120   1.310   .     A
C1038  C1072   1.482   .     S
C1038  O1131   1.309   .     A
C1039  C1041   1.402   .     A
C1040  C1053   1.491   .     S
C1040  C1042   1.415   .     A
C1041  C1043   1.413   .     A
C1041  C1054   1.481   .     S
C1042  C1048   1.417   .     A
C1042  C1044   1.419   .     A
C1043  C1050   1.419   .     A
C1043  C1045   1.420   .     A
C1044  C1046   1.424   .     A
C1044  C19     1.415   1_556 S
C1045  C1047   1.425   .     A
C1046  C1060   1.417   .     A
C1047  C1049   1.420   .     A
C1048  O1115   1.387   .     S
C1048  C23     1.404   1_556 S
C1049  C1057   1.485   .     S
C1050  O1116   1.385   .     S
C1051  H1097   1.110   .     S
C1051  H1086   1.112   .     S
C1051  O1140   1.412   .     S
C1051  H1075   1.113   .     S
C1052  H1102   1.109   .     S
C1052  H1103   1.114   .     S
C1052  H1101   1.110   .     S
C1052  O1110   1.411   .     S
C1053  O1111   1.221   .     D
C1053  O1112   1.399   .     S
C1054  O1114   1.398   .     S
C1054  O1113   1.222   .     D
C1055  O1115   1.414   .     S
C1055  H1077   1.109   .     S
C1055  H1076   1.110   .     S
C1055  H1106   1.113   .     S
C1056  O1116   1.412   .     S
C1056  H1080   1.109   .     S
C1056  H1079   1.113   .     S
C1056  H1078   1.113   .     S
C1057  O1117   1.223   .     D
C1057  O1118   1.398   .     S
C1058  O1119   1.222   .     D
C1058  O1121   1.398   .     S
C1058  C1060   1.484   .     S
C1059  O1123   1.396   .     S
C1059  C1068   1.490   .     S
C1059  O1122   1.222   .     D
C1060  C24     1.397   1_556 S
C1061  O1124   1.222   .     D
C1061  C1069   1.479   .     S
C1061  O1125   1.395   .     S
C1062  O1127   1.395   .     S
C1062  O1126   1.219   .     D
C1062  C1070   1.482   .     S
C1063  O1128   1.223   .     D
C1063  O1129   1.396   .     S
C1063  C1071   1.484   .     S
C1064  O1130   1.407   .     S
C1064  H1090   1.108   .     S
C1064  H1089   1.106   .     S
C1064  H1088   1.108   .     S
C1065  O1132   1.413   .     S
C1065  H1091   1.113   .     S
C1065  H1092   1.110   .     S
C1065  H1093   1.108   .     S
C1066  H1096   1.109   .     S
C1066  H1095   1.109   .     S
C1066  O1133   1.413   .     S
C1066  H1094   1.112   .     S
C1067  O1134   1.416   .     S
C1067  H1100   1.107   .     S
C1067  H1098   1.112   .     S
C1067  H1099   1.109   .     S
C1068  C1298   1.402   1_455 S
C1069  C1072   1.414   .     A
C1069  C1185   1.396   .     S
C1070  C1072   1.416   .     A
C1070  C1182   1.402   .     S
C1071  C1297   1.396   1_455 S
Cu1073 O1138   1.966   .     S
Cu1073 O1131   1.970   .     S
Cu1073 O1109   1.986   .     S
Cu1073 Cu1074  2.718   .     S
Cu1073 O1136   1.961   .     S
Cu1073 N1107   2.042   .     S
Cu1074 O1120   1.986   .     S
Cu1074 N1108   2.042   .     S
Cu1074 O1135   1.970   .     S
Cu1074 O1137   1.961   .     S
Cu1074 O1139   1.966   .     S
H1081  O1118   1.014   .     S
H1082  O1121   1.014   .     S
H1083  O1123   1.014   .     S
H1084  O1125   1.011   .     S
H1085  O1127   1.009   .     S
H1087  O1129   1.011   .     S
H1104  O1112   1.014   .     S
H1105  O1114   1.012   .     S
C1141  C1142   1.473   .     S
C1141  O1249   1.309   .     A
C1141  O1223   1.305   .     A
C1142  C1185   1.415   .     A
C1142  C1182   1.414   .     A
C1143  O1244   1.383   .     S
C1143  N1222   1.369   .     A
C1143  C1830   1.433   1_545 S
C1144  N1221   1.378   .     A
C1144  O1246   1.377   .     S
C1144  C1487   1.439   .     S
C1145  O1247   1.389   .     S
C1145  N1222   1.372   .     A
C1145  C1828   1.439   1_545 S
C1146  N1221   1.383   .     A
C1146  O1248   1.379   .     S
C1146  C1485   1.433   .     S
C1147  O1250   1.300   .     A
C1147  O1253   1.304   .     A
C1147  C1153   1.456   .     S
C1148  O1252   1.300   .     A
C1148  O1251   1.303   .     A
C1148  C1151   1.452   .     S
C1149  O1254   1.386   .     S
C1149  C1151   1.397   .     A
C1149  C1160   1.413   .     A
C1150  C1161   1.415   .     A
C1150  C1153   1.400   .     A
C1150  O1224   1.387   .     S
C1151  C1154   1.407   .     A
C1152  O1234   1.310   .     A
C1152  C1186   1.482   .     S
C1152  O1245   1.309   .     A
C1153  C1155   1.402   .     A
C1154  C1167   1.491   .     S
C1154  C1156   1.415   .     A
C1155  C1157   1.413   .     A
C1155  C1168   1.481   .     S
C1156  C1162   1.417   .     A
C1156  C1158   1.419   .     A
C1157  C1164   1.419   .     A
C1157  C1159   1.420   .     A
C1158  C1160   1.424   .     A
C1158  C133    1.415   1_556 S
C1159  C1161   1.425   .     A
C1160  C1174   1.417   .     A
C1161  C1163   1.420   .     A
C1162  O1229   1.387   .     S
C1162  C137    1.404   1_556 S
C1163  C1171   1.485   .     S
C1164  O1230   1.385   .     S
C1165  H1211   1.110   .     S
C1165  H1200   1.112   .     S
C1165  O1254   1.412   .     S
C1165  H1189   1.113   .     S
C1166  H1216   1.109   .     S
C1166  H1217   1.114   .     S
C1166  H1215   1.110   .     S
C1166  O1224   1.411   .     S
C1167  O1225   1.221   .     D
C1167  O1226   1.399   .     S
C1168  O1228   1.398   .     S
C1168  O1227   1.222   .     D
C1169  O1229   1.414   .     S
C1169  H1191   1.109   .     S
C1169  H1190   1.110   .     S
C1169  H1220   1.113   .     S
C1170  O1230   1.412   .     S
C1170  H1194   1.109   .     S
C1170  H1193   1.113   .     S
C1170  H1192   1.113   .     S
C1171  O1231   1.223   .     D
C1171  O1232   1.398   .     S
C1172  O1233   1.222   .     D
C1172  O1235   1.398   .     S
C1172  C1174   1.484   .     S
C1173  O1237   1.396   .     S
C1173  C1182   1.490   .     S
C1173  O1236   1.222   .     D
C1174  C138    1.397   1_556 S
C1175  O1238   1.222   .     D
C1175  C1183   1.479   .     S
C1175  O1239   1.395   .     S
C1176  O1241   1.395   .     S
C1176  O1240   1.219   .     D
C1176  C1184   1.482   .     S
C1177  O1242   1.223   .     D
C1177  O1243   1.396   .     S
C1177  C1185   1.484   .     S
C1178  O1244   1.407   .     S
C1178  H1204   1.108   .     S
C1178  H1203   1.106   .     S
C1178  H1202   1.108   .     S
C1179  O1246   1.413   .     S
C1179  H1205   1.113   .     S
C1179  H1206   1.110   .     S
C1179  H1207   1.108   .     S
C1180  H1210   1.109   .     S
C1180  H1209   1.109   .     S
C1180  O1247   1.413   .     S
C1180  H1208   1.112   .     S
C1181  O1248   1.416   .     S
C1181  H1214   1.107   .     S
C1181  H1212   1.112   .     S
C1181  H1213   1.109   .     S
C1183  C1186   1.414   .     A
C1183  C1299   1.396   .     S
C1184  C1186   1.416   .     A
C1184  C1296   1.402   .     S
Cu1187 O1252   1.966   .     S
Cu1187 O1245   1.970   .     S
Cu1187 O1223   1.986   .     S
Cu1187 Cu1188  2.718   .     S
Cu1187 O1250   1.961   .     S
Cu1187 N1221   2.042   .     S
Cu1188 O1234   1.986   .     S
Cu1188 N1222   2.042   .     S
Cu1188 O1249   1.970   .     S
Cu1188 O1251   1.961   .     S
Cu1188 O1253   1.966   .     S
H1195  O1232   1.014   .     S
H1196  O1235   1.014   .     S
H1197  O1237   1.014   .     S
H1198  O1239   1.011   .     S
H1199  O1241   1.009   .     S
H1201  O1243   1.011   .     S
H1218  O1226   1.014   .     S
H1219  O1228   1.012   .     S
C1255  C1256   1.473   .     S
C1255  O1363   1.309   .     A
C1255  O1337   1.305   .     A
C1256  C1299   1.415   .     A
C1256  C1296   1.414   .     A
C1257  O1358   1.383   .     S
C1257  N1336   1.369   .     A
C1257  C1944   1.433   1_545 S
C1258  N1335   1.378   .     A
C1258  O1360   1.377   .     S
C1258  C1601   1.439   .     S
C1259  O1361   1.389   .     S
C1259  N1336   1.372   .     A
C1259  C1942   1.439   1_545 S
C1260  N1335   1.383   .     A
C1260  O1362   1.379   .     S
C1260  C1599   1.433   .     S
C1261  O1364   1.300   .     A
C1261  O1367   1.304   .     A
C1261  C1267   1.456   .     S
C1262  O1366   1.300   .     A
C1262  O1365   1.303   .     A
C1262  C1265   1.452   .     S
C1263  O1368   1.386   .     S
C1263  C1265   1.397   .     A
C1263  C1274   1.413   .     A
C1264  C1275   1.415   .     A
C1264  C1267   1.400   .     A
C1264  O1338   1.387   .     S
C1265  C1268   1.407   .     A
C1266  O1348   1.310   .     A
C1266  C1300   1.482   .     S
C1266  O1359   1.309   .     A
C1267  C1269   1.402   .     A
C1268  C1281   1.491   .     S
C1268  C1270   1.415   .     A
C1269  C1271   1.413   .     A
C1269  C1282   1.481   .     S
C1270  C1276   1.417   .     A
C1270  C1272   1.419   .     A
C1271  C1278   1.419   .     A
C1271  C1273   1.420   .     A
C1272  C1274   1.424   .     A
C1272  C247    1.415   1_556 S
C1273  C1275   1.425   .     A
C1274  C1288   1.417   .     A
C1275  C1277   1.420   .     A
C1276  O1343   1.387   .     S
C1276  C251    1.404   1_556 S
C1277  C1285   1.485   .     S
C1278  O1344   1.385   .     S
C1279  H1325   1.110   .     S
C1279  H1314   1.112   .     S
C1279  O1368   1.412   .     S
C1279  H1303   1.113   .     S
C1280  H1330   1.109   .     S
C1280  H1331   1.114   .     S
C1280  H1329   1.110   .     S
C1280  O1338   1.411   .     S
C1281  O1339   1.221   .     D
C1281  O1340   1.399   .     S
C1282  O1342   1.398   .     S
C1282  O1341   1.222   .     D
C1283  O1343   1.414   .     S
C1283  H1305   1.109   .     S
C1283  H1304   1.110   .     S
C1283  H1334   1.113   .     S
C1284  O1344   1.412   .     S
C1284  H1308   1.109   .     S
C1284  H1307   1.113   .     S
C1284  H1306   1.113   .     S
C1285  O1345   1.223   .     D
C1285  O1346   1.398   .     S
C1286  O1347   1.222   .     D
C1286  O1349   1.398   .     S
C1286  C1288   1.484   .     S
C1287  O1351   1.396   .     S
C1287  C1296   1.490   .     S
C1287  O1350   1.222   .     D
C1288  C252    1.397   1_556 S
C1289  O1352   1.222   .     D
C1289  C1297   1.479   .     S
C1289  O1353   1.395   .     S
C1290  O1355   1.395   .     S
C1290  O1354   1.219   .     D
C1290  C1298   1.482   .     S
C1291  O1356   1.223   .     D
C1291  O1357   1.396   .     S
C1291  C1299   1.484   .     S
C1292  O1358   1.407   .     S
C1292  H1318   1.108   .     S
C1292  H1317   1.106   .     S
C1292  H1316   1.108   .     S
C1293  O1360   1.413   .     S
C1293  H1319   1.113   .     S
C1293  H1320   1.110   .     S
C1293  H1321   1.108   .     S
C1294  H1324   1.109   .     S
C1294  H1323   1.109   .     S
C1294  O1361   1.413   .     S
C1294  H1322   1.112   .     S
C1295  O1362   1.416   .     S
C1295  H1328   1.107   .     S
C1295  H1326   1.112   .     S
C1295  H1327   1.109   .     S
C1297  C1300   1.414   .     A
C1297  C1071   1.396   1_655 S
C1298  C1300   1.416   .     A
C1298  C1068   1.402   1_655 S
Cu1301 O1366   1.966   .     S
Cu1301 O1359   1.970   .     S
Cu1301 O1337   1.986   .     S
Cu1301 Cu1302  2.718   .     S
Cu1301 O1364   1.961   .     S
Cu1301 N1335   2.042   .     S
Cu1302 O1348   1.986   .     S
Cu1302 N1336   2.042   .     S
Cu1302 O1363   1.970   .     S
Cu1302 O1365   1.961   .     S
Cu1302 O1367   1.966   .     S
H1309  O1346   1.014   .     S
H1310  O1349   1.014   .     S
H1311  O1351   1.014   .     S
H1312  O1353   1.011   .     S
H1313  O1355   1.009   .     S
H1315  O1357   1.011   .     S
H1332  O1340   1.014   .     S
H1333  O1342   1.012   .     S
C1369  C1370   1.473   .     S
C1369  O1477   1.309   .     A
C1369  O1451   1.305   .     A
C1370  C1413   1.415   .     A
C1370  C1410   1.414   .     A
C1371  O1472   1.383   .     S
C1371  N1450   1.369   .     A
C1372  N1449   1.378   .     A
C1372  O1474   1.377   .     S
C1372  C1715   1.439   .     S
C1373  O1475   1.389   .     S
C1373  N1450   1.372   .     A
C1374  N1449   1.383   .     A
C1374  O1476   1.379   .     S
C1374  C1713   1.433   .     S
C1375  O1478   1.300   .     A
C1375  O1481   1.304   .     A
C1375  C1381   1.456   .     S
C1376  O1480   1.300   .     A
C1376  O1479   1.303   .     A
C1376  C1379   1.452   .     S
C1377  O1482   1.386   .     S
C1377  C1379   1.397   .     A
C1377  C1388   1.413   .     A
C1378  C1389   1.415   .     A
C1378  C1381   1.400   .     A
C1378  O1452   1.387   .     S
C1379  C1382   1.407   .     A
C1380  O1462   1.310   .     A
C1380  C1414   1.482   .     S
C1380  O1473   1.309   .     A
C1381  C1383   1.402   .     A
C1382  C1395   1.491   .     S
C1382  C1384   1.415   .     A
C1383  C1385   1.413   .     A
C1383  C1396   1.481   .     S
C1384  C1390   1.417   .     A
C1384  C1386   1.419   .     A
C1385  C1392   1.419   .     A
C1385  C1387   1.420   .     A
C1386  C1388   1.424   .     A
C1386  C361    1.415   1_556 S
C1387  C1389   1.425   .     A
C1388  C1402   1.417   .     A
C1389  C1391   1.420   .     A
C1390  O1457   1.387   .     S
C1390  C365    1.404   1_556 S
C1391  C1399   1.485   .     S
C1392  O1458   1.385   .     S
C1393  H1439   1.110   .     S
C1393  H1428   1.112   .     S
C1393  O1482   1.412   .     S
C1393  H1417   1.113   .     S
C1394  H1444   1.109   .     S
C1394  H1445   1.114   .     S
C1394  H1443   1.110   .     S
C1394  O1452   1.411   .     S
C1395  O1453   1.221   .     D
C1395  O1454   1.399   .     S
C1396  O1456   1.398   .     S
C1396  O1455   1.222   .     D
C1397  O1457   1.414   .     S
C1397  H1419   1.109   .     S
C1397  H1418   1.110   .     S
C1397  H1448   1.113   .     S
C1398  O1458   1.412   .     S
C1398  H1422   1.109   .     S
C1398  H1421   1.113   .     S
C1398  H1420   1.113   .     S
C1399  O1459   1.223   .     D
C1399  O1460   1.398   .     S
C1400  O1461   1.222   .     D
C1400  O1463   1.398   .     S
C1400  C1402   1.484   .     S
C1401  O1465   1.396   .     S
C1401  C1410   1.490   .     S
C1401  O1464   1.222   .     D
C1402  C366    1.397   1_556 S
C1403  O1466   1.222   .     D
C1403  C1411   1.479   .     S
C1403  O1467   1.395   .     S
C1404  O1469   1.395   .     S
C1404  O1468   1.219   .     D
C1404  C1412   1.482   .     S
C1405  O1470   1.223   .     D
C1405  O1471   1.396   .     S
C1405  C1413   1.484   .     S
C1406  O1472   1.407   .     S
C1406  H1432   1.108   .     S
C1406  H1431   1.106   .     S
C1406  H1430   1.108   .     S
C1407  O1474   1.413   .     S
C1407  H1433   1.113   .     S
C1407  H1434   1.110   .     S
C1407  H1435   1.108   .     S
C1408  H1438   1.109   .     S
C1408  H1437   1.109   .     S
C1408  O1475   1.413   .     S
C1408  H1436   1.112   .     S
C1409  O1476   1.416   .     S
C1409  H1442   1.107   .     S
C1409  H1440   1.112   .     S
C1409  H1441   1.109   .     S
C1410  C1640   1.402   1_455 S
C1411  C1414   1.414   .     A
C1411  C1527   1.396   .     S
C1412  C1414   1.416   .     A
C1412  C1524   1.402   .     S
C1413  C1639   1.396   1_455 S
Cu1415 O1480   1.966   .     S
Cu1415 O1473   1.970   .     S
Cu1415 O1451   1.986   .     S
Cu1415 Cu1416  2.718   .     S
Cu1415 O1478   1.961   .     S
Cu1415 N1449   2.042   .     S
Cu1416 O1462   1.986   .     S
Cu1416 N1450   2.042   .     S
Cu1416 O1477   1.970   .     S
Cu1416 O1479   1.961   .     S
Cu1416 O1481   1.966   .     S
H1423  O1460   1.014   .     S
H1424  O1463   1.014   .     S
H1425  O1465   1.014   .     S
H1426  O1467   1.011   .     S
H1427  O1469   1.009   .     S
H1429  O1471   1.011   .     S
H1446  O1454   1.014   .     S
H1447  O1456   1.012   .     S
C1483  C1484   1.473   .     S
C1483  O1591   1.309   .     A
C1483  O1565   1.305   .     A
C1484  C1527   1.415   .     A
C1484  C1524   1.414   .     A
C1485  O1586   1.383   .     S
C1485  N1564   1.369   .     A
C1486  N1563   1.378   .     A
C1486  O1588   1.377   .     S
C1486  C1829   1.439   .     S
C1487  O1589   1.389   .     S
C1487  N1564   1.372   .     A
C1488  N1563   1.383   .     A
C1488  O1590   1.379   .     S
C1488  C1827   1.433   .     S
C1489  O1592   1.300   .     A
C1489  O1595   1.304   .     A
C1489  C1495   1.456   .     S
C1490  O1594   1.300   .     A
C1490  O1593   1.303   .     A
C1490  C1493   1.452   .     S
C1491  O1596   1.386   .     S
C1491  C1493   1.397   .     A
C1491  C1502   1.413   .     A
C1492  C1503   1.415   .     A
C1492  C1495   1.400   .     A
C1492  O1566   1.387   .     S
C1493  C1496   1.407   .     A
C1494  O1576   1.310   .     A
C1494  C1528   1.482   .     S
C1494  O1587   1.309   .     A
C1495  C1497   1.402   .     A
C1496  C1509   1.491   .     S
C1496  C1498   1.415   .     A
C1497  C1499   1.413   .     A
C1497  C1510   1.481   .     S
C1498  C1504   1.417   .     A
C1498  C1500   1.419   .     A
C1499  C1506   1.419   .     A
C1499  C1501   1.420   .     A
C1500  C1502   1.424   .     A
C1500  C475    1.415   1_556 S
C1501  C1503   1.425   .     A
C1502  C1516   1.417   .     A
C1503  C1505   1.420   .     A
C1504  O1571   1.387   .     S
C1504  C479    1.404   1_556 S
C1505  C1513   1.485   .     S
C1506  O1572   1.385   .     S
C1507  H1553   1.110   .     S
C1507  H1542   1.112   .     S
C1507  O1596   1.412   .     S
C1507  H1531   1.113   .     S
C1508  H1558   1.109   .     S
C1508  H1559   1.114   .     S
C1508  H1557   1.110   .     S
C1508  O1566   1.411   .     S
C1509  O1567   1.221   .     D
C1509  O1568   1.399   .     S
C1510  O1570   1.398   .     S
C1510  O1569   1.222   .     D
C1511  O1571   1.414   .     S
C1511  H1533   1.109   .     S
C1511  H1532   1.110   .     S
C1511  H1562   1.113   .     S
C1512  O1572   1.412   .     S
C1512  H1536   1.109   .     S
C1512  H1535   1.113   .     S
C1512  H1534   1.113   .     S
C1513  O1573   1.223   .     D
C1513  O1574   1.398   .     S
C1514  O1575   1.222   .     D
C1514  O1577   1.398   .     S
C1514  C1516   1.484   .     S
C1515  O1579   1.396   .     S
C1515  C1524   1.490   .     S
C1515  O1578   1.222   .     D
C1516  C480    1.397   1_556 S
C1517  O1580   1.222   .     D
C1517  C1525   1.479   .     S
C1517  O1581   1.395   .     S
C1518  O1583   1.395   .     S
C1518  O1582   1.219   .     D
C1518  C1526   1.482   .     S
C1519  O1584   1.223   .     D
C1519  O1585   1.396   .     S
C1519  C1527   1.484   .     S
C1520  O1586   1.407   .     S
C1520  H1546   1.108   .     S
C1520  H1545   1.106   .     S
C1520  H1544   1.108   .     S
C1521  O1588   1.413   .     S
C1521  H1547   1.113   .     S
C1521  H1548   1.110   .     S
C1521  H1549   1.108   .     S
C1522  H1552   1.109   .     S
C1522  H1551   1.109   .     S
C1522  O1589   1.413   .     S
C1522  H1550   1.112   .     S
C1523  O1590   1.416   .     S
C1523  H1556   1.107   .     S
C1523  H1554   1.112   .     S
C1523  H1555   1.109   .     S
C1525  C1528   1.414   .     A
C1525  C1641   1.396   .     S
C1526  C1528   1.416   .     A
C1526  C1638   1.402   .     S
Cu1529 O1594   1.966   .     S
Cu1529 O1587   1.970   .     S
Cu1529 O1565   1.986   .     S
Cu1529 Cu1530  2.718   .     S
Cu1529 O1592   1.961   .     S
Cu1529 N1563   2.042   .     S
Cu1530 O1576   1.986   .     S
Cu1530 N1564   2.042   .     S
Cu1530 O1591   1.970   .     S
Cu1530 O1593   1.961   .     S
Cu1530 O1595   1.966   .     S
H1537  O1574   1.014   .     S
H1538  O1577   1.014   .     S
H1539  O1579   1.014   .     S
H1540  O1581   1.011   .     S
H1541  O1583   1.009   .     S
H1543  O1585   1.011   .     S
H1560  O1568   1.014   .     S
H1561  O1570   1.012   .     S
C1597  C1598   1.473   .     S
C1597  O1705   1.309   .     A
C1597  O1679   1.305   .     A
C1598  C1641   1.415   .     A
C1598  C1638   1.414   .     A
C1599  O1700   1.383   .     S
C1599  N1678   1.369   .     A
C1600  N1677   1.378   .     A
C1600  O1702   1.377   .     S
C1600  C1943   1.439   .     S
C1601  O1703   1.389   .     S
C1601  N1678   1.372   .     A
C1602  N1677   1.383   .     A
C1602  O1704   1.379   .     S
C1602  C1941   1.433   .     S
C1603  O1706   1.300   .     A
C1603  O1709   1.304   .     A
C1603  C1609   1.456   .     S
C1604  O1708   1.300   .     A
C1604  O1707   1.303   .     A
C1604  C1607   1.452   .     S
C1605  O1710   1.386   .     S
C1605  C1607   1.397   .     A
C1605  C1616   1.413   .     A
C1606  C1617   1.415   .     A
C1606  C1609   1.400   .     A
C1606  O1680   1.387   .     S
C1607  C1610   1.407   .     A
C1608  O1690   1.310   .     A
C1608  C1642   1.482   .     S
C1608  O1701   1.309   .     A
C1609  C1611   1.402   .     A
C1610  C1623   1.491   .     S
C1610  C1612   1.415   .     A
C1611  C1613   1.413   .     A
C1611  C1624   1.481   .     S
C1612  C1618   1.417   .     A
C1612  C1614   1.419   .     A
C1613  C1620   1.419   .     A
C1613  C1615   1.420   .     A
C1614  C1616   1.424   .     A
C1614  C589    1.415   1_556 S
C1615  C1617   1.425   .     A
C1616  C1630   1.417   .     A
C1617  C1619   1.420   .     A
C1618  O1685   1.387   .     S
C1618  C593    1.404   1_556 S
C1619  C1627   1.485   .     S
C1620  O1686   1.385   .     S
C1621  H1667   1.110   .     S
C1621  H1656   1.112   .     S
C1621  O1710   1.412   .     S
C1621  H1645   1.113   .     S
C1622  H1672   1.109   .     S
C1622  H1673   1.114   .     S
C1622  H1671   1.110   .     S
C1622  O1680   1.411   .     S
C1623  O1681   1.221   .     D
C1623  O1682   1.399   .     S
C1624  O1684   1.398   .     S
C1624  O1683   1.222   .     D
C1625  O1685   1.414   .     S
C1625  H1647   1.109   .     S
C1625  H1646   1.110   .     S
C1625  H1676   1.113   .     S
C1626  O1686   1.412   .     S
C1626  H1650   1.109   .     S
C1626  H1649   1.113   .     S
C1626  H1648   1.113   .     S
C1627  O1687   1.223   .     D
C1627  O1688   1.398   .     S
C1628  O1689   1.222   .     D
C1628  O1691   1.398   .     S
C1628  C1630   1.484   .     S
C1629  O1693   1.396   .     S
C1629  C1638   1.490   .     S
C1629  O1692   1.222   .     D
C1630  C594    1.397   1_556 S
C1631  O1694   1.222   .     D
C1631  C1639   1.479   .     S
C1631  O1695   1.395   .     S
C1632  O1697   1.395   .     S
C1632  O1696   1.219   .     D
C1632  C1640   1.482   .     S
C1633  O1698   1.223   .     D
C1633  O1699   1.396   .     S
C1633  C1641   1.484   .     S
C1634  O1700   1.407   .     S
C1634  H1660   1.108   .     S
C1634  H1659   1.106   .     S
C1634  H1658   1.108   .     S
C1635  O1702   1.413   .     S
C1635  H1661   1.113   .     S
C1635  H1662   1.110   .     S
C1635  H1663   1.108   .     S
C1636  H1666   1.109   .     S
C1636  H1665   1.109   .     S
C1636  O1703   1.413   .     S
C1636  H1664   1.112   .     S
C1637  O1704   1.416   .     S
C1637  H1670   1.107   .     S
C1637  H1668   1.112   .     S
C1637  H1669   1.109   .     S
C1639  C1642   1.414   .     A
C1639  C1413   1.396   1_655 S
C1640  C1642   1.416   .     A
C1640  C1410   1.402   1_655 S
Cu1643 O1708   1.966   .     S
Cu1643 O1701   1.970   .     S
Cu1643 O1679   1.986   .     S
Cu1643 Cu1644  2.718   .     S
Cu1643 O1706   1.961   .     S
Cu1643 N1677   2.042   .     S
Cu1644 O1690   1.986   .     S
Cu1644 N1678   2.042   .     S
Cu1644 O1705   1.970   .     S
Cu1644 O1707   1.961   .     S
Cu1644 O1709   1.966   .     S
H1651  O1688   1.014   .     S
H1652  O1691   1.014   .     S
H1653  O1693   1.014   .     S
H1654  O1695   1.011   .     S
H1655  O1697   1.009   .     S
H1657  O1699   1.011   .     S
H1674  O1682   1.014   .     S
H1675  O1684   1.012   .     S
C1711  C1712   1.473   .     S
C1711  O1819   1.309   .     A
C1711  O1793   1.305   .     A
C1712  C1755   1.415   .     A
C1712  C1752   1.414   .     A
C1713  O1814   1.383   .     S
C1713  N1792   1.369   .     A
C1714  N1791   1.378   .     A
C1714  O1816   1.377   .     S
C1714  C1031   1.439   1_565 S
C1715  O1817   1.389   .     S
C1715  N1792   1.372   .     A
C1716  N1791   1.383   .     A
C1716  O1818   1.379   .     S
C1716  C1029   1.433   1_565 S
C1717  O1820   1.300   .     A
C1717  O1823   1.304   .     A
C1717  C1723   1.456   .     S
C1718  O1822   1.300   .     A
C1718  O1821   1.303   .     A
C1718  C1721   1.452   .     S
C1719  O1824   1.386   .     S
C1719  C1721   1.397   .     A
C1719  C1730   1.413   .     A
C1720  C1731   1.415   .     A
C1720  C1723   1.400   .     A
C1720  O1794   1.387   .     S
C1721  C1724   1.407   .     A
C1722  O1804   1.310   .     A
C1722  C1756   1.482   .     S
C1722  O1815   1.309   .     A
C1723  C1725   1.402   .     A
C1724  C1737   1.491   .     S
C1724  C1726   1.415   .     A
C1725  C1727   1.413   .     A
C1725  C1738   1.481   .     S
C1726  C1732   1.417   .     A
C1726  C1728   1.419   .     A
C1727  C1734   1.419   .     A
C1727  C1729   1.420   .     A
C1728  C1730   1.424   .     A
C1728  C703    1.415   1_556 S
C1729  C1731   1.425   .     A
C1730  C1744   1.417   .     A
C1731  C1733   1.420   .     A
C1732  O1799   1.387   .     S
C1732  C707    1.404   1_556 S
C1733  C1741   1.485   .     S
C1734  O1800   1.385   .     S
C1735  H1781   1.110   .     S
C1735  H1770   1.112   .     S
C1735  O1824   1.412   .     S
C1735  H1759   1.113   .     S
C1736  H1786   1.109   .     S
C1736  H1787   1.114   .     S
C1736  H1785   1.110   .     S
C1736  O1794   1.411   .     S
C1737  O1795   1.221   .     D
C1737  O1796   1.399   .     S
C1738  O1798   1.398   .     S
C1738  O1797   1.222   .     D
C1739  O1799   1.414   .     S
C1739  H1761   1.109   .     S
C1739  H1760   1.110   .     S
C1739  H1790   1.113   .     S
C1740  O1800   1.412   .     S
C1740  H1764   1.109   .     S
C1740  H1763   1.113   .     S
C1740  H1762   1.113   .     S
C1741  O1801   1.223   .     D
C1741  O1802   1.398   .     S
C1742  O1803   1.222   .     D
C1742  O1805   1.398   .     S
C1742  C1744   1.484   .     S
C1743  O1807   1.396   .     S
C1743  C1752   1.490   .     S
C1743  O1806   1.222   .     D
C1744  C708    1.397   1_556 S
C1745  O1808   1.222   .     D
C1745  C1753   1.479   .     S
C1745  O1809   1.395   .     S
C1746  O1811   1.395   .     S
C1746  O1810   1.219   .     D
C1746  C1754   1.482   .     S
C1747  O1812   1.223   .     D
C1747  O1813   1.396   .     S
C1747  C1755   1.484   .     S
C1748  O1814   1.407   .     S
C1748  H1774   1.108   .     S
C1748  H1773   1.106   .     S
C1748  H1772   1.108   .     S
C1749  O1816   1.413   .     S
C1749  H1775   1.113   .     S
C1749  H1776   1.110   .     S
C1749  H1777   1.108   .     S
C1750  H1780   1.109   .     S
C1750  H1779   1.109   .     S
C1750  O1817   1.413   .     S
C1750  H1778   1.112   .     S
C1751  O1818   1.416   .     S
C1751  H1784   1.107   .     S
C1751  H1782   1.112   .     S
C1751  H1783   1.109   .     S
C1752  C1982   1.402   1_455 S
C1753  C1756   1.414   .     A
C1753  C1869   1.396   .     S
C1754  C1756   1.416   .     A
C1754  C1866   1.402   .     S
C1755  C1981   1.396   1_455 S
Cu1757 O1822   1.966   .     S
Cu1757 O1815   1.970   .     S
Cu1757 O1793   1.986   .     S
Cu1757 Cu1758  2.718   .     S
Cu1757 O1820   1.961   .     S
Cu1757 N1791   2.042   .     S
Cu1758 O1804   1.986   .     S
Cu1758 N1792   2.042   .     S
Cu1758 O1819   1.970   .     S
Cu1758 O1821   1.961   .     S
Cu1758 O1823   1.966   .     S
H1765  O1802   1.014   .     S
H1766  O1805   1.014   .     S
H1767  O1807   1.014   .     S
H1768  O1809   1.011   .     S
H1769  O1811   1.009   .     S
H1771  O1813   1.011   .     S
H1788  O1796   1.014   .     S
H1789  O1798   1.012   .     S
C1825  C1826   1.473   .     S
C1825  O1933   1.309   .     A
C1825  O1907   1.305   .     A
C1826  C1869   1.415   .     A
C1826  C1866   1.414   .     A
C1827  O1928   1.383   .     S
C1827  N1906   1.369   .     A
C1828  N1905   1.378   .     A
C1828  O1930   1.377   .     S
C1828  C1145   1.439   1_565 S
C1829  O1931   1.389   .     S
C1829  N1906   1.372   .     A
C1830  N1905   1.383   .     A
C1830  O1932   1.379   .     S
C1830  C1143   1.433   1_565 S
C1831  O1934   1.300   .     A
C1831  O1937   1.304   .     A
C1831  C1837   1.456   .     S
C1832  O1936   1.300   .     A
C1832  O1935   1.303   .     A
C1832  C1835   1.452   .     S
C1833  O1938   1.386   .     S
C1833  C1835   1.397   .     A
C1833  C1844   1.413   .     A
C1834  C1845   1.415   .     A
C1834  C1837   1.400   .     A
C1834  O1908   1.387   .     S
C1835  C1838   1.407   .     A
C1836  O1918   1.310   .     A
C1836  C1870   1.482   .     S
C1836  O1929   1.309   .     A
C1837  C1839   1.402   .     A
C1838  C1851   1.491   .     S
C1838  C1840   1.415   .     A
C1839  C1841   1.413   .     A
C1839  C1852   1.481   .     S
C1840  C1846   1.417   .     A
C1840  C1842   1.419   .     A
C1841  C1848   1.419   .     A
C1841  C1843   1.420   .     A
C1842  C1844   1.424   .     A
C1842  C817    1.415   1_556 S
C1843  C1845   1.425   .     A
C1844  C1858   1.417   .     A
C1845  C1847   1.420   .     A
C1846  O1913   1.387   .     S
C1846  C821    1.404   1_556 S
C1847  C1855   1.485   .     S
C1848  O1914   1.385   .     S
C1849  H1895   1.110   .     S
C1849  H1884   1.112   .     S
C1849  O1938   1.412   .     S
C1849  H1873   1.113   .     S
C1850  H1900   1.109   .     S
C1850  H1901   1.114   .     S
C1850  H1899   1.110   .     S
C1850  O1908   1.411   .     S
C1851  O1909   1.221   .     D
C1851  O1910   1.399   .     S
C1852  O1912   1.398   .     S
C1852  O1911   1.222   .     D
C1853  O1913   1.414   .     S
C1853  H1875   1.109   .     S
C1853  H1874   1.110   .     S
C1853  H1904   1.113   .     S
C1854  O1914   1.412   .     S
C1854  H1878   1.109   .     S
C1854  H1877   1.113   .     S
C1854  H1876   1.113   .     S
C1855  O1915   1.223   .     D
C1855  O1916   1.398   .     S
C1856  O1917   1.222   .     D
C1856  O1919   1.398   .     S
C1856  C1858   1.484   .     S
C1857  O1921   1.396   .     S
C1857  C1866   1.490   .     S
C1857  O1920   1.222   .     D
C1858  C822    1.397   1_556 S
C1859  O1922   1.222   .     D
C1859  C1867   1.479   .     S
C1859  O1923   1.395   .     S
C1860  O1925   1.395   .     S
C1860  O1924   1.219   .     D
C1860  C1868   1.482   .     S
C1861  O1926   1.223   .     D
C1861  O1927   1.396   .     S
C1861  C1869   1.484   .     S
C1862  O1928   1.407   .     S
C1862  H1888   1.108   .     S
C1862  H1887   1.106   .     S
C1862  H1886   1.108   .     S
C1863  O1930   1.413   .     S
C1863  H1889   1.113   .     S
C1863  H1890   1.110   .     S
C1863  H1891   1.108   .     S
C1864  H1894   1.109   .     S
C1864  H1893   1.109   .     S
C1864  O1931   1.413   .     S
C1864  H1892   1.112   .     S
C1865  O1932   1.416   .     S
C1865  H1898   1.107   .     S
C1865  H1896   1.112   .     S
C1865  H1897   1.109   .     S
C1867  C1870   1.414   .     A
C1867  C1983   1.396   .     S
C1868  C1870   1.416   .     A
C1868  C1980   1.402   .     S
Cu1871 O1936   1.966   .     S
Cu1871 O1929   1.970   .     S
Cu1871 O1907   1.986   .     S
Cu1871 Cu1872  2.718   .     S
Cu1871 O1934   1.961   .     S
Cu1871 N1905   2.042   .     S
Cu1872 O1918   1.986   .     S
Cu1872 N1906   2.042   .     S
Cu1872 O1933   1.970   .     S
Cu1872 O1935   1.961   .     S
Cu1872 O1937   1.966   .     S
H1879  O1916   1.014   .     S
H1880  O1919   1.014   .     S
H1881  O1921   1.014   .     S
H1882  O1923   1.011   .     S
H1883  O1925   1.009   .     S
H1885  O1927   1.011   .     S
H1902  O1910   1.014   .     S
H1903  O1912   1.012   .     S
C1939  C1940   1.473   .     S
C1939  O2047   1.309   .     A
C1939  O2021   1.305   .     A
C1940  C1983   1.415   .     A
C1940  C1980   1.414   .     A
C1941  O2042   1.383   .     S
C1941  N2020   1.369   .     A
C1942  N2019   1.378   .     A
C1942  O2044   1.377   .     S
C1942  C1259   1.439   1_565 S
C1943  O2045   1.389   .     S
C1943  N2020   1.372   .     A
C1944  N2019   1.383   .     A
C1944  O2046   1.379   .     S
C1944  C1257   1.433   1_565 S
C1945  O2048   1.300   .     A
C1945  O2051   1.304   .     A
C1945  C1951   1.456   .     S
C1946  O2050   1.300   .     A
C1946  O2049   1.303   .     A
C1946  C1949   1.452   .     S
C1947  O2052   1.386   .     S
C1947  C1949   1.397   .     A
C1947  C1958   1.413   .     A
C1948  C1959   1.415   .     A
C1948  C1951   1.400   .     A
C1948  O2022   1.387   .     S
C1949  C1952   1.407   .     A
C1950  O2032   1.310   .     A
C1950  C1984   1.482   .     S
C1950  O2043   1.309   .     A
C1951  C1953   1.402   .     A
C1952  C1965   1.491   .     S
C1952  C1954   1.415   .     A
C1953  C1955   1.413   .     A
C1953  C1966   1.481   .     S
C1954  C1960   1.417   .     A
C1954  C1956   1.419   .     A
C1955  C1962   1.419   .     A
C1955  C1957   1.420   .     A
C1956  C1958   1.424   .     A
C1956  C931    1.415   1_556 S
C1957  C1959   1.425   .     A
C1958  C1972   1.417   .     A
C1959  C1961   1.420   .     A
C1960  O2027   1.387   .     S
C1960  C935    1.404   1_556 S
C1961  C1969   1.485   .     S
C1962  O2028   1.385   .     S
C1963  H2009   1.110   .     S
C1963  H1998   1.112   .     S
C1963  O2052   1.412   .     S
C1963  H1987   1.113   .     S
C1964  H2014   1.109   .     S
C1964  H2015   1.114   .     S
C1964  H2013   1.110   .     S
C1964  O2022   1.411   .     S
C1965  O2023   1.221   .     D
C1965  O2024   1.399   .     S
C1966  O2026   1.398   .     S
C1966  O2025   1.222   .     D
C1967  O2027   1.414   .     S
C1967  H1989   1.109   .     S
C1967  H1988   1.110   .     S
C1967  H2018   1.113   .     S
C1968  O2028   1.412   .     S
C1968  H1992   1.109   .     S
C1968  H1991   1.113   .     S
C1968  H1990   1.113   .     S
C1969  O2029   1.223   .     D
C1969  O2030   1.398   .     S
C1970  O2031   1.222   .     D
C1970  O2033   1.398   .     S
C1970  C1972   1.484   .     S
C1971  O2035   1.396   .     S
C1971  C1980   1.490   .     S
C1971  O2034   1.222   .     D
C1972  C936    1.397   1_556 S
C1973  O2036   1.222   .     D
C1973  C1981   1.479   .     S
C1973  O2037   1.395   .     S
C1974  O2039   1.395   .     S
C1974  O2038   1.219   .     D
C1974  C1982   1.482   .     S
C1975  O2040   1.223   .     D
C1975  O2041   1.396   .     S
C1975  C1983   1.484   .     S
C1976  O2042   1.407   .     S
C1976  H2002   1.108   .     S
C1976  H2001   1.106   .     S
C1976  H2000   1.108   .     S
C1977  O2044   1.413   .     S
C1977  H2003   1.113   .     S
C1977  H2004   1.110   .     S
C1977  H2005   1.108   .     S
C1978  H2008   1.109   .     S
C1978  H2007   1.109   .     S
C1978  O2045   1.413   .     S
C1978  H2006   1.112   .     S
C1979  O2046   1.416   .     S
C1979  H2012   1.107   .     S
C1979  H2010   1.112   .     S
C1979  H2011   1.109   .     S
C1981  C1984   1.414   .     A
C1981  C1755   1.396   1_655 S
C1982  C1984   1.416   .     A
C1982  C1752   1.402   1_655 S
Cu1985 O2050   1.966   .     S
Cu1985 O2043   1.970   .     S
Cu1985 O2021   1.986   .     S
Cu1985 Cu1986  2.718   .     S
Cu1985 O2048   1.961   .     S
Cu1985 N2019   2.042   .     S
Cu1986 O2032   1.986   .     S
Cu1986 N2020   2.042   .     S
Cu1986 O2047   1.970   .     S
Cu1986 O2049   1.961   .     S
Cu1986 O2051   1.966   .     S
H1993  O2030   1.014   .     S
H1994  O2033   1.014   .     S
H1995  O2035   1.014   .     S
H1996  O2037   1.011   .     S
H1997  O2039   1.009   .     S
H1999  O2041   1.011   .     S
H2016  O2024   1.014   .     S
H2017  O2026   1.012   .     S
