data_str_m2_o10_o18_pcu_sym.44
_audit_creation_date              2020-01-03
_audit_creation_method            'Materials Studio'
_symmetry_space_group_name_H-M    'P1'
_symmetry_Int_Tables_number       1
_symmetry_cell_setting            triclinic
loop_
_symmetry_equiv_pos_as_xyz
  x,y,z
_cell_length_a                    22.2584
_cell_length_b                    26.2418
_cell_length_c                    31.6540
_cell_angle_alpha                 94.1034
_cell_angle_beta                  75.1239
_cell_angle_gamma                 102.4566
loop_
_atom_site_label
_atom_site_type_symbol
_atom_site_fract_x
_atom_site_fract_y
_atom_site_fract_z
_atom_site_U_iso_or_equiv
_atom_site_adp_type
_atom_site_occupancy
C1     C     0.18030   0.26632   0.25268   0.00000  Uiso   1.00
C2     C     0.20532   0.17073   0.16690   0.00000  Uiso   1.00
C3     C     0.10469   0.15859   0.38082   0.00000  Uiso   1.00
C4     C     0.22863   0.17805   0.11955   0.00000  Uiso   1.00
C5     C     0.02299   0.12669   0.44505   0.00000  Uiso   1.00
C6     C     0.30683   0.21947   0.05728   0.00000  Uiso   1.00
C7     C     0.04148   0.13632   0.40038   0.00000  Uiso   1.00
C8     C     0.28986   0.20580   0.10111   0.00000  Uiso   1.00
C9     C     0.14829   0.17368   0.40664   0.00000  Uiso   1.00
C10    C     0.18563   0.16211   0.09344   0.00000  Uiso   1.00
C11    C     0.13074   0.16525   0.45192   0.00000  Uiso   1.00
C12    C     0.15304   0.06701   0.24730   0.00000  Uiso   1.00
C13    C     0.20058   0.17697   0.04955   0.00000  Uiso   1.00
C14    C     0.06727   0.13997   0.47069   0.00000  Uiso   1.00
C15    C     0.26264   0.20582   0.03159   0.00000  Uiso   1.00
C16    C     0.17483   0.17952   0.47864   0.00000  Uiso   1.00
C17    C     0.15558   0.16480   0.02337   0.00000  Uiso   1.00
C18    C     0.21365   0.01278   0.29646   0.00000  Uiso   1.00
C19    C     0.11972   0.32056   0.20351   0.00000  Uiso   1.00
C20    C     0.09169   0.13941   0.04058   0.00000  Uiso   1.00
C21    C     0.23718   0.20865   0.46231   0.00000  Uiso   1.00
C22    C     0.04863   0.12756   0.01472   0.00000  Uiso   1.00
C23    C     0.27991   0.22149   0.48836   0.00000  Uiso   1.00
C24    C     0.18221   0.32097   0.26057   0.00000  Uiso   1.00
C25    C     0.15114   0.01236   0.23941   0.00000  Uiso   1.00
C26    C     0.12804   0.16296   0.33314   0.00000  Uiso   1.00
Cu27   Cu    0.10737   0.16108   0.24516   0.00000  Uiso   1.00
Cu28   Cu    0.22596   0.17225   0.25483   0.00000  Uiso   1.00
H29    H     0.00015   0.10834   0.02941   0.00000  Uiso   1.00
H30    H     0.25449   0.22351   0.42966   0.00000  Uiso   1.00
H31    H     0.00145   0.20502   0.28414   0.00000  Uiso   1.00
H32    H     0.33188   0.12831   0.21586   0.00000  Uiso   1.00
H33    H     0.22357   0.31641   0.31563   0.00000  Uiso   1.00
H34    H     0.25976   0.03892   0.28207   0.00000  Uiso   1.00
H35    H     0.18192   0.03485   0.32001   0.00000  Uiso   1.00
H36    H     0.10980   0.01692   0.18434   0.00000  Uiso   1.00
H37    H     0.15146   0.29849   0.17996   0.00000  Uiso   1.00
H38    H     0.07361   0.29441   0.21789   0.00000  Uiso   1.00
H39    H     0.32707   0.24394   0.47444   0.00000  Uiso   1.00
H40    H     0.14028   0.13868   0.10874   0.00000  Uiso   1.00
H41    H     0.19646   0.19015   0.39011   0.00000  Uiso   1.00
H42    H     0.32372   0.21851   0.12085   0.00000  Uiso   1.00
H43    H     0.00705   0.12451   0.38096   0.00000  Uiso   1.00
H44    H     0.30755   0.10803   0.45949   0.00000  Uiso   1.00
H45    H     0.02093   0.24154   0.04359   0.00000  Uiso   1.00
H46    H     0.07243   0.12887   0.07431   0.00000  Uiso   1.00
N47    N     0.31506   0.18068   0.26212   0.00000  Uiso   1.00
N48    N     0.01827   0.15265   0.23788   0.00000  Uiso   1.00
O49    O     0.12815   0.23809   0.24686   0.00000  Uiso   1.00
O50    O     0.20518   0.09524   0.25314   0.00000  Uiso   1.00
O51    O     0.22829   0.24753   0.25502   0.00000  Uiso   1.00
O52    O     0.10504   0.08580   0.24497   0.00000  Uiso   1.00
O53    O     0.08851   0.15930   0.30854   0.00000  Uiso   1.00
O54    O     0.24482   0.17403   0.19145   0.00000  Uiso   1.00
O55    O     0.18866   0.16874   0.31671   0.00000  Uiso   1.00
O56    O     0.14468   0.16460   0.18329   0.00000  Uiso   1.00
C57    C     0.51363   0.26632   0.25268   0.00000  Uiso   1.00
C58    C     0.53865   0.17073   0.16690   0.00000  Uiso   1.00
C59    C     0.43803   0.15859   0.38082   0.00000  Uiso   1.00
C60    C     0.56196   0.17805   0.11955   0.00000  Uiso   1.00
C61    C     0.35633   0.12669   0.44505   0.00000  Uiso   1.00
C62    C     0.64016   0.21947   0.05728   0.00000  Uiso   1.00
C63    C     0.37481   0.13632   0.40038   0.00000  Uiso   1.00
C64    C     0.62320   0.20580   0.10111   0.00000  Uiso   1.00
C65    C     0.48162   0.17368   0.40664   0.00000  Uiso   1.00
C66    C     0.51896   0.16211   0.09344   0.00000  Uiso   1.00
C67    C     0.46407   0.16525   0.45192   0.00000  Uiso   1.00
C68    C     0.48638   0.06701   0.24730   0.00000  Uiso   1.00
C69    C     0.53391   0.17697   0.04955   0.00000  Uiso   1.00
C70    C     0.40061   0.13997   0.47069   0.00000  Uiso   1.00
C71    C     0.59597   0.20582   0.03159   0.00000  Uiso   1.00
C72    C     0.50817   0.17952   0.47864   0.00000  Uiso   1.00
C73    C     0.48892   0.16480   0.02337   0.00000  Uiso   1.00
C74    C     0.54698   0.01278   0.29646   0.00000  Uiso   1.00
C75    C     0.45306   0.32056   0.20351   0.00000  Uiso   1.00
C76    C     0.42502   0.13941   0.04058   0.00000  Uiso   1.00
C77    C     0.57051   0.20865   0.46231   0.00000  Uiso   1.00
C78    C     0.38196   0.12756   0.01472   0.00000  Uiso   1.00
C79    C     0.61324   0.22149   0.48836   0.00000  Uiso   1.00
C80    C     0.51554   0.32097   0.26057   0.00000  Uiso   1.00
C81    C     0.48448   0.01236   0.23941   0.00000  Uiso   1.00
C82    C     0.46137   0.16296   0.33314   0.00000  Uiso   1.00
Cu83   Cu    0.44071   0.16108   0.24516   0.00000  Uiso   1.00
Cu84   Cu    0.55929   0.17225   0.25483   0.00000  Uiso   1.00
H85    H     0.33348   0.10834   0.02941   0.00000  Uiso   1.00
H86    H     0.58782   0.22351   0.42966   0.00000  Uiso   1.00
H87    H     0.33479   0.20502   0.28414   0.00000  Uiso   1.00
H88    H     0.66521   0.12831   0.21586   0.00000  Uiso   1.00
H89    H     0.55690   0.31641   0.31563   0.00000  Uiso   1.00
H90    H     0.59309   0.03892   0.28207   0.00000  Uiso   1.00
H91    H     0.51525   0.03485   0.32001   0.00000  Uiso   1.00
H92    H     0.44313   0.01692   0.18434   0.00000  Uiso   1.00
H93    H     0.48480   0.29849   0.17996   0.00000  Uiso   1.00
H94    H     0.40695   0.29441   0.21789   0.00000  Uiso   1.00
H95    H     0.66041   0.24394   0.47444   0.00000  Uiso   1.00
H96    H     0.47361   0.13868   0.10874   0.00000  Uiso   1.00
H97    H     0.52979   0.19015   0.39011   0.00000  Uiso   1.00
H98    H     0.65705   0.21851   0.12085   0.00000  Uiso   1.00
H99    H     0.34038   0.12451   0.38096   0.00000  Uiso   1.00
H100   H     0.64088   0.10803   0.45949   0.00000  Uiso   1.00
H101   H     0.35427   0.24154   0.04359   0.00000  Uiso   1.00
H102   H     0.40577   0.12887   0.07431   0.00000  Uiso   1.00
N103   N     0.64839   0.18068   0.26212   0.00000  Uiso   1.00
N104   N     0.35161   0.15265   0.23788   0.00000  Uiso   1.00
O105   O     0.46148   0.23809   0.24686   0.00000  Uiso   1.00
O106   O     0.53852   0.09524   0.25314   0.00000  Uiso   1.00
O107   O     0.56163   0.24753   0.25502   0.00000  Uiso   1.00
O108   O     0.43837   0.08580   0.24497   0.00000  Uiso   1.00
O109   O     0.42185   0.15930   0.30854   0.00000  Uiso   1.00
O110   O     0.57815   0.17403   0.19145   0.00000  Uiso   1.00
O111   O     0.52199   0.16874   0.31671   0.00000  Uiso   1.00
O112   O     0.47801   0.16460   0.18329   0.00000  Uiso   1.00
C113   C     0.84696   0.26632   0.25268   0.00000  Uiso   1.00
C114   C     0.87198   0.17073   0.16690   0.00000  Uiso   1.00
C115   C     0.77136   0.15859   0.38082   0.00000  Uiso   1.00
C116   C     0.89529   0.17805   0.11955   0.00000  Uiso   1.00
C117   C     0.68966   0.12669   0.44505   0.00000  Uiso   1.00
C118   C     0.97350   0.21947   0.05728   0.00000  Uiso   1.00
C119   C     0.70814   0.13632   0.40038   0.00000  Uiso   1.00
C120   C     0.95653   0.20580   0.10111   0.00000  Uiso   1.00
C121   C     0.81495   0.17368   0.40664   0.00000  Uiso   1.00
C122   C     0.85230   0.16211   0.09344   0.00000  Uiso   1.00
C123   C     0.79740   0.16525   0.45192   0.00000  Uiso   1.00
C124   C     0.81971   0.06701   0.24730   0.00000  Uiso   1.00
C125   C     0.86725   0.17697   0.04955   0.00000  Uiso   1.00
C126   C     0.73394   0.13997   0.47069   0.00000  Uiso   1.00
C127   C     0.92931   0.20582   0.03159   0.00000  Uiso   1.00
C128   C     0.84150   0.17952   0.47864   0.00000  Uiso   1.00
C129   C     0.82225   0.16480   0.02337   0.00000  Uiso   1.00
C130   C     0.88031   0.01278   0.29646   0.00000  Uiso   1.00
C131   C     0.78639   0.32056   0.20351   0.00000  Uiso   1.00
C132   C     0.75836   0.13941   0.04058   0.00000  Uiso   1.00
C133   C     0.90384   0.20865   0.46231   0.00000  Uiso   1.00
C134   C     0.71530   0.12756   0.01472   0.00000  Uiso   1.00
C135   C     0.94657   0.22149   0.48836   0.00000  Uiso   1.00
C136   C     0.84887   0.32097   0.26057   0.00000  Uiso   1.00
C137   C     0.81781   0.01236   0.23941   0.00000  Uiso   1.00
C138   C     0.79471   0.16296   0.33314   0.00000  Uiso   1.00
Cu139  Cu    0.77404   0.16108   0.24516   0.00000  Uiso   1.00
Cu140  Cu    0.89263   0.17225   0.25483   0.00000  Uiso   1.00
H141   H     0.66681   0.10834   0.02941   0.00000  Uiso   1.00
H142   H     0.92116   0.22351   0.42966   0.00000  Uiso   1.00
H143   H     0.66812   0.20502   0.28414   0.00000  Uiso   1.00
H144   H     0.99855   0.12831   0.21586   0.00000  Uiso   1.00
H145   H     0.89024   0.31641   0.31563   0.00000  Uiso   1.00
H146   H     0.92642   0.03892   0.28207   0.00000  Uiso   1.00
H147   H     0.84858   0.03485   0.32001   0.00000  Uiso   1.00
H148   H     0.77647   0.01692   0.18434   0.00000  Uiso   1.00
H149   H     0.81813   0.29849   0.17996   0.00000  Uiso   1.00
H150   H     0.74028   0.29441   0.21789   0.00000  Uiso   1.00
H151   H     0.99374   0.24394   0.47444   0.00000  Uiso   1.00
H152   H     0.80694   0.13868   0.10874   0.00000  Uiso   1.00
H153   H     0.86313   0.19015   0.39011   0.00000  Uiso   1.00
H154   H     0.99038   0.21851   0.12085   0.00000  Uiso   1.00
H155   H     0.67371   0.12451   0.38096   0.00000  Uiso   1.00
H156   H     0.97422   0.10803   0.45949   0.00000  Uiso   1.00
H157   H     0.68760   0.24154   0.04359   0.00000  Uiso   1.00
H158   H     0.73910   0.12887   0.07431   0.00000  Uiso   1.00
N159   N     0.98173   0.18068   0.26212   0.00000  Uiso   1.00
N160   N     0.68494   0.15265   0.23788   0.00000  Uiso   1.00
O161   O     0.79482   0.23809   0.24686   0.00000  Uiso   1.00
O162   O     0.87185   0.09524   0.25314   0.00000  Uiso   1.00
O163   O     0.89496   0.24753   0.25502   0.00000  Uiso   1.00
O164   O     0.77171   0.08580   0.24497   0.00000  Uiso   1.00
O165   O     0.75518   0.15930   0.30854   0.00000  Uiso   1.00
O166   O     0.91149   0.17403   0.19145   0.00000  Uiso   1.00
O167   O     0.85532   0.16874   0.31671   0.00000  Uiso   1.00
O168   O     0.81134   0.16460   0.18329   0.00000  Uiso   1.00
C169   C     0.18030   0.59966   0.25268   0.00000  Uiso   1.00
C170   C     0.20532   0.50406   0.16690   0.00000  Uiso   1.00
C171   C     0.10469   0.49193   0.38082   0.00000  Uiso   1.00
C172   C     0.22863   0.51138   0.11955   0.00000  Uiso   1.00
C173   C     0.02299   0.46002   0.44505   0.00000  Uiso   1.00
C174   C     0.30683   0.55280   0.05728   0.00000  Uiso   1.00
C175   C     0.04148   0.46965   0.40038   0.00000  Uiso   1.00
C176   C     0.28986   0.53914   0.10111   0.00000  Uiso   1.00
C177   C     0.14829   0.50701   0.40664   0.00000  Uiso   1.00
C178   C     0.18563   0.49544   0.09344   0.00000  Uiso   1.00
C179   C     0.13074   0.49859   0.45192   0.00000  Uiso   1.00
C180   C     0.15304   0.40034   0.24730   0.00000  Uiso   1.00
C181   C     0.20058   0.51031   0.04955   0.00000  Uiso   1.00
C182   C     0.06727   0.47330   0.47069   0.00000  Uiso   1.00
C183   C     0.26264   0.53915   0.03159   0.00000  Uiso   1.00
C184   C     0.17483   0.51286   0.47864   0.00000  Uiso   1.00
C185   C     0.15558   0.49814   0.02337   0.00000  Uiso   1.00
C186   C     0.21365   0.34611   0.29646   0.00000  Uiso   1.00
C187   C     0.11972   0.65389   0.20351   0.00000  Uiso   1.00
C188   C     0.09169   0.47274   0.04058   0.00000  Uiso   1.00
C189   C     0.23718   0.54198   0.46231   0.00000  Uiso   1.00
C190   C     0.04863   0.46089   0.01472   0.00000  Uiso   1.00
C191   C     0.27991   0.55483   0.48836   0.00000  Uiso   1.00
C192   C     0.18221   0.65430   0.26057   0.00000  Uiso   1.00
C193   C     0.15114   0.34570   0.23941   0.00000  Uiso   1.00
C194   C     0.12804   0.49630   0.33314   0.00000  Uiso   1.00
Cu195  Cu    0.10737   0.49441   0.24516   0.00000  Uiso   1.00
Cu196  Cu    0.22596   0.50559   0.25483   0.00000  Uiso   1.00
H197   H     0.00015   0.44168   0.02941   0.00000  Uiso   1.00
H198   H     0.25449   0.55684   0.42966   0.00000  Uiso   1.00
H199   H     0.00145   0.53836   0.28414   0.00000  Uiso   1.00
H200   H     0.33188   0.46164   0.21586   0.00000  Uiso   1.00
H201   H     0.22357   0.64975   0.31563   0.00000  Uiso   1.00
H202   H     0.25976   0.37225   0.28207   0.00000  Uiso   1.00
H203   H     0.18192   0.36818   0.32001   0.00000  Uiso   1.00
H204   H     0.10980   0.35025   0.18434   0.00000  Uiso   1.00
H205   H     0.15146   0.63182   0.17996   0.00000  Uiso   1.00
H206   H     0.07361   0.62774   0.21789   0.00000  Uiso   1.00
H207   H     0.32707   0.57727   0.47444   0.00000  Uiso   1.00
H208   H     0.14028   0.47201   0.10874   0.00000  Uiso   1.00
H209   H     0.19646   0.52348   0.39011   0.00000  Uiso   1.00
H210   H     0.32372   0.55184   0.12085   0.00000  Uiso   1.00
H211   H     0.00705   0.45784   0.38096   0.00000  Uiso   1.00
H212   H     0.30755   0.44137   0.45949   0.00000  Uiso   1.00
H213   H     0.02093   0.57487   0.04359   0.00000  Uiso   1.00
H214   H     0.07243   0.46221   0.07431   0.00000  Uiso   1.00
N215   N     0.31506   0.51401   0.26212   0.00000  Uiso   1.00
N216   N     0.01827   0.48599   0.23788   0.00000  Uiso   1.00
O217   O     0.12815   0.57142   0.24686   0.00000  Uiso   1.00
O218   O     0.20518   0.42858   0.25314   0.00000  Uiso   1.00
O219   O     0.22829   0.58086   0.25502   0.00000  Uiso   1.00
O220   O     0.10504   0.41914   0.24497   0.00000  Uiso   1.00
O221   O     0.08851   0.49263   0.30854   0.00000  Uiso   1.00
O222   O     0.24482   0.50737   0.19145   0.00000  Uiso   1.00
O223   O     0.18866   0.50207   0.31671   0.00000  Uiso   1.00
O224   O     0.14468   0.49793   0.18329   0.00000  Uiso   1.00
C225   C     0.51363   0.59966   0.25268   0.00000  Uiso   1.00
C226   C     0.53865   0.50406   0.16690   0.00000  Uiso   1.00
C227   C     0.43803   0.49193   0.38082   0.00000  Uiso   1.00
C228   C     0.56196   0.51138   0.11955   0.00000  Uiso   1.00
C229   C     0.35633   0.46002   0.44505   0.00000  Uiso   1.00
C230   C     0.64016   0.55280   0.05728   0.00000  Uiso   1.00
C231   C     0.37481   0.46965   0.40038   0.00000  Uiso   1.00
C232   C     0.62320   0.53914   0.10111   0.00000  Uiso   1.00
C233   C     0.48162   0.50701   0.40664   0.00000  Uiso   1.00
C234   C     0.51896   0.49544   0.09344   0.00000  Uiso   1.00
C235   C     0.46407   0.49859   0.45192   0.00000  Uiso   1.00
C236   C     0.48638   0.40034   0.24730   0.00000  Uiso   1.00
C237   C     0.53391   0.51031   0.04955   0.00000  Uiso   1.00
C238   C     0.40061   0.47330   0.47069   0.00000  Uiso   1.00
C239   C     0.59597   0.53915   0.03159   0.00000  Uiso   1.00
C240   C     0.50817   0.51286   0.47864   0.00000  Uiso   1.00
C241   C     0.48892   0.49814   0.02337   0.00000  Uiso   1.00
C242   C     0.54698   0.34611   0.29646   0.00000  Uiso   1.00
C243   C     0.45306   0.65389   0.20351   0.00000  Uiso   1.00
C244   C     0.42502   0.47274   0.04058   0.00000  Uiso   1.00
C245   C     0.57051   0.54198   0.46231   0.00000  Uiso   1.00
C246   C     0.38196   0.46089   0.01472   0.00000  Uiso   1.00
C247   C     0.61324   0.55483   0.48836   0.00000  Uiso   1.00
C248   C     0.51554   0.65430   0.26057   0.00000  Uiso   1.00
C249   C     0.48448   0.34570   0.23941   0.00000  Uiso   1.00
C250   C     0.46137   0.49630   0.33314   0.00000  Uiso   1.00
Cu251  Cu    0.44071   0.49441   0.24516   0.00000  Uiso   1.00
Cu252  Cu    0.55929   0.50559   0.25483   0.00000  Uiso   1.00
H253   H     0.33348   0.44168   0.02941   0.00000  Uiso   1.00
H254   H     0.58782   0.55684   0.42966   0.00000  Uiso   1.00
H255   H     0.33479   0.53836   0.28414   0.00000  Uiso   1.00
H256   H     0.66521   0.46164   0.21586   0.00000  Uiso   1.00
H257   H     0.55690   0.64975   0.31563   0.00000  Uiso   1.00
H258   H     0.59309   0.37225   0.28207   0.00000  Uiso   1.00
H259   H     0.51525   0.36818   0.32001   0.00000  Uiso   1.00
H260   H     0.44313   0.35025   0.18434   0.00000  Uiso   1.00
H261   H     0.48480   0.63182   0.17996   0.00000  Uiso   1.00
H262   H     0.40695   0.62774   0.21789   0.00000  Uiso   1.00
H263   H     0.66041   0.57727   0.47444   0.00000  Uiso   1.00
H264   H     0.47361   0.47201   0.10874   0.00000  Uiso   1.00
H265   H     0.52979   0.52348   0.39011   0.00000  Uiso   1.00
H266   H     0.65705   0.55184   0.12085   0.00000  Uiso   1.00
H267   H     0.34038   0.45784   0.38096   0.00000  Uiso   1.00
H268   H     0.64088   0.44137   0.45949   0.00000  Uiso   1.00
H269   H     0.35427   0.57487   0.04359   0.00000  Uiso   1.00
H270   H     0.40577   0.46221   0.07431   0.00000  Uiso   1.00
N271   N     0.64839   0.51401   0.26212   0.00000  Uiso   1.00
N272   N     0.35161   0.48599   0.23788   0.00000  Uiso   1.00
O273   O     0.46148   0.57142   0.24686   0.00000  Uiso   1.00
O274   O     0.53852   0.42858   0.25314   0.00000  Uiso   1.00
O275   O     0.56163   0.58086   0.25502   0.00000  Uiso   1.00
O276   O     0.43837   0.41914   0.24497   0.00000  Uiso   1.00
O277   O     0.42185   0.49263   0.30854   0.00000  Uiso   1.00
O278   O     0.57815   0.50737   0.19145   0.00000  Uiso   1.00
O279   O     0.52199   0.50207   0.31671   0.00000  Uiso   1.00
O280   O     0.47801   0.49793   0.18329   0.00000  Uiso   1.00
C281   C     0.84696   0.59966   0.25268   0.00000  Uiso   1.00
C282   C     0.87198   0.50406   0.16690   0.00000  Uiso   1.00
C283   C     0.77136   0.49193   0.38082   0.00000  Uiso   1.00
C284   C     0.89529   0.51138   0.11955   0.00000  Uiso   1.00
C285   C     0.68966   0.46002   0.44505   0.00000  Uiso   1.00
C286   C     0.97350   0.55280   0.05728   0.00000  Uiso   1.00
C287   C     0.70814   0.46965   0.40038   0.00000  Uiso   1.00
C288   C     0.95653   0.53914   0.10111   0.00000  Uiso   1.00
C289   C     0.81495   0.50701   0.40664   0.00000  Uiso   1.00
C290   C     0.85230   0.49544   0.09344   0.00000  Uiso   1.00
C291   C     0.79740   0.49859   0.45192   0.00000  Uiso   1.00
C292   C     0.81971   0.40034   0.24730   0.00000  Uiso   1.00
C293   C     0.86725   0.51031   0.04955   0.00000  Uiso   1.00
C294   C     0.73394   0.47330   0.47069   0.00000  Uiso   1.00
C295   C     0.92931   0.53915   0.03159   0.00000  Uiso   1.00
C296   C     0.84150   0.51286   0.47864   0.00000  Uiso   1.00
C297   C     0.82225   0.49814   0.02337   0.00000  Uiso   1.00
C298   C     0.88031   0.34611   0.29646   0.00000  Uiso   1.00
C299   C     0.78639   0.65389   0.20351   0.00000  Uiso   1.00
C300   C     0.75836   0.47274   0.04058   0.00000  Uiso   1.00
C301   C     0.90384   0.54198   0.46231   0.00000  Uiso   1.00
C302   C     0.71530   0.46089   0.01472   0.00000  Uiso   1.00
C303   C     0.94657   0.55483   0.48836   0.00000  Uiso   1.00
C304   C     0.84887   0.65430   0.26057   0.00000  Uiso   1.00
C305   C     0.81781   0.34570   0.23941   0.00000  Uiso   1.00
C306   C     0.79471   0.49630   0.33314   0.00000  Uiso   1.00
Cu307  Cu    0.77404   0.49441   0.24516   0.00000  Uiso   1.00
Cu308  Cu    0.89263   0.50559   0.25483   0.00000  Uiso   1.00
H309   H     0.66681   0.44168   0.02941   0.00000  Uiso   1.00
H310   H     0.92116   0.55684   0.42966   0.00000  Uiso   1.00
H311   H     0.66812   0.53836   0.28414   0.00000  Uiso   1.00
H312   H     0.99855   0.46164   0.21586   0.00000  Uiso   1.00
H313   H     0.89024   0.64975   0.31563   0.00000  Uiso   1.00
H314   H     0.92642   0.37225   0.28207   0.00000  Uiso   1.00
H315   H     0.84858   0.36818   0.32001   0.00000  Uiso   1.00
H316   H     0.77647   0.35025   0.18434   0.00000  Uiso   1.00
H317   H     0.81813   0.63182   0.17996   0.00000  Uiso   1.00
H318   H     0.74028   0.62774   0.21789   0.00000  Uiso   1.00
H319   H     0.99374   0.57727   0.47444   0.00000  Uiso   1.00
H320   H     0.80694   0.47201   0.10874   0.00000  Uiso   1.00
H321   H     0.86313   0.52348   0.39011   0.00000  Uiso   1.00
H322   H     0.99038   0.55184   0.12085   0.00000  Uiso   1.00
H323   H     0.67371   0.45784   0.38096   0.00000  Uiso   1.00
H324   H     0.97422   0.44137   0.45949   0.00000  Uiso   1.00
H325   H     0.68760   0.57487   0.04359   0.00000  Uiso   1.00
H326   H     0.73910   0.46221   0.07431   0.00000  Uiso   1.00
N327   N     0.98173   0.51401   0.26212   0.00000  Uiso   1.00
N328   N     0.68494   0.48599   0.23788   0.00000  Uiso   1.00
O329   O     0.79482   0.57142   0.24686   0.00000  Uiso   1.00
O330   O     0.87185   0.42858   0.25314   0.00000  Uiso   1.00
O331   O     0.89496   0.58086   0.25502   0.00000  Uiso   1.00
O332   O     0.77171   0.41914   0.24497   0.00000  Uiso   1.00
O333   O     0.75518   0.49263   0.30854   0.00000  Uiso   1.00
O334   O     0.91149   0.50737   0.19145   0.00000  Uiso   1.00
O335   O     0.85532   0.50207   0.31671   0.00000  Uiso   1.00
O336   O     0.81134   0.49793   0.18329   0.00000  Uiso   1.00
C337   C     0.18030   0.93299   0.25268   0.00000  Uiso   1.00
C338   C     0.20532   0.83740   0.16690   0.00000  Uiso   1.00
C339   C     0.10469   0.82526   0.38082   0.00000  Uiso   1.00
C340   C     0.22863   0.84472   0.11955   0.00000  Uiso   1.00
C341   C     0.02299   0.79335   0.44505   0.00000  Uiso   1.00
C342   C     0.30683   0.88613   0.05728   0.00000  Uiso   1.00
C343   C     0.04148   0.80298   0.40038   0.00000  Uiso   1.00
C344   C     0.28986   0.87247   0.10111   0.00000  Uiso   1.00
C345   C     0.14829   0.84034   0.40664   0.00000  Uiso   1.00
C346   C     0.18563   0.82877   0.09344   0.00000  Uiso   1.00
C347   C     0.13074   0.83192   0.45192   0.00000  Uiso   1.00
C348   C     0.15304   0.73368   0.24730   0.00000  Uiso   1.00
C349   C     0.20058   0.84364   0.04955   0.00000  Uiso   1.00
C350   C     0.06727   0.80664   0.47069   0.00000  Uiso   1.00
C351   C     0.26264   0.87249   0.03159   0.00000  Uiso   1.00
C352   C     0.17483   0.84619   0.47864   0.00000  Uiso   1.00
C353   C     0.15558   0.83147   0.02337   0.00000  Uiso   1.00
C354   C     0.21365   0.67944   0.29646   0.00000  Uiso   1.00
C355   C     0.11972   0.98722   0.20351   0.00000  Uiso   1.00
C356   C     0.09169   0.80608   0.04058   0.00000  Uiso   1.00
C357   C     0.23718   0.87532   0.46231   0.00000  Uiso   1.00
C358   C     0.04863   0.79423   0.01472   0.00000  Uiso   1.00
C359   C     0.27991   0.88816   0.48836   0.00000  Uiso   1.00
C360   C     0.18221   0.98763   0.26057   0.00000  Uiso   1.00
C361   C     0.15114   0.67903   0.23941   0.00000  Uiso   1.00
C362   C     0.12804   0.82963   0.33314   0.00000  Uiso   1.00
Cu363  Cu    0.10737   0.82775   0.24516   0.00000  Uiso   1.00
Cu364  Cu    0.22596   0.83892   0.25483   0.00000  Uiso   1.00
H365   H     0.00015   0.77501   0.02941   0.00000  Uiso   1.00
H366   H     0.25449   0.89018   0.42966   0.00000  Uiso   1.00
H367   H     0.00145   0.87169   0.28414   0.00000  Uiso   1.00
H368   H     0.33188   0.79498   0.21586   0.00000  Uiso   1.00
H369   H     0.22357   0.98308   0.31563   0.00000  Uiso   1.00
H370   H     0.25976   0.70559   0.28207   0.00000  Uiso   1.00
H371   H     0.18192   0.70152   0.32001   0.00000  Uiso   1.00
H372   H     0.10980   0.68359   0.18434   0.00000  Uiso   1.00
H373   H     0.15146   0.96515   0.17996   0.00000  Uiso   1.00
H374   H     0.07361   0.96107   0.21789   0.00000  Uiso   1.00
H375   H     0.32707   0.91060   0.47444   0.00000  Uiso   1.00
H376   H     0.14028   0.80535   0.10874   0.00000  Uiso   1.00
H377   H     0.19646   0.85682   0.39011   0.00000  Uiso   1.00
H378   H     0.32372   0.88517   0.12085   0.00000  Uiso   1.00
H379   H     0.00705   0.79117   0.38096   0.00000  Uiso   1.00
H380   H     0.30755   0.77470   0.45949   0.00000  Uiso   1.00
H381   H     0.02093   0.90820   0.04359   0.00000  Uiso   1.00
H382   H     0.07243   0.79554   0.07431   0.00000  Uiso   1.00
N383   N     0.31506   0.84735   0.26212   0.00000  Uiso   1.00
N384   N     0.01827   0.81932   0.23788   0.00000  Uiso   1.00
O385   O     0.12815   0.90476   0.24686   0.00000  Uiso   1.00
O386   O     0.20518   0.76191   0.25314   0.00000  Uiso   1.00
O387   O     0.22829   0.91420   0.25502   0.00000  Uiso   1.00
O388   O     0.10504   0.75247   0.24497   0.00000  Uiso   1.00
O389   O     0.08851   0.82597   0.30854   0.00000  Uiso   1.00
O390   O     0.24482   0.84070   0.19145   0.00000  Uiso   1.00
O391   O     0.18866   0.83540   0.31671   0.00000  Uiso   1.00
O392   O     0.14468   0.83126   0.18329   0.00000  Uiso   1.00
C393   C     0.51363   0.93299   0.25268   0.00000  Uiso   1.00
C394   C     0.53865   0.83740   0.16690   0.00000  Uiso   1.00
C395   C     0.43803   0.82526   0.38082   0.00000  Uiso   1.00
C396   C     0.56196   0.84472   0.11955   0.00000  Uiso   1.00
C397   C     0.35633   0.79335   0.44505   0.00000  Uiso   1.00
C398   C     0.64016   0.88613   0.05728   0.00000  Uiso   1.00
C399   C     0.37481   0.80298   0.40038   0.00000  Uiso   1.00
C400   C     0.62320   0.87247   0.10111   0.00000  Uiso   1.00
C401   C     0.48162   0.84034   0.40664   0.00000  Uiso   1.00
C402   C     0.51896   0.82877   0.09344   0.00000  Uiso   1.00
C403   C     0.46407   0.83192   0.45192   0.00000  Uiso   1.00
C404   C     0.48638   0.73368   0.24730   0.00000  Uiso   1.00
C405   C     0.53391   0.84364   0.04955   0.00000  Uiso   1.00
C406   C     0.40061   0.80664   0.47069   0.00000  Uiso   1.00
C407   C     0.59597   0.87249   0.03159   0.00000  Uiso   1.00
C408   C     0.50817   0.84619   0.47864   0.00000  Uiso   1.00
C409   C     0.48892   0.83147   0.02337   0.00000  Uiso   1.00
C410   C     0.54698   0.67944   0.29646   0.00000  Uiso   1.00
C411   C     0.45306   0.98722   0.20351   0.00000  Uiso   1.00
C412   C     0.42502   0.80608   0.04058   0.00000  Uiso   1.00
C413   C     0.57051   0.87532   0.46231   0.00000  Uiso   1.00
C414   C     0.38196   0.79423   0.01472   0.00000  Uiso   1.00
C415   C     0.61324   0.88816   0.48836   0.00000  Uiso   1.00
C416   C     0.51554   0.98763   0.26057   0.00000  Uiso   1.00
C417   C     0.48448   0.67903   0.23941   0.00000  Uiso   1.00
C418   C     0.46137   0.82963   0.33314   0.00000  Uiso   1.00
Cu419  Cu    0.44071   0.82775   0.24516   0.00000  Uiso   1.00
Cu420  Cu    0.55929   0.83892   0.25483   0.00000  Uiso   1.00
H421   H     0.33348   0.77501   0.02941   0.00000  Uiso   1.00
H422   H     0.58782   0.89018   0.42966   0.00000  Uiso   1.00
H423   H     0.33479   0.87169   0.28414   0.00000  Uiso   1.00
H424   H     0.66521   0.79498   0.21586   0.00000  Uiso   1.00
H425   H     0.55690   0.98308   0.31563   0.00000  Uiso   1.00
H426   H     0.59309   0.70559   0.28207   0.00000  Uiso   1.00
H427   H     0.51525   0.70152   0.32001   0.00000  Uiso   1.00
H428   H     0.44313   0.68359   0.18434   0.00000  Uiso   1.00
H429   H     0.48480   0.96515   0.17996   0.00000  Uiso   1.00
H430   H     0.40695   0.96107   0.21789   0.00000  Uiso   1.00
H431   H     0.66041   0.91060   0.47444   0.00000  Uiso   1.00
H432   H     0.47361   0.80535   0.10874   0.00000  Uiso   1.00
H433   H     0.52979   0.85682   0.39011   0.00000  Uiso   1.00
H434   H     0.65705   0.88517   0.12085   0.00000  Uiso   1.00
H435   H     0.34038   0.79117   0.38096   0.00000  Uiso   1.00
H436   H     0.64088   0.77470   0.45949   0.00000  Uiso   1.00
H437   H     0.35427   0.90820   0.04359   0.00000  Uiso   1.00
H438   H     0.40577   0.79554   0.07431   0.00000  Uiso   1.00
N439   N     0.64839   0.84735   0.26212   0.00000  Uiso   1.00
N440   N     0.35161   0.81932   0.23788   0.00000  Uiso   1.00
O441   O     0.46148   0.90476   0.24686   0.00000  Uiso   1.00
O442   O     0.53852   0.76191   0.25314   0.00000  Uiso   1.00
O443   O     0.56163   0.91420   0.25502   0.00000  Uiso   1.00
O444   O     0.43837   0.75247   0.24497   0.00000  Uiso   1.00
O445   O     0.42185   0.82597   0.30854   0.00000  Uiso   1.00
O446   O     0.57815   0.84070   0.19145   0.00000  Uiso   1.00
O447   O     0.52199   0.83540   0.31671   0.00000  Uiso   1.00
O448   O     0.47801   0.83126   0.18329   0.00000  Uiso   1.00
C449   C     0.84696   0.93299   0.25268   0.00000  Uiso   1.00
C450   C     0.87198   0.83740   0.16690   0.00000  Uiso   1.00
C451   C     0.77136   0.82526   0.38082   0.00000  Uiso   1.00
C452   C     0.89529   0.84472   0.11955   0.00000  Uiso   1.00
C453   C     0.68966   0.79335   0.44505   0.00000  Uiso   1.00
C454   C     0.97350   0.88613   0.05728   0.00000  Uiso   1.00
C455   C     0.70814   0.80298   0.40038   0.00000  Uiso   1.00
C456   C     0.95653   0.87247   0.10111   0.00000  Uiso   1.00
C457   C     0.81495   0.84034   0.40664   0.00000  Uiso   1.00
C458   C     0.85230   0.82877   0.09344   0.00000  Uiso   1.00
C459   C     0.79740   0.83192   0.45192   0.00000  Uiso   1.00
C460   C     0.81971   0.73368   0.24730   0.00000  Uiso   1.00
C461   C     0.86725   0.84364   0.04955   0.00000  Uiso   1.00
C462   C     0.73394   0.80664   0.47069   0.00000  Uiso   1.00
C463   C     0.92931   0.87249   0.03159   0.00000  Uiso   1.00
C464   C     0.84150   0.84619   0.47864   0.00000  Uiso   1.00
C465   C     0.82225   0.83147   0.02337   0.00000  Uiso   1.00
C466   C     0.88031   0.67944   0.29646   0.00000  Uiso   1.00
C467   C     0.78639   0.98722   0.20351   0.00000  Uiso   1.00
C468   C     0.75836   0.80608   0.04058   0.00000  Uiso   1.00
C469   C     0.90384   0.87532   0.46231   0.00000  Uiso   1.00
C470   C     0.71530   0.79423   0.01472   0.00000  Uiso   1.00
C471   C     0.94657   0.88816   0.48836   0.00000  Uiso   1.00
C472   C     0.84887   0.98763   0.26057   0.00000  Uiso   1.00
C473   C     0.81781   0.67903   0.23941   0.00000  Uiso   1.00
C474   C     0.79471   0.82963   0.33314   0.00000  Uiso   1.00
Cu475  Cu    0.77404   0.82775   0.24516   0.00000  Uiso   1.00
Cu476  Cu    0.89263   0.83892   0.25483   0.00000  Uiso   1.00
H477   H     0.66681   0.77501   0.02941   0.00000  Uiso   1.00
H478   H     0.92116   0.89018   0.42966   0.00000  Uiso   1.00
H479   H     0.66812   0.87169   0.28414   0.00000  Uiso   1.00
H480   H     0.99855   0.79498   0.21586   0.00000  Uiso   1.00
H481   H     0.89024   0.98308   0.31563   0.00000  Uiso   1.00
H482   H     0.92642   0.70559   0.28207   0.00000  Uiso   1.00
H483   H     0.84858   0.70152   0.32001   0.00000  Uiso   1.00
H484   H     0.77647   0.68359   0.18434   0.00000  Uiso   1.00
H485   H     0.81813   0.96515   0.17996   0.00000  Uiso   1.00
H486   H     0.74028   0.96107   0.21789   0.00000  Uiso   1.00
H487   H     0.99374   0.91060   0.47444   0.00000  Uiso   1.00
H488   H     0.80694   0.80535   0.10874   0.00000  Uiso   1.00
H489   H     0.86313   0.85682   0.39011   0.00000  Uiso   1.00
H490   H     0.99038   0.88517   0.12085   0.00000  Uiso   1.00
H491   H     0.67371   0.79117   0.38096   0.00000  Uiso   1.00
H492   H     0.97422   0.77470   0.45949   0.00000  Uiso   1.00
H493   H     0.68760   0.90820   0.04359   0.00000  Uiso   1.00
H494   H     0.73910   0.79554   0.07431   0.00000  Uiso   1.00
N495   N     0.98173   0.84735   0.26212   0.00000  Uiso   1.00
N496   N     0.68494   0.81932   0.23788   0.00000  Uiso   1.00
O497   O     0.79482   0.90476   0.24686   0.00000  Uiso   1.00
O498   O     0.87185   0.76191   0.25314   0.00000  Uiso   1.00
O499   O     0.89496   0.91420   0.25502   0.00000  Uiso   1.00
O500   O     0.77171   0.75247   0.24497   0.00000  Uiso   1.00
O501   O     0.75518   0.82597   0.30854   0.00000  Uiso   1.00
O502   O     0.91149   0.84070   0.19145   0.00000  Uiso   1.00
O503   O     0.85532   0.83540   0.31671   0.00000  Uiso   1.00
O504   O     0.81134   0.83126   0.18329   0.00000  Uiso   1.00
C505   C     0.18030   0.26632   0.75268   0.00000  Uiso   1.00
C506   C     0.20532   0.17073   0.66690   0.00000  Uiso   1.00
C507   C     0.10469   0.15859   0.88082   0.00000  Uiso   1.00
C508   C     0.22863   0.17805   0.61955   0.00000  Uiso   1.00
C509   C     0.02299   0.12669   0.94505   0.00000  Uiso   1.00
C510   C     0.30683   0.21947   0.55728   0.00000  Uiso   1.00
C511   C     0.04148   0.13632   0.90038   0.00000  Uiso   1.00
C512   C     0.28986   0.20580   0.60111   0.00000  Uiso   1.00
C513   C     0.14829   0.17368   0.90664   0.00000  Uiso   1.00
C514   C     0.18563   0.16211   0.59344   0.00000  Uiso   1.00
C515   C     0.13074   0.16525   0.95192   0.00000  Uiso   1.00
C516   C     0.15304   0.06701   0.74730   0.00000  Uiso   1.00
C517   C     0.20058   0.17697   0.54955   0.00000  Uiso   1.00
C518   C     0.06727   0.13997   0.97069   0.00000  Uiso   1.00
C519   C     0.26264   0.20582   0.53159   0.00000  Uiso   1.00
C520   C     0.17483   0.17952   0.97864   0.00000  Uiso   1.00
C521   C     0.15558   0.16480   0.52337   0.00000  Uiso   1.00
C522   C     0.21365   0.01278   0.79646   0.00000  Uiso   1.00
C523   C     0.11972   0.32056   0.70351   0.00000  Uiso   1.00
C524   C     0.09169   0.13941   0.54058   0.00000  Uiso   1.00
C525   C     0.23718   0.20865   0.96231   0.00000  Uiso   1.00
C526   C     0.04863   0.12756   0.51472   0.00000  Uiso   1.00
C527   C     0.27991   0.22149   0.98836   0.00000  Uiso   1.00
C528   C     0.18221   0.32097   0.76057   0.00000  Uiso   1.00
C529   C     0.15114   0.01236   0.73941   0.00000  Uiso   1.00
C530   C     0.12804   0.16296   0.83314   0.00000  Uiso   1.00
Cu531  Cu    0.10737   0.16108   0.74516   0.00000  Uiso   1.00
Cu532  Cu    0.22596   0.17225   0.75483   0.00000  Uiso   1.00
H533   H     0.00015   0.10834   0.52941   0.00000  Uiso   1.00
H534   H     0.25449   0.22351   0.92966   0.00000  Uiso   1.00
H535   H     0.00145   0.20502   0.78414   0.00000  Uiso   1.00
H536   H     0.33188   0.12831   0.71586   0.00000  Uiso   1.00
H537   H     0.22357   0.31641   0.81563   0.00000  Uiso   1.00
H538   H     0.25976   0.03892   0.78207   0.00000  Uiso   1.00
H539   H     0.18192   0.03485   0.82001   0.00000  Uiso   1.00
H540   H     0.10980   0.01692   0.68434   0.00000  Uiso   1.00
H541   H     0.15146   0.29849   0.67996   0.00000  Uiso   1.00
H542   H     0.07361   0.29441   0.71789   0.00000  Uiso   1.00
H543   H     0.32707   0.24394   0.97444   0.00000  Uiso   1.00
H544   H     0.14028   0.13868   0.60874   0.00000  Uiso   1.00
H545   H     0.19646   0.19015   0.89011   0.00000  Uiso   1.00
H546   H     0.32372   0.21851   0.62085   0.00000  Uiso   1.00
H547   H     0.00705   0.12451   0.88096   0.00000  Uiso   1.00
H548   H     0.30755   0.10803   0.95949   0.00000  Uiso   1.00
H549   H     0.02093   0.24154   0.54359   0.00000  Uiso   1.00
H550   H     0.07243   0.12887   0.57431   0.00000  Uiso   1.00
N551   N     0.31506   0.18068   0.76212   0.00000  Uiso   1.00
N552   N     0.01827   0.15265   0.73788   0.00000  Uiso   1.00
O553   O     0.12815   0.23809   0.74686   0.00000  Uiso   1.00
O554   O     0.20518   0.09524   0.75314   0.00000  Uiso   1.00
O555   O     0.22829   0.24753   0.75502   0.00000  Uiso   1.00
O556   O     0.10504   0.08580   0.74497   0.00000  Uiso   1.00
O557   O     0.08851   0.15930   0.80854   0.00000  Uiso   1.00
O558   O     0.24482   0.17403   0.69145   0.00000  Uiso   1.00
O559   O     0.18866   0.16874   0.81671   0.00000  Uiso   1.00
O560   O     0.14468   0.16460   0.68329   0.00000  Uiso   1.00
C561   C     0.51363   0.26632   0.75268   0.00000  Uiso   1.00
C562   C     0.53865   0.17073   0.66690   0.00000  Uiso   1.00
C563   C     0.43803   0.15859   0.88082   0.00000  Uiso   1.00
C564   C     0.56196   0.17805   0.61955   0.00000  Uiso   1.00
C565   C     0.35633   0.12669   0.94505   0.00000  Uiso   1.00
C566   C     0.64016   0.21947   0.55728   0.00000  Uiso   1.00
C567   C     0.37481   0.13632   0.90038   0.00000  Uiso   1.00
C568   C     0.62320   0.20580   0.60111   0.00000  Uiso   1.00
C569   C     0.48162   0.17368   0.90664   0.00000  Uiso   1.00
C570   C     0.51896   0.16211   0.59344   0.00000  Uiso   1.00
C571   C     0.46407   0.16525   0.95192   0.00000  Uiso   1.00
C572   C     0.48638   0.06701   0.74730   0.00000  Uiso   1.00
C573   C     0.53391   0.17697   0.54955   0.00000  Uiso   1.00
C574   C     0.40061   0.13997   0.97069   0.00000  Uiso   1.00
C575   C     0.59597   0.20582   0.53159   0.00000  Uiso   1.00
C576   C     0.50817   0.17952   0.97864   0.00000  Uiso   1.00
C577   C     0.48892   0.16480   0.52337   0.00000  Uiso   1.00
C578   C     0.54698   0.01278   0.79646   0.00000  Uiso   1.00
C579   C     0.45306   0.32056   0.70351   0.00000  Uiso   1.00
C580   C     0.42502   0.13941   0.54058   0.00000  Uiso   1.00
C581   C     0.57051   0.20865   0.96231   0.00000  Uiso   1.00
C582   C     0.38196   0.12756   0.51472   0.00000  Uiso   1.00
C583   C     0.61324   0.22149   0.98836   0.00000  Uiso   1.00
C584   C     0.51554   0.32097   0.76057   0.00000  Uiso   1.00
C585   C     0.48448   0.01236   0.73941   0.00000  Uiso   1.00
C586   C     0.46137   0.16296   0.83314   0.00000  Uiso   1.00
Cu587  Cu    0.44071   0.16108   0.74516   0.00000  Uiso   1.00
Cu588  Cu    0.55929   0.17225   0.75483   0.00000  Uiso   1.00
H589   H     0.33348   0.10834   0.52941   0.00000  Uiso   1.00
H590   H     0.58782   0.22351   0.92966   0.00000  Uiso   1.00
H591   H     0.33479   0.20502   0.78414   0.00000  Uiso   1.00
H592   H     0.66521   0.12831   0.71586   0.00000  Uiso   1.00
H593   H     0.55690   0.31641   0.81563   0.00000  Uiso   1.00
H594   H     0.59309   0.03892   0.78207   0.00000  Uiso   1.00
H595   H     0.51525   0.03485   0.82001   0.00000  Uiso   1.00
H596   H     0.44313   0.01692   0.68434   0.00000  Uiso   1.00
H597   H     0.48480   0.29849   0.67996   0.00000  Uiso   1.00
H598   H     0.40695   0.29441   0.71789   0.00000  Uiso   1.00
H599   H     0.66041   0.24394   0.97444   0.00000  Uiso   1.00
H600   H     0.47361   0.13868   0.60874   0.00000  Uiso   1.00
H601   H     0.52979   0.19015   0.89011   0.00000  Uiso   1.00
H602   H     0.65705   0.21851   0.62085   0.00000  Uiso   1.00
H603   H     0.34038   0.12451   0.88096   0.00000  Uiso   1.00
H604   H     0.64088   0.10803   0.95949   0.00000  Uiso   1.00
H605   H     0.35427   0.24154   0.54359   0.00000  Uiso   1.00
H606   H     0.40577   0.12887   0.57431   0.00000  Uiso   1.00
N607   N     0.64839   0.18068   0.76212   0.00000  Uiso   1.00
N608   N     0.35161   0.15265   0.73788   0.00000  Uiso   1.00
O609   O     0.46148   0.23809   0.74686   0.00000  Uiso   1.00
O610   O     0.53852   0.09524   0.75314   0.00000  Uiso   1.00
O611   O     0.56163   0.24753   0.75502   0.00000  Uiso   1.00
O612   O     0.43837   0.08580   0.74497   0.00000  Uiso   1.00
O613   O     0.42185   0.15930   0.80854   0.00000  Uiso   1.00
O614   O     0.57815   0.17403   0.69145   0.00000  Uiso   1.00
O615   O     0.52199   0.16874   0.81671   0.00000  Uiso   1.00
O616   O     0.47801   0.16460   0.68329   0.00000  Uiso   1.00
C617   C     0.84696   0.26632   0.75268   0.00000  Uiso   1.00
C618   C     0.87198   0.17073   0.66690   0.00000  Uiso   1.00
C619   C     0.77136   0.15859   0.88082   0.00000  Uiso   1.00
C620   C     0.89529   0.17805   0.61955   0.00000  Uiso   1.00
C621   C     0.68966   0.12669   0.94505   0.00000  Uiso   1.00
C622   C     0.97350   0.21947   0.55728   0.00000  Uiso   1.00
C623   C     0.70814   0.13632   0.90038   0.00000  Uiso   1.00
C624   C     0.95653   0.20580   0.60111   0.00000  Uiso   1.00
C625   C     0.81495   0.17368   0.90664   0.00000  Uiso   1.00
C626   C     0.85230   0.16211   0.59344   0.00000  Uiso   1.00
C627   C     0.79740   0.16525   0.95192   0.00000  Uiso   1.00
C628   C     0.81971   0.06701   0.74730   0.00000  Uiso   1.00
C629   C     0.86725   0.17697   0.54955   0.00000  Uiso   1.00
C630   C     0.73394   0.13997   0.97069   0.00000  Uiso   1.00
C631   C     0.92931   0.20582   0.53159   0.00000  Uiso   1.00
C632   C     0.84150   0.17952   0.97864   0.00000  Uiso   1.00
C633   C     0.82225   0.16480   0.52337   0.00000  Uiso   1.00
C634   C     0.88031   0.01278   0.79646   0.00000  Uiso   1.00
C635   C     0.78639   0.32056   0.70351   0.00000  Uiso   1.00
C636   C     0.75836   0.13941   0.54058   0.00000  Uiso   1.00
C637   C     0.90384   0.20865   0.96231   0.00000  Uiso   1.00
C638   C     0.71530   0.12756   0.51472   0.00000  Uiso   1.00
C639   C     0.94657   0.22149   0.98836   0.00000  Uiso   1.00
C640   C     0.84887   0.32097   0.76057   0.00000  Uiso   1.00
C641   C     0.81781   0.01236   0.73941   0.00000  Uiso   1.00
C642   C     0.79471   0.16296   0.83314   0.00000  Uiso   1.00
Cu643  Cu    0.77404   0.16108   0.74516   0.00000  Uiso   1.00
Cu644  Cu    0.89263   0.17225   0.75483   0.00000  Uiso   1.00
H645   H     0.66681   0.10834   0.52941   0.00000  Uiso   1.00
H646   H     0.92116   0.22351   0.92966   0.00000  Uiso   1.00
H647   H     0.66812   0.20502   0.78414   0.00000  Uiso   1.00
H648   H     0.99855   0.12831   0.71586   0.00000  Uiso   1.00
H649   H     0.89024   0.31641   0.81563   0.00000  Uiso   1.00
H650   H     0.92642   0.03892   0.78207   0.00000  Uiso   1.00
H651   H     0.84858   0.03485   0.82001   0.00000  Uiso   1.00
H652   H     0.77647   0.01692   0.68434   0.00000  Uiso   1.00
H653   H     0.81813   0.29849   0.67996   0.00000  Uiso   1.00
H654   H     0.74028   0.29441   0.71789   0.00000  Uiso   1.00
H655   H     0.99374   0.24394   0.97444   0.00000  Uiso   1.00
H656   H     0.80694   0.13868   0.60874   0.00000  Uiso   1.00
H657   H     0.86313   0.19015   0.89011   0.00000  Uiso   1.00
H658   H     0.99038   0.21851   0.62085   0.00000  Uiso   1.00
H659   H     0.67371   0.12451   0.88096   0.00000  Uiso   1.00
H660   H     0.97422   0.10803   0.95949   0.00000  Uiso   1.00
H661   H     0.68760   0.24154   0.54359   0.00000  Uiso   1.00
H662   H     0.73910   0.12887   0.57431   0.00000  Uiso   1.00
N663   N     0.98173   0.18068   0.76212   0.00000  Uiso   1.00
N664   N     0.68494   0.15265   0.73788   0.00000  Uiso   1.00
O665   O     0.79482   0.23809   0.74686   0.00000  Uiso   1.00
O666   O     0.87185   0.09524   0.75314   0.00000  Uiso   1.00
O667   O     0.89496   0.24753   0.75502   0.00000  Uiso   1.00
O668   O     0.77171   0.08580   0.74497   0.00000  Uiso   1.00
O669   O     0.75518   0.15930   0.80854   0.00000  Uiso   1.00
O670   O     0.91149   0.17403   0.69145   0.00000  Uiso   1.00
O671   O     0.85532   0.16874   0.81671   0.00000  Uiso   1.00
O672   O     0.81134   0.16460   0.68329   0.00000  Uiso   1.00
C673   C     0.18030   0.59966   0.75268   0.00000  Uiso   1.00
C674   C     0.20532   0.50406   0.66690   0.00000  Uiso   1.00
C675   C     0.10469   0.49193   0.88082   0.00000  Uiso   1.00
C676   C     0.22863   0.51138   0.61955   0.00000  Uiso   1.00
C677   C     0.02299   0.46002   0.94505   0.00000  Uiso   1.00
C678   C     0.30683   0.55280   0.55728   0.00000  Uiso   1.00
C679   C     0.04148   0.46965   0.90038   0.00000  Uiso   1.00
C680   C     0.28986   0.53914   0.60111   0.00000  Uiso   1.00
C681   C     0.14829   0.50701   0.90664   0.00000  Uiso   1.00
C682   C     0.18563   0.49544   0.59344   0.00000  Uiso   1.00
C683   C     0.13074   0.49859   0.95192   0.00000  Uiso   1.00
C684   C     0.15304   0.40034   0.74730   0.00000  Uiso   1.00
C685   C     0.20058   0.51031   0.54955   0.00000  Uiso   1.00
C686   C     0.06727   0.47330   0.97069   0.00000  Uiso   1.00
C687   C     0.26264   0.53915   0.53159   0.00000  Uiso   1.00
C688   C     0.17483   0.51286   0.97864   0.00000  Uiso   1.00
C689   C     0.15558   0.49814   0.52337   0.00000  Uiso   1.00
C690   C     0.21365   0.34611   0.79646   0.00000  Uiso   1.00
C691   C     0.11972   0.65389   0.70351   0.00000  Uiso   1.00
C692   C     0.09169   0.47274   0.54058   0.00000  Uiso   1.00
C693   C     0.23718   0.54198   0.96231   0.00000  Uiso   1.00
C694   C     0.04863   0.46089   0.51472   0.00000  Uiso   1.00
C695   C     0.27991   0.55483   0.98836   0.00000  Uiso   1.00
C696   C     0.18221   0.65430   0.76057   0.00000  Uiso   1.00
C697   C     0.15114   0.34570   0.73941   0.00000  Uiso   1.00
C698   C     0.12804   0.49630   0.83314   0.00000  Uiso   1.00
Cu699  Cu    0.10737   0.49441   0.74516   0.00000  Uiso   1.00
Cu700  Cu    0.22596   0.50559   0.75483   0.00000  Uiso   1.00
H701   H     0.00015   0.44168   0.52941   0.00000  Uiso   1.00
H702   H     0.25449   0.55684   0.92966   0.00000  Uiso   1.00
H703   H     0.00145   0.53836   0.78414   0.00000  Uiso   1.00
H704   H     0.33188   0.46164   0.71586   0.00000  Uiso   1.00
H705   H     0.22357   0.64975   0.81563   0.00000  Uiso   1.00
H706   H     0.25976   0.37225   0.78207   0.00000  Uiso   1.00
H707   H     0.18192   0.36818   0.82001   0.00000  Uiso   1.00
H708   H     0.10980   0.35025   0.68434   0.00000  Uiso   1.00
H709   H     0.15146   0.63182   0.67996   0.00000  Uiso   1.00
H710   H     0.07361   0.62774   0.71789   0.00000  Uiso   1.00
H711   H     0.32707   0.57727   0.97444   0.00000  Uiso   1.00
H712   H     0.14028   0.47201   0.60874   0.00000  Uiso   1.00
H713   H     0.19646   0.52348   0.89011   0.00000  Uiso   1.00
H714   H     0.32372   0.55184   0.62085   0.00000  Uiso   1.00
H715   H     0.00705   0.45784   0.88096   0.00000  Uiso   1.00
H716   H     0.30755   0.44137   0.95949   0.00000  Uiso   1.00
H717   H     0.02093   0.57487   0.54359   0.00000  Uiso   1.00
H718   H     0.07243   0.46221   0.57431   0.00000  Uiso   1.00
N719   N     0.31506   0.51401   0.76212   0.00000  Uiso   1.00
N720   N     0.01827   0.48599   0.73788   0.00000  Uiso   1.00
O721   O     0.12815   0.57142   0.74686   0.00000  Uiso   1.00
O722   O     0.20518   0.42858   0.75314   0.00000  Uiso   1.00
O723   O     0.22829   0.58086   0.75502   0.00000  Uiso   1.00
O724   O     0.10504   0.41914   0.74497   0.00000  Uiso   1.00
O725   O     0.08851   0.49263   0.80854   0.00000  Uiso   1.00
O726   O     0.24482   0.50737   0.69145   0.00000  Uiso   1.00
O727   O     0.18866   0.50207   0.81671   0.00000  Uiso   1.00
O728   O     0.14468   0.49793   0.68329   0.00000  Uiso   1.00
C729   C     0.51363   0.59966   0.75268   0.00000  Uiso   1.00
C730   C     0.53865   0.50406   0.66690   0.00000  Uiso   1.00
C731   C     0.43803   0.49193   0.88082   0.00000  Uiso   1.00
C732   C     0.56196   0.51138   0.61955   0.00000  Uiso   1.00
C733   C     0.35633   0.46002   0.94505   0.00000  Uiso   1.00
C734   C     0.64016   0.55280   0.55728   0.00000  Uiso   1.00
C735   C     0.37481   0.46965   0.90038   0.00000  Uiso   1.00
C736   C     0.62320   0.53914   0.60111   0.00000  Uiso   1.00
C737   C     0.48162   0.50701   0.90664   0.00000  Uiso   1.00
C738   C     0.51896   0.49544   0.59344   0.00000  Uiso   1.00
C739   C     0.46407   0.49859   0.95192   0.00000  Uiso   1.00
C740   C     0.48638   0.40034   0.74730   0.00000  Uiso   1.00
C741   C     0.53391   0.51031   0.54955   0.00000  Uiso   1.00
C742   C     0.40061   0.47330   0.97069   0.00000  Uiso   1.00
C743   C     0.59597   0.53915   0.53159   0.00000  Uiso   1.00
C744   C     0.50817   0.51286   0.97864   0.00000  Uiso   1.00
C745   C     0.48892   0.49814   0.52337   0.00000  Uiso   1.00
C746   C     0.54698   0.34611   0.79646   0.00000  Uiso   1.00
C747   C     0.45306   0.65389   0.70351   0.00000  Uiso   1.00
C748   C     0.42502   0.47274   0.54058   0.00000  Uiso   1.00
C749   C     0.57051   0.54198   0.96231   0.00000  Uiso   1.00
C750   C     0.38196   0.46089   0.51472   0.00000  Uiso   1.00
C751   C     0.61324   0.55483   0.98836   0.00000  Uiso   1.00
C752   C     0.51554   0.65430   0.76057   0.00000  Uiso   1.00
C753   C     0.48448   0.34570   0.73941   0.00000  Uiso   1.00
C754   C     0.46137   0.49630   0.83314   0.00000  Uiso   1.00
Cu755  Cu    0.44071   0.49441   0.74516   0.00000  Uiso   1.00
Cu756  Cu    0.55929   0.50559   0.75483   0.00000  Uiso   1.00
H757   H     0.33348   0.44168   0.52941   0.00000  Uiso   1.00
H758   H     0.58782   0.55684   0.92966   0.00000  Uiso   1.00
H759   H     0.33479   0.53836   0.78414   0.00000  Uiso   1.00
H760   H     0.66521   0.46164   0.71586   0.00000  Uiso   1.00
H761   H     0.55690   0.64975   0.81563   0.00000  Uiso   1.00
H762   H     0.59309   0.37225   0.78207   0.00000  Uiso   1.00
H763   H     0.51525   0.36818   0.82001   0.00000  Uiso   1.00
H764   H     0.44313   0.35025   0.68434   0.00000  Uiso   1.00
H765   H     0.48480   0.63182   0.67996   0.00000  Uiso   1.00
H766   H     0.40695   0.62774   0.71789   0.00000  Uiso   1.00
H767   H     0.66041   0.57727   0.97444   0.00000  Uiso   1.00
H768   H     0.47361   0.47201   0.60874   0.00000  Uiso   1.00
H769   H     0.52979   0.52348   0.89011   0.00000  Uiso   1.00
H770   H     0.65705   0.55184   0.62085   0.00000  Uiso   1.00
H771   H     0.34038   0.45784   0.88096   0.00000  Uiso   1.00
H772   H     0.64088   0.44137   0.95949   0.00000  Uiso   1.00
H773   H     0.35427   0.57487   0.54359   0.00000  Uiso   1.00
H774   H     0.40577   0.46221   0.57431   0.00000  Uiso   1.00
N775   N     0.64839   0.51401   0.76212   0.00000  Uiso   1.00
N776   N     0.35161   0.48599   0.73788   0.00000  Uiso   1.00
O777   O     0.46148   0.57142   0.74686   0.00000  Uiso   1.00
O778   O     0.53852   0.42858   0.75314   0.00000  Uiso   1.00
O779   O     0.56163   0.58086   0.75502   0.00000  Uiso   1.00
O780   O     0.43837   0.41914   0.74497   0.00000  Uiso   1.00
O781   O     0.42185   0.49263   0.80854   0.00000  Uiso   1.00
O782   O     0.57815   0.50737   0.69145   0.00000  Uiso   1.00
O783   O     0.52199   0.50207   0.81671   0.00000  Uiso   1.00
O784   O     0.47801   0.49793   0.68329   0.00000  Uiso   1.00
C785   C     0.84696   0.59966   0.75268   0.00000  Uiso   1.00
C786   C     0.87198   0.50406   0.66690   0.00000  Uiso   1.00
C787   C     0.77136   0.49193   0.88082   0.00000  Uiso   1.00
C788   C     0.89529   0.51138   0.61955   0.00000  Uiso   1.00
C789   C     0.68966   0.46002   0.94505   0.00000  Uiso   1.00
C790   C     0.97350   0.55280   0.55728   0.00000  Uiso   1.00
C791   C     0.70814   0.46965   0.90038   0.00000  Uiso   1.00
C792   C     0.95653   0.53914   0.60111   0.00000  Uiso   1.00
C793   C     0.81495   0.50701   0.90664   0.00000  Uiso   1.00
C794   C     0.85230   0.49544   0.59344   0.00000  Uiso   1.00
C795   C     0.79740   0.49859   0.95192   0.00000  Uiso   1.00
C796   C     0.81971   0.40034   0.74730   0.00000  Uiso   1.00
C797   C     0.86725   0.51031   0.54955   0.00000  Uiso   1.00
C798   C     0.73394   0.47330   0.97069   0.00000  Uiso   1.00
C799   C     0.92931   0.53915   0.53159   0.00000  Uiso   1.00
C800   C     0.84150   0.51286   0.97864   0.00000  Uiso   1.00
C801   C     0.82225   0.49814   0.52337   0.00000  Uiso   1.00
C802   C     0.88031   0.34611   0.79646   0.00000  Uiso   1.00
C803   C     0.78639   0.65389   0.70351   0.00000  Uiso   1.00
C804   C     0.75836   0.47274   0.54058   0.00000  Uiso   1.00
C805   C     0.90384   0.54198   0.96231   0.00000  Uiso   1.00
C806   C     0.71530   0.46089   0.51472   0.00000  Uiso   1.00
C807   C     0.94657   0.55483   0.98836   0.00000  Uiso   1.00
C808   C     0.84887   0.65430   0.76057   0.00000  Uiso   1.00
C809   C     0.81781   0.34570   0.73941   0.00000  Uiso   1.00
C810   C     0.79471   0.49630   0.83314   0.00000  Uiso   1.00
Cu811  Cu    0.77404   0.49441   0.74516   0.00000  Uiso   1.00
Cu812  Cu    0.89263   0.50559   0.75483   0.00000  Uiso   1.00
H813   H     0.66681   0.44168   0.52941   0.00000  Uiso   1.00
H814   H     0.92116   0.55684   0.92966   0.00000  Uiso   1.00
H815   H     0.66812   0.53836   0.78414   0.00000  Uiso   1.00
H816   H     0.99855   0.46164   0.71586   0.00000  Uiso   1.00
H817   H     0.89024   0.64975   0.81563   0.00000  Uiso   1.00
H818   H     0.92642   0.37225   0.78207   0.00000  Uiso   1.00
H819   H     0.84858   0.36818   0.82001   0.00000  Uiso   1.00
H820   H     0.77647   0.35025   0.68434   0.00000  Uiso   1.00
H821   H     0.81813   0.63182   0.67996   0.00000  Uiso   1.00
H822   H     0.74028   0.62774   0.71789   0.00000  Uiso   1.00
H823   H     0.99374   0.57727   0.97444   0.00000  Uiso   1.00
H824   H     0.80694   0.47201   0.60874   0.00000  Uiso   1.00
H825   H     0.86313   0.52348   0.89011   0.00000  Uiso   1.00
H826   H     0.99038   0.55184   0.62085   0.00000  Uiso   1.00
H827   H     0.67371   0.45784   0.88096   0.00000  Uiso   1.00
H828   H     0.97422   0.44137   0.95949   0.00000  Uiso   1.00
H829   H     0.68760   0.57487   0.54359   0.00000  Uiso   1.00
H830   H     0.73910   0.46221   0.57431   0.00000  Uiso   1.00
N831   N     0.98173   0.51401   0.76212   0.00000  Uiso   1.00
N832   N     0.68494   0.48599   0.73788   0.00000  Uiso   1.00
O833   O     0.79482   0.57142   0.74686   0.00000  Uiso   1.00
O834   O     0.87185   0.42858   0.75314   0.00000  Uiso   1.00
O835   O     0.89496   0.58086   0.75502   0.00000  Uiso   1.00
O836   O     0.77171   0.41914   0.74497   0.00000  Uiso   1.00
O837   O     0.75518   0.49263   0.80854   0.00000  Uiso   1.00
O838   O     0.91149   0.50737   0.69145   0.00000  Uiso   1.00
O839   O     0.85532   0.50207   0.81671   0.00000  Uiso   1.00
O840   O     0.81134   0.49793   0.68329   0.00000  Uiso   1.00
C841   C     0.18030   0.93299   0.75268   0.00000  Uiso   1.00
C842   C     0.20532   0.83740   0.66690   0.00000  Uiso   1.00
C843   C     0.10469   0.82526   0.88082   0.00000  Uiso   1.00
C844   C     0.22863   0.84472   0.61955   0.00000  Uiso   1.00
C845   C     0.02299   0.79335   0.94505   0.00000  Uiso   1.00
C846   C     0.30683   0.88613   0.55728   0.00000  Uiso   1.00
C847   C     0.04148   0.80298   0.90038   0.00000  Uiso   1.00
C848   C     0.28986   0.87247   0.60111   0.00000  Uiso   1.00
C849   C     0.14829   0.84034   0.90664   0.00000  Uiso   1.00
C850   C     0.18563   0.82877   0.59344   0.00000  Uiso   1.00
C851   C     0.13074   0.83192   0.95192   0.00000  Uiso   1.00
C852   C     0.15304   0.73368   0.74730   0.00000  Uiso   1.00
C853   C     0.20058   0.84364   0.54955   0.00000  Uiso   1.00
C854   C     0.06727   0.80664   0.97069   0.00000  Uiso   1.00
C855   C     0.26264   0.87249   0.53159   0.00000  Uiso   1.00
C856   C     0.17483   0.84619   0.97864   0.00000  Uiso   1.00
C857   C     0.15558   0.83147   0.52337   0.00000  Uiso   1.00
C858   C     0.21365   0.67944   0.79646   0.00000  Uiso   1.00
C859   C     0.11972   0.98722   0.70351   0.00000  Uiso   1.00
C860   C     0.09169   0.80608   0.54058   0.00000  Uiso   1.00
C861   C     0.23718   0.87532   0.96231   0.00000  Uiso   1.00
C862   C     0.04863   0.79423   0.51472   0.00000  Uiso   1.00
C863   C     0.27991   0.88816   0.98836   0.00000  Uiso   1.00
C864   C     0.18221   0.98763   0.76057   0.00000  Uiso   1.00
C865   C     0.15114   0.67903   0.73941   0.00000  Uiso   1.00
C866   C     0.12804   0.82963   0.83314   0.00000  Uiso   1.00
Cu867  Cu    0.10737   0.82775   0.74516   0.00000  Uiso   1.00
Cu868  Cu    0.22596   0.83892   0.75483   0.00000  Uiso   1.00
H869   H     0.00015   0.77501   0.52941   0.00000  Uiso   1.00
H870   H     0.25449   0.89018   0.92966   0.00000  Uiso   1.00
H871   H     0.00145   0.87169   0.78414   0.00000  Uiso   1.00
H872   H     0.33188   0.79498   0.71586   0.00000  Uiso   1.00
H873   H     0.22357   0.98308   0.81563   0.00000  Uiso   1.00
H874   H     0.25976   0.70559   0.78207   0.00000  Uiso   1.00
H875   H     0.18192   0.70152   0.82001   0.00000  Uiso   1.00
H876   H     0.10980   0.68359   0.68434   0.00000  Uiso   1.00
H877   H     0.15146   0.96515   0.67996   0.00000  Uiso   1.00
H878   H     0.07361   0.96107   0.71789   0.00000  Uiso   1.00
H879   H     0.32707   0.91060   0.97444   0.00000  Uiso   1.00
H880   H     0.14028   0.80535   0.60874   0.00000  Uiso   1.00
H881   H     0.19646   0.85682   0.89011   0.00000  Uiso   1.00
H882   H     0.32372   0.88517   0.62085   0.00000  Uiso   1.00
H883   H     0.00705   0.79117   0.88096   0.00000  Uiso   1.00
H884   H     0.30755   0.77470   0.95949   0.00000  Uiso   1.00
H885   H     0.02093   0.90820   0.54359   0.00000  Uiso   1.00
H886   H     0.07243   0.79554   0.57431   0.00000  Uiso   1.00
N887   N     0.31506   0.84735   0.76212   0.00000  Uiso   1.00
N888   N     0.01827   0.81932   0.73788   0.00000  Uiso   1.00
O889   O     0.12815   0.90476   0.74686   0.00000  Uiso   1.00
O890   O     0.20518   0.76191   0.75314   0.00000  Uiso   1.00
O891   O     0.22829   0.91420   0.75502   0.00000  Uiso   1.00
O892   O     0.10504   0.75247   0.74497   0.00000  Uiso   1.00
O893   O     0.08851   0.82597   0.80854   0.00000  Uiso   1.00
O894   O     0.24482   0.84070   0.69145   0.00000  Uiso   1.00
O895   O     0.18866   0.83540   0.81671   0.00000  Uiso   1.00
O896   O     0.14468   0.83126   0.68329   0.00000  Uiso   1.00
C897   C     0.51363   0.93299   0.75268   0.00000  Uiso   1.00
C898   C     0.53865   0.83740   0.66690   0.00000  Uiso   1.00
C899   C     0.43803   0.82526   0.88082   0.00000  Uiso   1.00
C900   C     0.56196   0.84472   0.61955   0.00000  Uiso   1.00
C901   C     0.35633   0.79335   0.94505   0.00000  Uiso   1.00
C902   C     0.64016   0.88613   0.55728   0.00000  Uiso   1.00
C903   C     0.37481   0.80298   0.90038   0.00000  Uiso   1.00
C904   C     0.62320   0.87247   0.60111   0.00000  Uiso   1.00
C905   C     0.48162   0.84034   0.90664   0.00000  Uiso   1.00
C906   C     0.51896   0.82877   0.59344   0.00000  Uiso   1.00
C907   C     0.46407   0.83192   0.95192   0.00000  Uiso   1.00
C908   C     0.48638   0.73368   0.74730   0.00000  Uiso   1.00
C909   C     0.53391   0.84364   0.54955   0.00000  Uiso   1.00
C910   C     0.40061   0.80664   0.97069   0.00000  Uiso   1.00
C911   C     0.59597   0.87249   0.53159   0.00000  Uiso   1.00
C912   C     0.50817   0.84619   0.97864   0.00000  Uiso   1.00
C913   C     0.48892   0.83147   0.52337   0.00000  Uiso   1.00
C914   C     0.54698   0.67944   0.79646   0.00000  Uiso   1.00
C915   C     0.45306   0.98722   0.70351   0.00000  Uiso   1.00
C916   C     0.42502   0.80608   0.54058   0.00000  Uiso   1.00
C917   C     0.57051   0.87532   0.96231   0.00000  Uiso   1.00
C918   C     0.38196   0.79423   0.51472   0.00000  Uiso   1.00
C919   C     0.61324   0.88816   0.98836   0.00000  Uiso   1.00
C920   C     0.51554   0.98763   0.76057   0.00000  Uiso   1.00
C921   C     0.48448   0.67903   0.73941   0.00000  Uiso   1.00
C922   C     0.46137   0.82963   0.83314   0.00000  Uiso   1.00
Cu923  Cu    0.44071   0.82775   0.74516   0.00000  Uiso   1.00
Cu924  Cu    0.55929   0.83892   0.75483   0.00000  Uiso   1.00
H925   H     0.33348   0.77501   0.52941   0.00000  Uiso   1.00
H926   H     0.58782   0.89018   0.92966   0.00000  Uiso   1.00
H927   H     0.33479   0.87169   0.78414   0.00000  Uiso   1.00
H928   H     0.66521   0.79498   0.71586   0.00000  Uiso   1.00
H929   H     0.55690   0.98308   0.81563   0.00000  Uiso   1.00
H930   H     0.59309   0.70559   0.78207   0.00000  Uiso   1.00
H931   H     0.51525   0.70152   0.82001   0.00000  Uiso   1.00
H932   H     0.44313   0.68359   0.68434   0.00000  Uiso   1.00
H933   H     0.48480   0.96515   0.67996   0.00000  Uiso   1.00
H934   H     0.40695   0.96107   0.71789   0.00000  Uiso   1.00
H935   H     0.66041   0.91060   0.97444   0.00000  Uiso   1.00
H936   H     0.47361   0.80535   0.60874   0.00000  Uiso   1.00
H937   H     0.52979   0.85682   0.89011   0.00000  Uiso   1.00
H938   H     0.65705   0.88517   0.62085   0.00000  Uiso   1.00
H939   H     0.34038   0.79117   0.88096   0.00000  Uiso   1.00
H940   H     0.64088   0.77470   0.95949   0.00000  Uiso   1.00
H941   H     0.35427   0.90820   0.54359   0.00000  Uiso   1.00
H942   H     0.40577   0.79554   0.57431   0.00000  Uiso   1.00
N943   N     0.64839   0.84735   0.76212   0.00000  Uiso   1.00
N944   N     0.35161   0.81932   0.73788   0.00000  Uiso   1.00
O945   O     0.46148   0.90476   0.74686   0.00000  Uiso   1.00
O946   O     0.53852   0.76191   0.75314   0.00000  Uiso   1.00
O947   O     0.56163   0.91420   0.75502   0.00000  Uiso   1.00
O948   O     0.43837   0.75247   0.74497   0.00000  Uiso   1.00
O949   O     0.42185   0.82597   0.80854   0.00000  Uiso   1.00
O950   O     0.57815   0.84070   0.69145   0.00000  Uiso   1.00
O951   O     0.52199   0.83540   0.81671   0.00000  Uiso   1.00
O952   O     0.47801   0.83126   0.68329   0.00000  Uiso   1.00
C953   C     0.84696   0.93299   0.75268   0.00000  Uiso   1.00
C954   C     0.87198   0.83740   0.66690   0.00000  Uiso   1.00
C955   C     0.77136   0.82526   0.88082   0.00000  Uiso   1.00
C956   C     0.89529   0.84472   0.61955   0.00000  Uiso   1.00
C957   C     0.68966   0.79335   0.94505   0.00000  Uiso   1.00
C958   C     0.97350   0.88613   0.55728   0.00000  Uiso   1.00
C959   C     0.70814   0.80298   0.90038   0.00000  Uiso   1.00
C960   C     0.95653   0.87247   0.60111   0.00000  Uiso   1.00
C961   C     0.81495   0.84034   0.90664   0.00000  Uiso   1.00
C962   C     0.85230   0.82877   0.59344   0.00000  Uiso   1.00
C963   C     0.79740   0.83192   0.95192   0.00000  Uiso   1.00
C964   C     0.81971   0.73368   0.74730   0.00000  Uiso   1.00
C965   C     0.86725   0.84364   0.54955   0.00000  Uiso   1.00
C966   C     0.73394   0.80664   0.97069   0.00000  Uiso   1.00
C967   C     0.92931   0.87249   0.53159   0.00000  Uiso   1.00
C968   C     0.84150   0.84619   0.97864   0.00000  Uiso   1.00
C969   C     0.82225   0.83147   0.52337   0.00000  Uiso   1.00
C970   C     0.88031   0.67944   0.79646   0.00000  Uiso   1.00
C971   C     0.78639   0.98722   0.70351   0.00000  Uiso   1.00
C972   C     0.75836   0.80608   0.54058   0.00000  Uiso   1.00
C973   C     0.90384   0.87532   0.96231   0.00000  Uiso   1.00
C974   C     0.71530   0.79423   0.51472   0.00000  Uiso   1.00
C975   C     0.94657   0.88816   0.98836   0.00000  Uiso   1.00
C976   C     0.84887   0.98763   0.76057   0.00000  Uiso   1.00
C977   C     0.81781   0.67903   0.73941   0.00000  Uiso   1.00
C978   C     0.79471   0.82963   0.83314   0.00000  Uiso   1.00
Cu979  Cu    0.77404   0.82775   0.74516   0.00000  Uiso   1.00
Cu980  Cu    0.89263   0.83892   0.75483   0.00000  Uiso   1.00
H981   H     0.66681   0.77501   0.52941   0.00000  Uiso   1.00
H982   H     0.92116   0.89018   0.92966   0.00000  Uiso   1.00
H983   H     0.66812   0.87169   0.78414   0.00000  Uiso   1.00
H984   H     0.99855   0.79498   0.71586   0.00000  Uiso   1.00
H985   H     0.89024   0.98308   0.81563   0.00000  Uiso   1.00
H986   H     0.92642   0.70559   0.78207   0.00000  Uiso   1.00
H987   H     0.84858   0.70152   0.82001   0.00000  Uiso   1.00
H988   H     0.77647   0.68359   0.68434   0.00000  Uiso   1.00
H989   H     0.81813   0.96515   0.67996   0.00000  Uiso   1.00
H990   H     0.74028   0.96107   0.71789   0.00000  Uiso   1.00
H991   H     0.99374   0.91060   0.97444   0.00000  Uiso   1.00
H992   H     0.80694   0.80535   0.60874   0.00000  Uiso   1.00
H993   H     0.86313   0.85682   0.89011   0.00000  Uiso   1.00
H994   H     0.99038   0.88517   0.62085   0.00000  Uiso   1.00
H995   H     0.67371   0.79117   0.88096   0.00000  Uiso   1.00
H996   H     0.97422   0.77470   0.95949   0.00000  Uiso   1.00
H997   H     0.68760   0.90820   0.54359   0.00000  Uiso   1.00
H998   H     0.73910   0.79554   0.57431   0.00000  Uiso   1.00
N999   N     0.98173   0.84735   0.76212   0.00000  Uiso   1.00
N1000  N     0.68494   0.81932   0.73788   0.00000  Uiso   1.00
O1001  O     0.79482   0.90476   0.74686   0.00000  Uiso   1.00
O1002  O     0.87185   0.76191   0.75314   0.00000  Uiso   1.00
O1003  O     0.89496   0.91420   0.75502   0.00000  Uiso   1.00
O1004  O     0.77171   0.75247   0.74497   0.00000  Uiso   1.00
O1005  O     0.75518   0.82597   0.80854   0.00000  Uiso   1.00
O1006  O     0.91149   0.84070   0.69145   0.00000  Uiso   1.00
O1007  O     0.85532   0.83540   0.81671   0.00000  Uiso   1.00
O1008  O     0.81134   0.83126   0.68329   0.00000  Uiso   1.00
loop_
_geom_bond_atom_site_label_1
_geom_bond_atom_site_label_2
_geom_bond_distance
_geom_bond_site_symmetry_2
_ccdc_geom_bond_type
C1     O51     1.290   .     A
C1     O49     1.284   .     A
C1     C24     1.431   .     S
C2     C4      1.467   .     S
C2     O54     1.301   .     A
C2     O56     1.294   .     A
C3     C9      1.401   .     A
C3     C7      1.398   .     A
C3     C26     1.469   .     S
C4     C8      1.398   .     A
C4     C10     1.399   .     A
C5     C14     1.405   .     A
C5     C7      1.393   .     A
C5     H156    1.084   1_455 S
C6     C15     1.405   .     A
C6     C8      1.393   .     A
C6     H101    1.084   .     S
C7     H43     1.083   .     S
C8     H42     1.083   .     S
C9     H41     1.075   .     S
C9     C11     1.406   .     A
C10    H40     1.075   .     S
C10    C13     1.406   .     A
C11    C14     1.418   .     A
C11    C16     1.429   .     A
C12    C25     1.431   .     S
C12    O52     1.290   .     A
C12    O50     1.284   .     A
C13    C17     1.429   .     A
C13    C15     1.418   .     A
C14    C526    1.389   .     S
C15    C527    1.390   1_554 S
C16    C21     1.417   .     A
C16    C521    1.426   .     S
C17    C20     1.417   .     A
C17    C520    1.426   1_554 S
C18    H34     1.110   .     S
C18    H35     1.111   .     S
C18    C360    1.522   1_545 S
C18    H369    1.111   1_545 S
C19    H38     1.110   .     S
C19    H37     1.111   .     S
C19    C193    1.522   .     S
C19    H204    1.111   .     S
C20    C22     1.387   .     A
C20    H46     1.075   .     S
C21    H30     1.076   .     S
C21    C23     1.387   .     A
C22    H29     1.085   .     S
C22    C518    1.389   1_554 S
C23    H39     1.084   .     S
C23    C519    1.390   .     S
C24    C186    1.522   .     S
C24    C193    1.357   .     S
C25    C360    1.357   1_545 S
C25    C355    1.522   1_545 S
C26    O55     1.295   .     A
C26    O53     1.302   .     A
Cu27   N48     2.018   .     S
Cu27   O53     1.943   .     S
Cu27   O52     1.964   .     S
Cu27   Cu28    2.686   .     S
Cu27   O56     1.921   .     S
Cu27   O49     1.974   .     S
Cu28   N47     2.018   .     S
Cu28   O54     1.943   .     S
Cu28   O51     1.964   .     S
Cu28   O50     1.974   .     S
Cu28   O55     1.921   .     S
H31    N159    1.029   1_455 S
H32    N104    1.029   .     S
H33    C186    1.111   .     S
H36    C355    1.111   1_545 S
H44    C61     1.084   .     S
H45    C118    1.084   1_455 S
N47    H87     1.029   .     S
N47    N104    1.284   .     S
N48    H144    1.029   1_455 S
N48    N159    1.284   1_455 S
C57    O107    1.290   .     A
C57    O105    1.284   .     A
C57    C80     1.431   .     S
C58    C60     1.467   .     S
C58    O110    1.301   .     A
C58    O112    1.294   .     A
C59    C65     1.401   .     A
C59    C63     1.398   .     A
C59    C82     1.469   .     S
C60    C64     1.398   .     A
C60    C66     1.399   .     A
C61    C70     1.405   .     A
C61    C63     1.393   .     A
C62    C71     1.405   .     A
C62    C64     1.393   .     A
C62    H157    1.084   .     S
C63    H99     1.083   .     S
C64    H98     1.083   .     S
C65    H97     1.075   .     S
C65    C67     1.406   .     A
C66    H96     1.075   .     S
C66    C69     1.406   .     A
C67    C70     1.418   .     A
C67    C72     1.429   .     A
C68    C81     1.431   .     S
C68    O108    1.290   .     A
C68    O106    1.284   .     A
C69    C73     1.429   .     A
C69    C71     1.418   .     A
C70    C582    1.389   .     S
C71    C583    1.390   1_554 S
C72    C77     1.417   .     A
C72    C577    1.426   .     S
C73    C76     1.417   .     A
C73    C576    1.426   1_554 S
C74    H90     1.110   .     S
C74    H91     1.111   .     S
C74    C416    1.522   1_545 S
C74    H425    1.111   1_545 S
C75    H94     1.110   .     S
C75    H93     1.111   .     S
C75    C249    1.522   .     S
C75    H260    1.111   .     S
C76    C78     1.387   .     A
C76    H102    1.075   .     S
C77    H86     1.076   .     S
C77    C79     1.387   .     A
C78    H85     1.085   .     S
C78    C574    1.389   1_554 S
C79    H95     1.084   .     S
C79    C575    1.390   .     S
C80    C242    1.522   .     S
C80    C249    1.357   .     S
C81    C416    1.357   1_545 S
C81    C411    1.522   1_545 S
C82    O111    1.295   .     A
C82    O109    1.302   .     A
Cu83   N104    2.018   .     S
Cu83   O109    1.943   .     S
Cu83   O108    1.964   .     S
Cu83   Cu84    2.686   .     S
Cu83   O112    1.921   .     S
Cu83   O105    1.974   .     S
Cu84   N103    2.018   .     S
Cu84   O110    1.943   .     S
Cu84   O107    1.964   .     S
Cu84   O106    1.974   .     S
Cu84   O111    1.921   .     S
H88    N160    1.029   .     S
H89    C242    1.111   .     S
H92    C411    1.111   1_545 S
H100   C117    1.084   .     S
N103   H143    1.029   .     S
N103   N160    1.284   .     S
C113   O163    1.290   .     A
C113   O161    1.284   .     A
C113   C136    1.431   .     S
C114   C116    1.467   .     S
C114   O166    1.301   .     A
C114   O168    1.294   .     A
C115   C121    1.401   .     A
C115   C119    1.398   .     A
C115   C138    1.469   .     S
C116   C120    1.398   .     A
C116   C122    1.399   .     A
C117   C126    1.405   .     A
C117   C119    1.393   .     A
C118   C127    1.405   .     A
C118   C120    1.393   .     A
C118   H45     1.084   1_655 S
C119   H155    1.083   .     S
C120   H154    1.083   .     S
C121   H153    1.075   .     S
C121   C123    1.406   .     A
C122   H152    1.075   .     S
C122   C125    1.406   .     A
C123   C126    1.418   .     A
C123   C128    1.429   .     A
C124   C137    1.431   .     S
C124   O164    1.290   .     A
C124   O162    1.284   .     A
C125   C129    1.429   .     A
C125   C127    1.418   .     A
C126   C638    1.389   .     S
C127   C639    1.390   1_554 S
C128   C133    1.417   .     A
C128   C633    1.426   .     S
C129   C132    1.417   .     A
C129   C632    1.426   1_554 S
C130   H146    1.110   .     S
C130   H147    1.111   .     S
C130   C472    1.522   1_545 S
C130   H481    1.111   1_545 S
C131   H150    1.110   .     S
C131   H149    1.111   .     S
C131   C305    1.522   .     S
C131   H316    1.111   .     S
C132   C134    1.387   .     A
C132   H158    1.075   .     S
C133   H142    1.076   .     S
C133   C135    1.387   .     A
C134   H141    1.085   .     S
C134   C630    1.389   1_554 S
C135   H151    1.084   .     S
C135   C631    1.390   .     S
C136   C298    1.522   .     S
C136   C305    1.357   .     S
C137   C472    1.357   1_545 S
C137   C467    1.522   1_545 S
C138   O167    1.295   .     A
C138   O165    1.302   .     A
Cu139  N160    2.018   .     S
Cu139  O165    1.943   .     S
Cu139  O164    1.964   .     S
Cu139  Cu140   2.686   .     S
Cu139  O168    1.921   .     S
Cu139  O161    1.974   .     S
Cu140  N159    2.018   .     S
Cu140  O166    1.943   .     S
Cu140  O163    1.964   .     S
Cu140  O162    1.974   .     S
Cu140  O167    1.921   .     S
H144   N48     1.029   1_655 S
H145   C298    1.111   .     S
H148   C467    1.111   1_545 S
H156   C5      1.084   1_655 S
N159   H31     1.029   1_655 S
N159   N48     1.284   1_655 S
C169   O219    1.290   .     A
C169   O217    1.284   .     A
C169   C192    1.431   .     S
C170   C172    1.467   .     S
C170   O222    1.301   .     A
C170   O224    1.294   .     A
C171   C177    1.401   .     A
C171   C175    1.398   .     A
C171   C194    1.469   .     S
C172   C176    1.398   .     A
C172   C178    1.399   .     A
C173   C182    1.405   .     A
C173   C175    1.393   .     A
C173   H324    1.084   1_455 S
C174   C183    1.405   .     A
C174   C176    1.393   .     A
C174   H269    1.084   .     S
C175   H211    1.083   .     S
C176   H210    1.083   .     S
C177   H209    1.075   .     S
C177   C179    1.406   .     A
C178   H208    1.075   .     S
C178   C181    1.406   .     A
C179   C182    1.418   .     A
C179   C184    1.429   .     A
C180   C193    1.431   .     S
C180   O220    1.290   .     A
C180   O218    1.284   .     A
C181   C185    1.429   .     A
C181   C183    1.418   .     A
C182   C694    1.389   .     S
C183   C695    1.390   1_554 S
C184   C189    1.417   .     A
C184   C689    1.426   .     S
C185   C188    1.417   .     A
C185   C688    1.426   1_554 S
C186   H202    1.110   .     S
C186   H203    1.111   .     S
C187   H206    1.110   .     S
C187   H205    1.111   .     S
C187   C361    1.522   .     S
C187   H372    1.111   .     S
C188   C190    1.387   .     A
C188   H214    1.075   .     S
C189   H198    1.076   .     S
C189   C191    1.387   .     A
C190   H197    1.085   .     S
C190   C686    1.389   1_554 S
C191   H207    1.084   .     S
C191   C687    1.390   .     S
C192   C354    1.522   .     S
C192   C361    1.357   .     S
C194   O223    1.295   .     A
C194   O221    1.302   .     A
Cu195  N216    2.018   .     S
Cu195  O221    1.943   .     S
Cu195  O220    1.964   .     S
Cu195  Cu196   2.686   .     S
Cu195  O224    1.921   .     S
Cu195  O217    1.974   .     S
Cu196  N215    2.018   .     S
Cu196  O222    1.943   .     S
Cu196  O219    1.964   .     S
Cu196  O218    1.974   .     S
Cu196  O223    1.921   .     S
H199   N327    1.029   1_455 S
H200   N272    1.029   .     S
H201   C354    1.111   .     S
H212   C229    1.084   .     S
H213   C286    1.084   1_455 S
N215   H255    1.029   .     S
N215   N272    1.284   .     S
N216   H312    1.029   1_455 S
N216   N327    1.284   1_455 S
C225   O275    1.290   .     A
C225   O273    1.284   .     A
C225   C248    1.431   .     S
C226   C228    1.467   .     S
C226   O278    1.301   .     A
C226   O280    1.294   .     A
C227   C233    1.401   .     A
C227   C231    1.398   .     A
C227   C250    1.469   .     S
C228   C232    1.398   .     A
C228   C234    1.399   .     A
C229   C238    1.405   .     A
C229   C231    1.393   .     A
C230   C239    1.405   .     A
C230   C232    1.393   .     A
C230   H325    1.084   .     S
C231   H267    1.083   .     S
C232   H266    1.083   .     S
C233   H265    1.075   .     S
C233   C235    1.406   .     A
C234   H264    1.075   .     S
C234   C237    1.406   .     A
C235   C238    1.418   .     A
C235   C240    1.429   .     A
C236   C249    1.431   .     S
C236   O276    1.290   .     A
C236   O274    1.284   .     A
C237   C241    1.429   .     A
C237   C239    1.418   .     A
C238   C750    1.389   .     S
C239   C751    1.390   1_554 S
C240   C245    1.417   .     A
C240   C745    1.426   .     S
C241   C244    1.417   .     A
C241   C744    1.426   1_554 S
C242   H258    1.110   .     S
C242   H259    1.111   .     S
C243   H262    1.110   .     S
C243   H261    1.111   .     S
C243   C417    1.522   .     S
C243   H428    1.111   .     S
C244   C246    1.387   .     A
C244   H270    1.075   .     S
C245   H254    1.076   .     S
C245   C247    1.387   .     A
C246   H253    1.085   .     S
C246   C742    1.389   1_554 S
C247   H263    1.084   .     S
C247   C743    1.390   .     S
C248   C410    1.522   .     S
C248   C417    1.357   .     S
C250   O279    1.295   .     A
C250   O277    1.302   .     A
Cu251  N272    2.018   .     S
Cu251  O277    1.943   .     S
Cu251  O276    1.964   .     S
Cu251  Cu252   2.686   .     S
Cu251  O280    1.921   .     S
Cu251  O273    1.974   .     S
Cu252  N271    2.018   .     S
Cu252  O278    1.943   .     S
Cu252  O275    1.964   .     S
Cu252  O274    1.974   .     S
Cu252  O279    1.921   .     S
H256   N328    1.029   .     S
H257   C410    1.111   .     S
H268   C285    1.084   .     S
N271   H311    1.029   .     S
N271   N328    1.284   .     S
C281   O331    1.290   .     A
C281   O329    1.284   .     A
C281   C304    1.431   .     S
C282   C284    1.467   .     S
C282   O334    1.301   .     A
C282   O336    1.294   .     A
C283   C289    1.401   .     A
C283   C287    1.398   .     A
C283   C306    1.469   .     S
C284   C288    1.398   .     A
C284   C290    1.399   .     A
C285   C294    1.405   .     A
C285   C287    1.393   .     A
C286   C295    1.405   .     A
C286   C288    1.393   .     A
C286   H213    1.084   1_655 S
C287   H323    1.083   .     S
C288   H322    1.083   .     S
C289   H321    1.075   .     S
C289   C291    1.406   .     A
C290   H320    1.075   .     S
C290   C293    1.406   .     A
C291   C294    1.418   .     A
C291   C296    1.429   .     A
C292   C305    1.431   .     S
C292   O332    1.290   .     A
C292   O330    1.284   .     A
C293   C297    1.429   .     A
C293   C295    1.418   .     A
C294   C806    1.389   .     S
C295   C807    1.390   1_554 S
C296   C301    1.417   .     A
C296   C801    1.426   .     S
C297   C300    1.417   .     A
C297   C800    1.426   1_554 S
C298   H314    1.110   .     S
C298   H315    1.111   .     S
C299   H318    1.110   .     S
C299   H317    1.111   .     S
C299   C473    1.522   .     S
C299   H484    1.111   .     S
C300   C302    1.387   .     A
C300   H326    1.075   .     S
C301   H310    1.076   .     S
C301   C303    1.387   .     A
C302   H309    1.085   .     S
C302   C798    1.389   1_554 S
C303   H319    1.084   .     S
C303   C799    1.390   .     S
C304   C466    1.522   .     S
C304   C473    1.357   .     S
C306   O335    1.295   .     A
C306   O333    1.302   .     A
Cu307  N328    2.018   .     S
Cu307  O333    1.943   .     S
Cu307  O332    1.964   .     S
Cu307  Cu308   2.686   .     S
Cu307  O336    1.921   .     S
Cu307  O329    1.974   .     S
Cu308  N327    2.018   .     S
Cu308  O334    1.943   .     S
Cu308  O331    1.964   .     S
Cu308  O330    1.974   .     S
Cu308  O335    1.921   .     S
H312   N216    1.029   1_655 S
H313   C466    1.111   .     S
H324   C173    1.084   1_655 S
N327   H199    1.029   1_655 S
N327   N216    1.284   1_655 S
C337   O387    1.290   .     A
C337   O385    1.284   .     A
C337   C360    1.431   .     S
C338   C340    1.467   .     S
C338   O390    1.301   .     A
C338   O392    1.294   .     A
C339   C345    1.401   .     A
C339   C343    1.398   .     A
C339   C362    1.469   .     S
C340   C344    1.398   .     A
C340   C346    1.399   .     A
C341   C350    1.405   .     A
C341   C343    1.393   .     A
C341   H492    1.084   1_455 S
C342   C351    1.405   .     A
C342   C344    1.393   .     A
C342   H437    1.084   .     S
C343   H379    1.083   .     S
C344   H378    1.083   .     S
C345   H377    1.075   .     S
C345   C347    1.406   .     A
C346   H376    1.075   .     S
C346   C349    1.406   .     A
C347   C350    1.418   .     A
C347   C352    1.429   .     A
C348   C361    1.431   .     S
C348   O388    1.290   .     A
C348   O386    1.284   .     A
C349   C353    1.429   .     A
C349   C351    1.418   .     A
C350   C862    1.389   .     S
C351   C863    1.390   1_554 S
C352   C357    1.417   .     A
C352   C857    1.426   .     S
C353   C356    1.417   .     A
C353   C856    1.426   1_554 S
C354   H370    1.110   .     S
C354   H371    1.111   .     S
C355   H374    1.110   .     S
C355   H373    1.111   .     S
C355   C25     1.522   1_565 S
C355   H36     1.111   1_565 S
C356   C358    1.387   .     A
C356   H382    1.075   .     S
C357   H366    1.076   .     S
C357   C359    1.387   .     A
C358   H365    1.085   .     S
C358   C854    1.389   1_554 S
C359   H375    1.084   .     S
C359   C855    1.390   .     S
C360   C18     1.522   1_565 S
C360   C25     1.357   1_565 S
C362   O391    1.295   .     A
C362   O389    1.302   .     A
Cu363  N384    2.018   .     S
Cu363  O389    1.943   .     S
Cu363  O388    1.964   .     S
Cu363  Cu364   2.686   .     S
Cu363  O392    1.921   .     S
Cu363  O385    1.974   .     S
Cu364  N383    2.018   .     S
Cu364  O390    1.943   .     S
Cu364  O387    1.964   .     S
Cu364  O386    1.974   .     S
Cu364  O391    1.921   .     S
H367   N495    1.029   1_455 S
H368   N440    1.029   .     S
H369   C18     1.111   1_565 S
H380   C397    1.084   .     S
H381   C454    1.084   1_455 S
N383   H423    1.029   .     S
N383   N440    1.284   .     S
N384   H480    1.029   1_455 S
N384   N495    1.284   1_455 S
C393   O443    1.290   .     A
C393   O441    1.284   .     A
C393   C416    1.431   .     S
C394   C396    1.467   .     S
C394   O446    1.301   .     A
C394   O448    1.294   .     A
C395   C401    1.401   .     A
C395   C399    1.398   .     A
C395   C418    1.469   .     S
C396   C400    1.398   .     A
C396   C402    1.399   .     A
C397   C406    1.405   .     A
C397   C399    1.393   .     A
C398   C407    1.405   .     A
C398   C400    1.393   .     A
C398   H493    1.084   .     S
C399   H435    1.083   .     S
C400   H434    1.083   .     S
C401   H433    1.075   .     S
C401   C403    1.406   .     A
C402   H432    1.075   .     S
C402   C405    1.406   .     A
C403   C406    1.418   .     A
C403   C408    1.429   .     A
C404   C417    1.431   .     S
C404   O444    1.290   .     A
C404   O442    1.284   .     A
C405   C409    1.429   .     A
C405   C407    1.418   .     A
C406   C918    1.389   .     S
C407   C919    1.390   1_554 S
C408   C413    1.417   .     A
C408   C913    1.426   .     S
C409   C412    1.417   .     A
C409   C912    1.426   1_554 S
C410   H426    1.110   .     S
C410   H427    1.111   .     S
C411   H430    1.110   .     S
C411   H429    1.111   .     S
C411   C81     1.522   1_565 S
C411   H92     1.111   1_565 S
C412   C414    1.387   .     A
C412   H438    1.075   .     S
C413   H422    1.076   .     S
C413   C415    1.387   .     A
C414   H421    1.085   .     S
C414   C910    1.389   1_554 S
C415   H431    1.084   .     S
C415   C911    1.390   .     S
C416   C74     1.522   1_565 S
C416   C81     1.357   1_565 S
C418   O447    1.295   .     A
C418   O445    1.302   .     A
Cu419  N440    2.018   .     S
Cu419  O445    1.943   .     S
Cu419  O444    1.964   .     S
Cu419  Cu420   2.686   .     S
Cu419  O448    1.921   .     S
Cu419  O441    1.974   .     S
Cu420  N439    2.018   .     S
Cu420  O446    1.943   .     S
Cu420  O443    1.964   .     S
Cu420  O442    1.974   .     S
Cu420  O447    1.921   .     S
H424   N496    1.029   .     S
H425   C74     1.111   1_565 S
H436   C453    1.084   .     S
N439   H479    1.029   .     S
N439   N496    1.284   .     S
C449   O499    1.290   .     A
C449   O497    1.284   .     A
C449   C472    1.431   .     S
C450   C452    1.467   .     S
C450   O502    1.301   .     A
C450   O504    1.294   .     A
C451   C457    1.401   .     A
C451   C455    1.398   .     A
C451   C474    1.469   .     S
C452   C456    1.398   .     A
C452   C458    1.399   .     A
C453   C462    1.405   .     A
C453   C455    1.393   .     A
C454   C463    1.405   .     A
C454   C456    1.393   .     A
C454   H381    1.084   1_655 S
C455   H491    1.083   .     S
C456   H490    1.083   .     S
C457   H489    1.075   .     S
C457   C459    1.406   .     A
C458   H488    1.075   .     S
C458   C461    1.406   .     A
C459   C462    1.418   .     A
C459   C464    1.429   .     A
C460   C473    1.431   .     S
C460   O500    1.290   .     A
C460   O498    1.284   .     A
C461   C465    1.429   .     A
C461   C463    1.418   .     A
C462   C974    1.389   .     S
C463   C975    1.390   1_554 S
C464   C469    1.417   .     A
C464   C969    1.426   .     S
C465   C468    1.417   .     A
C465   C968    1.426   1_554 S
C466   H482    1.110   .     S
C466   H483    1.111   .     S
C467   H486    1.110   .     S
C467   H485    1.111   .     S
C467   C137    1.522   1_565 S
C467   H148    1.111   1_565 S
C468   C470    1.387   .     A
C468   H494    1.075   .     S
C469   H478    1.076   .     S
C469   C471    1.387   .     A
C470   H477    1.085   .     S
C470   C966    1.389   1_554 S
C471   H487    1.084   .     S
C471   C967    1.390   .     S
C472   C130    1.522   1_565 S
C472   C137    1.357   1_565 S
C474   O503    1.295   .     A
C474   O501    1.302   .     A
Cu475  N496    2.018   .     S
Cu475  O501    1.943   .     S
Cu475  O500    1.964   .     S
Cu475  Cu476   2.686   .     S
Cu475  O504    1.921   .     S
Cu475  O497    1.974   .     S
Cu476  N495    2.018   .     S
Cu476  O502    1.943   .     S
Cu476  O499    1.964   .     S
Cu476  O498    1.974   .     S
Cu476  O503    1.921   .     S
H480   N384    1.029   1_655 S
H481   C130    1.111   1_565 S
H492   C341    1.084   1_655 S
N495   H367    1.029   1_655 S
N495   N384    1.284   1_655 S
C505   O555    1.290   .     A
C505   O553    1.284   .     A
C505   C528    1.431   .     S
C506   C508    1.467   .     S
C506   O558    1.301   .     A
C506   O560    1.294   .     A
C507   C513    1.401   .     A
C507   C511    1.398   .     A
C507   C530    1.469   .     S
C508   C512    1.398   .     A
C508   C514    1.399   .     A
C509   C518    1.405   .     A
C509   C511    1.393   .     A
C509   H660    1.084   1_455 S
C510   C519    1.405   .     A
C510   C512    1.393   .     A
C510   H605    1.084   .     S
C511   H547    1.083   .     S
C512   H546    1.083   .     S
C513   H545    1.075   .     S
C513   C515    1.406   .     A
C514   H544    1.075   .     S
C514   C517    1.406   .     A
C515   C518    1.418   .     A
C515   C520    1.429   .     A
C516   C529    1.431   .     S
C516   O556    1.290   .     A
C516   O554    1.284   .     A
C517   C521    1.429   .     A
C517   C519    1.418   .     A
C518   C22     1.389   1_556 S
C520   C525    1.417   .     A
C520   C17     1.426   1_556 S
C521   C524    1.417   .     A
C522   H538    1.110   .     S
C522   H539    1.111   .     S
C522   C864    1.522   1_545 S
C522   H873    1.111   1_545 S
C523   H542    1.110   .     S
C523   H541    1.111   .     S
C523   C697    1.522   .     S
C523   H708    1.111   .     S
C524   C526    1.387   .     A
C524   H550    1.075   .     S
C525   H534    1.076   .     S
C525   C527    1.387   .     A
C526   H533    1.085   .     S
C527   H543    1.084   .     S
C527   C15     1.390   1_556 S
C528   C690    1.522   .     S
C528   C697    1.357   .     S
C529   C864    1.357   1_545 S
C529   C859    1.522   1_545 S
C530   O559    1.295   .     A
C530   O557    1.302   .     A
Cu531  N552    2.018   .     S
Cu531  O557    1.943   .     S
Cu531  O556    1.964   .     S
Cu531  Cu532   2.686   .     S
Cu531  O560    1.921   .     S
Cu531  O553    1.974   .     S
Cu532  N551    2.018   .     S
Cu532  O558    1.943   .     S
Cu532  O555    1.964   .     S
Cu532  O554    1.974   .     S
Cu532  O559    1.921   .     S
H535   N663    1.029   1_455 S
H536   N608    1.029   .     S
H537   C690    1.111   .     S
H540   C859    1.111   1_545 S
H548   C565    1.084   .     S
H549   C622    1.084   1_455 S
N551   H591    1.029   .     S
N551   N608    1.284   .     S
N552   H648    1.029   1_455 S
N552   N663    1.284   1_455 S
C561   O611    1.290   .     A
C561   O609    1.284   .     A
C561   C584    1.431   .     S
C562   C564    1.467   .     S
C562   O614    1.301   .     A
C562   O616    1.294   .     A
C563   C569    1.401   .     A
C563   C567    1.398   .     A
C563   C586    1.469   .     S
C564   C568    1.398   .     A
C564   C570    1.399   .     A
C565   C574    1.405   .     A
C565   C567    1.393   .     A
C566   C575    1.405   .     A
C566   C568    1.393   .     A
C566   H661    1.084   .     S
C567   H603    1.083   .     S
C568   H602    1.083   .     S
C569   H601    1.075   .     S
C569   C571    1.406   .     A
C570   H600    1.075   .     S
C570   C573    1.406   .     A
C571   C574    1.418   .     A
C571   C576    1.429   .     A
C572   C585    1.431   .     S
C572   O612    1.290   .     A
C572   O610    1.284   .     A
C573   C577    1.429   .     A
C573   C575    1.418   .     A
C574   C78     1.389   1_556 S
C576   C581    1.417   .     A
C576   C73     1.426   1_556 S
C577   C580    1.417   .     A
C578   H594    1.110   .     S
C578   H595    1.111   .     S
C578   C920    1.522   1_545 S
C578   H929    1.111   1_545 S
C579   H598    1.110   .     S
C579   H597    1.111   .     S
C579   C753    1.522   .     S
C579   H764    1.111   .     S
C580   C582    1.387   .     A
C580   H606    1.075   .     S
C581   H590    1.076   .     S
C581   C583    1.387   .     A
C582   H589    1.085   .     S
C583   H599    1.084   .     S
C583   C71     1.390   1_556 S
C584   C746    1.522   .     S
C584   C753    1.357   .     S
C585   C920    1.357   1_545 S
C585   C915    1.522   1_545 S
C586   O615    1.295   .     A
C586   O613    1.302   .     A
Cu587  N608    2.018   .     S
Cu587  O613    1.943   .     S
Cu587  O612    1.964   .     S
Cu587  Cu588   2.686   .     S
Cu587  O616    1.921   .     S
Cu587  O609    1.974   .     S
Cu588  N607    2.018   .     S
Cu588  O614    1.943   .     S
Cu588  O611    1.964   .     S
Cu588  O610    1.974   .     S
Cu588  O615    1.921   .     S
H592   N664    1.029   .     S
H593   C746    1.111   .     S
H596   C915    1.111   1_545 S
H604   C621    1.084   .     S
N607   H647    1.029   .     S
N607   N664    1.284   .     S
C617   O667    1.290   .     A
C617   O665    1.284   .     A
C617   C640    1.431   .     S
C618   C620    1.467   .     S
C618   O670    1.301   .     A
C618   O672    1.294   .     A
C619   C625    1.401   .     A
C619   C623    1.398   .     A
C619   C642    1.469   .     S
C620   C624    1.398   .     A
C620   C626    1.399   .     A
C621   C630    1.405   .     A
C621   C623    1.393   .     A
C622   C631    1.405   .     A
C622   C624    1.393   .     A
C622   H549    1.084   1_655 S
C623   H659    1.083   .     S
C624   H658    1.083   .     S
C625   H657    1.075   .     S
C625   C627    1.406   .     A
C626   H656    1.075   .     S
C626   C629    1.406   .     A
C627   C630    1.418   .     A
C627   C632    1.429   .     A
C628   C641    1.431   .     S
C628   O668    1.290   .     A
C628   O666    1.284   .     A
C629   C633    1.429   .     A
C629   C631    1.418   .     A
C630   C134    1.389   1_556 S
C632   C637    1.417   .     A
C632   C129    1.426   1_556 S
C633   C636    1.417   .     A
C634   H650    1.110   .     S
C634   H651    1.111   .     S
C634   C976    1.522   1_545 S
C634   H985    1.111   1_545 S
C635   H654    1.110   .     S
C635   H653    1.111   .     S
C635   C809    1.522   .     S
C635   H820    1.111   .     S
C636   C638    1.387   .     A
C636   H662    1.075   .     S
C637   H646    1.076   .     S
C637   C639    1.387   .     A
C638   H645    1.085   .     S
C639   H655    1.084   .     S
C639   C127    1.390   1_556 S
C640   C802    1.522   .     S
C640   C809    1.357   .     S
C641   C976    1.357   1_545 S
C641   C971    1.522   1_545 S
C642   O671    1.295   .     A
C642   O669    1.302   .     A
Cu643  N664    2.018   .     S
Cu643  O669    1.943   .     S
Cu643  O668    1.964   .     S
Cu643  Cu644   2.686   .     S
Cu643  O672    1.921   .     S
Cu643  O665    1.974   .     S
Cu644  N663    2.018   .     S
Cu644  O670    1.943   .     S
Cu644  O667    1.964   .     S
Cu644  O666    1.974   .     S
Cu644  O671    1.921   .     S
H648   N552    1.029   1_655 S
H649   C802    1.111   .     S
H652   C971    1.111   1_545 S
H660   C509    1.084   1_655 S
N663   H535    1.029   1_655 S
N663   N552    1.284   1_655 S
C673   O723    1.290   .     A
C673   O721    1.284   .     A
C673   C696    1.431   .     S
C674   C676    1.467   .     S
C674   O726    1.301   .     A
C674   O728    1.294   .     A
C675   C681    1.401   .     A
C675   C679    1.398   .     A
C675   C698    1.469   .     S
C676   C680    1.398   .     A
C676   C682    1.399   .     A
C677   C686    1.405   .     A
C677   C679    1.393   .     A
C677   H828    1.084   1_455 S
C678   C687    1.405   .     A
C678   C680    1.393   .     A
C678   H773    1.084   .     S
C679   H715    1.083   .     S
C680   H714    1.083   .     S
C681   H713    1.075   .     S
C681   C683    1.406   .     A
C682   H712    1.075   .     S
C682   C685    1.406   .     A
C683   C686    1.418   .     A
C683   C688    1.429   .     A
C684   C697    1.431   .     S
C684   O724    1.290   .     A
C684   O722    1.284   .     A
C685   C689    1.429   .     A
C685   C687    1.418   .     A
C686   C190    1.389   1_556 S
C688   C693    1.417   .     A
C688   C185    1.426   1_556 S
C689   C692    1.417   .     A
C690   H706    1.110   .     S
C690   H707    1.111   .     S
C691   H710    1.110   .     S
C691   H709    1.111   .     S
C691   C865    1.522   .     S
C691   H876    1.111   .     S
C692   C694    1.387   .     A
C692   H718    1.075   .     S
C693   H702    1.076   .     S
C693   C695    1.387   .     A
C694   H701    1.085   .     S
C695   H711    1.084   .     S
C695   C183    1.390   1_556 S
C696   C858    1.522   .     S
C696   C865    1.357   .     S
C698   O727    1.295   .     A
C698   O725    1.302   .     A
Cu699  N720    2.018   .     S
Cu699  O725    1.943   .     S
Cu699  O724    1.964   .     S
Cu699  Cu700   2.686   .     S
Cu699  O728    1.921   .     S
Cu699  O721    1.974   .     S
Cu700  N719    2.018   .     S
Cu700  O726    1.943   .     S
Cu700  O723    1.964   .     S
Cu700  O722    1.974   .     S
Cu700  O727    1.921   .     S
H703   N831    1.029   1_455 S
H704   N776    1.029   .     S
H705   C858    1.111   .     S
H716   C733    1.084   .     S
H717   C790    1.084   1_455 S
N719   H759    1.029   .     S
N719   N776    1.284   .     S
N720   H816    1.029   1_455 S
N720   N831    1.284   1_455 S
C729   O779    1.290   .     A
C729   O777    1.284   .     A
C729   C752    1.431   .     S
C730   C732    1.467   .     S
C730   O782    1.301   .     A
C730   O784    1.294   .     A
C731   C737    1.401   .     A
C731   C735    1.398   .     A
C731   C754    1.469   .     S
C732   C736    1.398   .     A
C732   C738    1.399   .     A
C733   C742    1.405   .     A
C733   C735    1.393   .     A
C734   C743    1.405   .     A
C734   C736    1.393   .     A
C734   H829    1.084   .     S
C735   H771    1.083   .     S
C736   H770    1.083   .     S
C737   H769    1.075   .     S
C737   C739    1.406   .     A
C738   H768    1.075   .     S
C738   C741    1.406   .     A
C739   C742    1.418   .     A
C739   C744    1.429   .     A
C740   C753    1.431   .     S
C740   O780    1.290   .     A
C740   O778    1.284   .     A
C741   C745    1.429   .     A
C741   C743    1.418   .     A
C742   C246    1.389   1_556 S
C744   C749    1.417   .     A
C744   C241    1.426   1_556 S
C745   C748    1.417   .     A
C746   H762    1.110   .     S
C746   H763    1.111   .     S
C747   H766    1.110   .     S
C747   H765    1.111   .     S
C747   C921    1.522   .     S
C747   H932    1.111   .     S
C748   C750    1.387   .     A
C748   H774    1.075   .     S
C749   H758    1.076   .     S
C749   C751    1.387   .     A
C750   H757    1.085   .     S
C751   H767    1.084   .     S
C751   C239    1.390   1_556 S
C752   C914    1.522   .     S
C752   C921    1.357   .     S
C754   O783    1.295   .     A
C754   O781    1.302   .     A
Cu755  N776    2.018   .     S
Cu755  O781    1.943   .     S
Cu755  O780    1.964   .     S
Cu755  Cu756   2.686   .     S
Cu755  O784    1.921   .     S
Cu755  O777    1.974   .     S
Cu756  N775    2.018   .     S
Cu756  O782    1.943   .     S
Cu756  O779    1.964   .     S
Cu756  O778    1.974   .     S
Cu756  O783    1.921   .     S
H760   N832    1.029   .     S
H761   C914    1.111   .     S
H772   C789    1.084   .     S
N775   H815    1.029   .     S
N775   N832    1.284   .     S
C785   O835    1.290   .     A
C785   O833    1.284   .     A
C785   C808    1.431   .     S
C786   C788    1.467   .     S
C786   O838    1.301   .     A
C786   O840    1.294   .     A
C787   C793    1.401   .     A
C787   C791    1.398   .     A
C787   C810    1.469   .     S
C788   C792    1.398   .     A
C788   C794    1.399   .     A
C789   C798    1.405   .     A
C789   C791    1.393   .     A
C790   C799    1.405   .     A
C790   C792    1.393   .     A
C790   H717    1.084   1_655 S
C791   H827    1.083   .     S
C792   H826    1.083   .     S
C793   H825    1.075   .     S
C793   C795    1.406   .     A
C794   H824    1.075   .     S
C794   C797    1.406   .     A
C795   C798    1.418   .     A
C795   C800    1.429   .     A
C796   C809    1.431   .     S
C796   O836    1.290   .     A
C796   O834    1.284   .     A
C797   C801    1.429   .     A
C797   C799    1.418   .     A
C798   C302    1.389   1_556 S
C800   C805    1.417   .     A
C800   C297    1.426   1_556 S
C801   C804    1.417   .     A
C802   H818    1.110   .     S
C802   H819    1.111   .     S
C803   H822    1.110   .     S
C803   H821    1.111   .     S
C803   C977    1.522   .     S
C803   H988    1.111   .     S
C804   C806    1.387   .     A
C804   H830    1.075   .     S
C805   H814    1.076   .     S
C805   C807    1.387   .     A
C806   H813    1.085   .     S
C807   H823    1.084   .     S
C807   C295    1.390   1_556 S
C808   C970    1.522   .     S
C808   C977    1.357   .     S
C810   O839    1.295   .     A
C810   O837    1.302   .     A
Cu811  N832    2.018   .     S
Cu811  O837    1.943   .     S
Cu811  O836    1.964   .     S
Cu811  Cu812   2.686   .     S
Cu811  O840    1.921   .     S
Cu811  O833    1.974   .     S
Cu812  N831    2.018   .     S
Cu812  O838    1.943   .     S
Cu812  O835    1.964   .     S
Cu812  O834    1.974   .     S
Cu812  O839    1.921   .     S
H816   N720    1.029   1_655 S
H817   C970    1.111   .     S
H828   C677    1.084   1_655 S
N831   H703    1.029   1_655 S
N831   N720    1.284   1_655 S
C841   O891    1.290   .     A
C841   O889    1.284   .     A
C841   C864    1.431   .     S
C842   C844    1.467   .     S
C842   O894    1.301   .     A
C842   O896    1.294   .     A
C843   C849    1.401   .     A
C843   C847    1.398   .     A
C843   C866    1.469   .     S
C844   C848    1.398   .     A
C844   C850    1.399   .     A
C845   C854    1.405   .     A
C845   C847    1.393   .     A
C845   H996    1.084   1_455 S
C846   C855    1.405   .     A
C846   C848    1.393   .     A
C846   H941    1.084   .     S
C847   H883    1.083   .     S
C848   H882    1.083   .     S
C849   H881    1.075   .     S
C849   C851    1.406   .     A
C850   H880    1.075   .     S
C850   C853    1.406   .     A
C851   C854    1.418   .     A
C851   C856    1.429   .     A
C852   C865    1.431   .     S
C852   O892    1.290   .     A
C852   O890    1.284   .     A
C853   C857    1.429   .     A
C853   C855    1.418   .     A
C854   C358    1.389   1_556 S
C856   C861    1.417   .     A
C856   C353    1.426   1_556 S
C857   C860    1.417   .     A
C858   H874    1.110   .     S
C858   H875    1.111   .     S
C859   H878    1.110   .     S
C859   H877    1.111   .     S
C859   C529    1.522   1_565 S
C859   H540    1.111   1_565 S
C860   C862    1.387   .     A
C860   H886    1.075   .     S
C861   H870    1.076   .     S
C861   C863    1.387   .     A
C862   H869    1.085   .     S
C863   H879    1.084   .     S
C863   C351    1.390   1_556 S
C864   C522    1.522   1_565 S
C864   C529    1.357   1_565 S
C866   O895    1.295   .     A
C866   O893    1.302   .     A
Cu867  N888    2.018   .     S
Cu867  O893    1.943   .     S
Cu867  O892    1.964   .     S
Cu867  Cu868   2.686   .     S
Cu867  O896    1.921   .     S
Cu867  O889    1.974   .     S
Cu868  N887    2.018   .     S
Cu868  O894    1.943   .     S
Cu868  O891    1.964   .     S
Cu868  O890    1.974   .     S
Cu868  O895    1.921   .     S
H871   N999    1.029   1_455 S
H872   N944    1.029   .     S
H873   C522    1.111   1_565 S
H884   C901    1.084   .     S
H885   C958    1.084   1_455 S
N887   H927    1.029   .     S
N887   N944    1.284   .     S
N888   H984    1.029   1_455 S
N888   N999    1.284   1_455 S
C897   O947    1.290   .     A
C897   O945    1.284   .     A
C897   C920    1.431   .     S
C898   C900    1.467   .     S
C898   O950    1.301   .     A
C898   O952    1.294   .     A
C899   C905    1.401   .     A
C899   C903    1.398   .     A
C899   C922    1.469   .     S
C900   C904    1.398   .     A
C900   C906    1.399   .     A
C901   C910    1.405   .     A
C901   C903    1.393   .     A
C902   C911    1.405   .     A
C902   C904    1.393   .     A
C902   H997    1.084   .     S
C903   H939    1.083   .     S
C904   H938    1.083   .     S
C905   H937    1.075   .     S
C905   C907    1.406   .     A
C906   H936    1.075   .     S
C906   C909    1.406   .     A
C907   C910    1.418   .     A
C907   C912    1.429   .     A
C908   C921    1.431   .     S
C908   O948    1.290   .     A
C908   O946    1.284   .     A
C909   C913    1.429   .     A
C909   C911    1.418   .     A
C910   C414    1.389   1_556 S
C912   C917    1.417   .     A
C912   C409    1.426   1_556 S
C913   C916    1.417   .     A
C914   H930    1.110   .     S
C914   H931    1.111   .     S
C915   H934    1.110   .     S
C915   H933    1.111   .     S
C915   C585    1.522   1_565 S
C915   H596    1.111   1_565 S
C916   C918    1.387   .     A
C916   H942    1.075   .     S
C917   H926    1.076   .     S
C917   C919    1.387   .     A
C918   H925    1.085   .     S
C919   H935    1.084   .     S
C919   C407    1.390   1_556 S
C920   C578    1.522   1_565 S
C920   C585    1.357   1_565 S
C922   O951    1.295   .     A
C922   O949    1.302   .     A
Cu923  N944    2.018   .     S
Cu923  O949    1.943   .     S
Cu923  O948    1.964   .     S
Cu923  Cu924   2.686   .     S
Cu923  O952    1.921   .     S
Cu923  O945    1.974   .     S
Cu924  N943    2.018   .     S
Cu924  O950    1.943   .     S
Cu924  O947    1.964   .     S
Cu924  O946    1.974   .     S
Cu924  O951    1.921   .     S
H928   N1000   1.029   .     S
H929   C578    1.111   1_565 S
H940   C957    1.084   .     S
N943   H983    1.029   .     S
N943   N1000   1.284   .     S
C953   O1003   1.290   .     A
C953   O1001   1.284   .     A
C953   C976    1.431   .     S
C954   C956    1.467   .     S
C954   O1006   1.301   .     A
C954   O1008   1.294   .     A
C955   C961    1.401   .     A
C955   C959    1.398   .     A
C955   C978    1.469   .     S
C956   C960    1.398   .     A
C956   C962    1.399   .     A
C957   C966    1.405   .     A
C957   C959    1.393   .     A
C958   C967    1.405   .     A
C958   C960    1.393   .     A
C958   H885    1.084   1_655 S
C959   H995    1.083   .     S
C960   H994    1.083   .     S
C961   H993    1.075   .     S
C961   C963    1.406   .     A
C962   H992    1.075   .     S
C962   C965    1.406   .     A
C963   C966    1.418   .     A
C963   C968    1.429   .     A
C964   C977    1.431   .     S
C964   O1004   1.290   .     A
C964   O1002   1.284   .     A
C965   C969    1.429   .     A
C965   C967    1.418   .     A
C966   C470    1.389   1_556 S
C968   C973    1.417   .     A
C968   C465    1.426   1_556 S
C969   C972    1.417   .     A
C970   H986    1.110   .     S
C970   H987    1.111   .     S
C971   H990    1.110   .     S
C971   H989    1.111   .     S
C971   C641    1.522   1_565 S
C971   H652    1.111   1_565 S
C972   C974    1.387   .     A
C972   H998    1.075   .     S
C973   H982    1.076   .     S
C973   C975    1.387   .     A
C974   H981    1.085   .     S
C975   H991    1.084   .     S
C975   C463    1.390   1_556 S
C976   C634    1.522   1_565 S
C976   C641    1.357   1_565 S
C978   O1007   1.295   .     A
C978   O1005   1.302   .     A
Cu979  N1000   2.018   .     S
Cu979  O1005   1.943   .     S
Cu979  O1004   1.964   .     S
Cu979  Cu980   2.686   .     S
Cu979  O1008   1.921   .     S
Cu979  O1001   1.974   .     S
Cu980  N999    2.018   .     S
Cu980  O1006   1.943   .     S
Cu980  O1003   1.964   .     S
Cu980  O1002   1.974   .     S
Cu980  O1007   1.921   .     S
H984   N888    1.029   1_655 S
H985   C634    1.111   1_565 S
H996   C845    1.084   1_655 S
N999   H871    1.029   1_655 S
N999   N888    1.284   1_655 S
