data_str_m2_o10_o17_pcu_sym.88
_audit_creation_date              2020-01-03
_audit_creation_method            'Materials Studio'
_symmetry_space_group_name_H-M    'P1'
_symmetry_Int_Tables_number       1
_symmetry_cell_setting            triclinic
loop_
_symmetry_equiv_pos_as_xyz
  x,y,z
_cell_length_a                    29.9840
_cell_length_b                    25.9938
_cell_length_c                    22.3371
_cell_angle_alpha                 102.9501
_cell_angle_beta                  93.7268
_cell_angle_gamma                 92.0788
loop_
_atom_site_label
_atom_site_type_symbol
_atom_site_fract_x
_atom_site_fract_y
_atom_site_fract_z
_atom_site_U_iso_or_equiv
_atom_site_adp_type
_atom_site_occupancy
Br1    Br    0.36583   0.05255   0.13459   0.00000  Uiso   1.00
Br2    Br    0.13419   0.28081   0.19889   0.00000  Uiso   1.00
Br3    Br    0.44977   0.00394   0.06892   0.00000  Uiso   1.00
Br4    Br    0.05021   0.32941   0.26443   0.00000  Uiso   1.00
C5     C     0.24833   0.06658   0.15112   0.00000  Uiso   1.00
C6     C     0.09183   0.12161   0.15110   0.00000  Uiso   1.00
C7     C     0.38331   0.16426   0.16266   0.00000  Uiso   1.00
C8     C     0.11669   0.16908   0.17067   0.00000  Uiso   1.00
C9     C     0.40386   0.11604   0.14411   0.00000  Uiso   1.00
C10    C     0.09615   0.21730   0.18925   0.00000  Uiso   1.00
C11    C     0.45117   0.11634   0.14167   0.00000  Uiso   1.00
C12    C     0.04884   0.21700   0.19167   0.00000  Uiso   1.00
C13    C     0.47638   0.16549   0.16494   0.00000  Uiso   1.00
C14    C     0.02362   0.16785   0.16838   0.00000  Uiso   1.00
C15    C     0.45442   0.21257   0.18502   0.00000  Uiso   1.00
C16    C     0.25167   0.26675   0.18222   0.00000  Uiso   1.00
C17    C     0.04558   0.12077   0.14830   0.00000  Uiso   1.00
C18    C     0.47487   0.07050   0.11806   0.00000  Uiso   1.00
C19    C     0.02513   0.26284   0.21528   0.00000  Uiso   1.00
C20    C     0.02136   0.07321   0.12353   0.00000  Uiso   1.00
C21    C     0.47864   0.26013   0.20979   0.00000  Uiso   1.00
C22    C     0.24754   0.01058   0.14236   0.00000  Uiso   1.00
C23    C     0.25247   0.32275   0.19097   0.00000  Uiso   1.00
C24    C     0.16465   0.16740   0.16788   0.00000  Uiso   1.00
C25    C     0.33535   0.16594   0.16546   0.00000  Uiso   1.00
C26    C     0.40816   0.21173   0.18220   0.00000  Uiso   1.00
Cu27   Cu    0.25501   0.17246   0.22813   0.00000  Uiso   1.00
Cu28   Cu    0.24500   0.16087   0.10521   0.00000  Uiso   1.00
H29    H     0.39118   0.24807   0.19730   0.00000  Uiso   1.00
H30    H     0.10882   0.08527   0.13598   0.00000  Uiso   1.00
H31    H     0.03894   0.03783   0.10598   0.00000  Uiso   1.00
H32    H     0.46105   0.29550   0.22733   0.00000  Uiso   1.00
H33    H     0.24307   0.32002   0.09551   0.00000  Uiso   1.00
H34    H     0.25694   0.01331   0.23782   0.00000  Uiso   1.00
H35    H     0.21513   0.12607   0.31626   0.00000  Uiso   1.00
H36    H     0.28487   0.20726   0.01707   0.00000  Uiso   1.00
N37    N     0.23745   0.15214   0.01284   0.00000  Uiso   1.00
N38    N     0.26256   0.18119   0.32049   0.00000  Uiso   1.00
O39    O     0.25326   0.09538   0.20659   0.00000  Uiso   1.00
O40    O     0.24675   0.23796   0.12674   0.00000  Uiso   1.00
O41    O     0.24480   0.08559   0.10279   0.00000  Uiso   1.00
O42    O     0.25520   0.24774   0.23055   0.00000  Uiso   1.00
O43    O     0.18936   0.17155   0.21857   0.00000  Uiso   1.00
O44    O     0.31065   0.16179   0.11476   0.00000  Uiso   1.00
O45    O     0.18090   0.16176   0.11477   0.00000  Uiso   1.00
O46    O     0.31910   0.17157   0.21857   0.00000  Uiso   1.00
Br47   Br    0.86583   0.05255   0.13459   0.00000  Uiso   1.00
Br48   Br    0.63419   0.28081   0.19889   0.00000  Uiso   1.00
Br49   Br    0.94977   0.00394   0.06892   0.00000  Uiso   1.00
Br50   Br    0.55021   0.32941   0.26443   0.00000  Uiso   1.00
C51    C     0.74833   0.06658   0.15112   0.00000  Uiso   1.00
C52    C     0.59183   0.12161   0.15110   0.00000  Uiso   1.00
C53    C     0.88331   0.16426   0.16266   0.00000  Uiso   1.00
C54    C     0.61669   0.16908   0.17067   0.00000  Uiso   1.00
C55    C     0.90386   0.11604   0.14411   0.00000  Uiso   1.00
C56    C     0.59615   0.21730   0.18925   0.00000  Uiso   1.00
C57    C     0.95117   0.11634   0.14167   0.00000  Uiso   1.00
C58    C     0.54884   0.21700   0.19167   0.00000  Uiso   1.00
C59    C     0.97638   0.16549   0.16494   0.00000  Uiso   1.00
C60    C     0.52362   0.16785   0.16838   0.00000  Uiso   1.00
C61    C     0.95442   0.21257   0.18502   0.00000  Uiso   1.00
C62    C     0.75167   0.26675   0.18222   0.00000  Uiso   1.00
C63    C     0.54558   0.12077   0.14830   0.00000  Uiso   1.00
C64    C     0.97487   0.07050   0.11806   0.00000  Uiso   1.00
C65    C     0.52513   0.26284   0.21528   0.00000  Uiso   1.00
C66    C     0.52136   0.07321   0.12353   0.00000  Uiso   1.00
C67    C     0.97864   0.26013   0.20979   0.00000  Uiso   1.00
C68    C     0.74754   0.01058   0.14236   0.00000  Uiso   1.00
C69    C     0.75247   0.32275   0.19097   0.00000  Uiso   1.00
C70    C     0.66465   0.16740   0.16788   0.00000  Uiso   1.00
C71    C     0.83535   0.16594   0.16546   0.00000  Uiso   1.00
C72    C     0.90816   0.21173   0.18220   0.00000  Uiso   1.00
Cu73   Cu    0.75501   0.17246   0.22813   0.00000  Uiso   1.00
Cu74   Cu    0.74500   0.16087   0.10521   0.00000  Uiso   1.00
H75    H     0.89118   0.24807   0.19730   0.00000  Uiso   1.00
H76    H     0.60882   0.08527   0.13598   0.00000  Uiso   1.00
H77    H     0.53894   0.03783   0.10598   0.00000  Uiso   1.00
H78    H     0.96105   0.29550   0.22733   0.00000  Uiso   1.00
H79    H     0.74307   0.32002   0.09551   0.00000  Uiso   1.00
H80    H     0.75694   0.01331   0.23782   0.00000  Uiso   1.00
H81    H     0.71513   0.12607   0.31626   0.00000  Uiso   1.00
H82    H     0.78487   0.20726   0.01707   0.00000  Uiso   1.00
N83    N     0.73745   0.15214   0.01284   0.00000  Uiso   1.00
N84    N     0.76256   0.18119   0.32049   0.00000  Uiso   1.00
O85    O     0.75326   0.09538   0.20659   0.00000  Uiso   1.00
O86    O     0.74675   0.23796   0.12674   0.00000  Uiso   1.00
O87    O     0.74480   0.08559   0.10279   0.00000  Uiso   1.00
O88    O     0.75520   0.24774   0.23055   0.00000  Uiso   1.00
O89    O     0.68936   0.17155   0.21857   0.00000  Uiso   1.00
O90    O     0.81065   0.16179   0.11476   0.00000  Uiso   1.00
O91    O     0.68090   0.16176   0.11477   0.00000  Uiso   1.00
O92    O     0.81910   0.17157   0.21857   0.00000  Uiso   1.00
Br93   Br    0.36583   0.38588   0.13459   0.00000  Uiso   1.00
Br94   Br    0.13419   0.61415   0.19889   0.00000  Uiso   1.00
Br95   Br    0.44977   0.33727   0.06892   0.00000  Uiso   1.00
Br96   Br    0.05021   0.66274   0.26443   0.00000  Uiso   1.00
C97    C     0.24833   0.39991   0.15112   0.00000  Uiso   1.00
C98    C     0.09183   0.45494   0.15110   0.00000  Uiso   1.00
C99    C     0.38331   0.49759   0.16266   0.00000  Uiso   1.00
C100   C     0.11669   0.50241   0.17067   0.00000  Uiso   1.00
C101   C     0.40386   0.44938   0.14411   0.00000  Uiso   1.00
C102   C     0.09615   0.55063   0.18925   0.00000  Uiso   1.00
C103   C     0.45117   0.44967   0.14167   0.00000  Uiso   1.00
C104   C     0.04884   0.55034   0.19167   0.00000  Uiso   1.00
C105   C     0.47638   0.49882   0.16494   0.00000  Uiso   1.00
C106   C     0.02362   0.50119   0.16838   0.00000  Uiso   1.00
C107   C     0.45442   0.54590   0.18502   0.00000  Uiso   1.00
C108   C     0.25167   0.60009   0.18222   0.00000  Uiso   1.00
C109   C     0.04558   0.45410   0.14830   0.00000  Uiso   1.00
C110   C     0.47487   0.40383   0.11806   0.00000  Uiso   1.00
C111   C     0.02513   0.59618   0.21528   0.00000  Uiso   1.00
C112   C     0.02136   0.40654   0.12353   0.00000  Uiso   1.00
C113   C     0.47864   0.59346   0.20979   0.00000  Uiso   1.00
C114   C     0.24754   0.34392   0.14236   0.00000  Uiso   1.00
C115   C     0.25247   0.65608   0.19097   0.00000  Uiso   1.00
C116   C     0.16465   0.50073   0.16788   0.00000  Uiso   1.00
C117   C     0.33535   0.49927   0.16546   0.00000  Uiso   1.00
C118   C     0.40816   0.54506   0.18220   0.00000  Uiso   1.00
Cu119  Cu    0.25501   0.50579   0.22813   0.00000  Uiso   1.00
Cu120  Cu    0.24500   0.49421   0.10521   0.00000  Uiso   1.00
H121   H     0.39118   0.58140   0.19730   0.00000  Uiso   1.00
H122   H     0.10882   0.41860   0.13598   0.00000  Uiso   1.00
H123   H     0.03894   0.37117   0.10598   0.00000  Uiso   1.00
H124   H     0.46105   0.62884   0.22733   0.00000  Uiso   1.00
H125   H     0.24307   0.65336   0.09551   0.00000  Uiso   1.00
H126   H     0.25694   0.34664   0.23782   0.00000  Uiso   1.00
H127   H     0.21513   0.45941   0.31626   0.00000  Uiso   1.00
H128   H     0.28487   0.54059   0.01707   0.00000  Uiso   1.00
N129   N     0.23745   0.48547   0.01284   0.00000  Uiso   1.00
N130   N     0.26256   0.51453   0.32049   0.00000  Uiso   1.00
O131   O     0.25326   0.42871   0.20659   0.00000  Uiso   1.00
O132   O     0.24675   0.57129   0.12674   0.00000  Uiso   1.00
O133   O     0.24480   0.41892   0.10279   0.00000  Uiso   1.00
O134   O     0.25520   0.58108   0.23055   0.00000  Uiso   1.00
O135   O     0.18936   0.50488   0.21857   0.00000  Uiso   1.00
O136   O     0.31065   0.49512   0.11476   0.00000  Uiso   1.00
O137   O     0.18090   0.49510   0.11477   0.00000  Uiso   1.00
O138   O     0.31910   0.50490   0.21857   0.00000  Uiso   1.00
Br139  Br    0.86583   0.38588   0.13459   0.00000  Uiso   1.00
Br140  Br    0.63419   0.61415   0.19889   0.00000  Uiso   1.00
Br141  Br    0.94977   0.33727   0.06892   0.00000  Uiso   1.00
Br142  Br    0.55021   0.66274   0.26443   0.00000  Uiso   1.00
C143   C     0.74833   0.39991   0.15112   0.00000  Uiso   1.00
C144   C     0.59183   0.45494   0.15110   0.00000  Uiso   1.00
C145   C     0.88331   0.49759   0.16266   0.00000  Uiso   1.00
C146   C     0.61669   0.50241   0.17067   0.00000  Uiso   1.00
C147   C     0.90386   0.44938   0.14411   0.00000  Uiso   1.00
C148   C     0.59615   0.55063   0.18925   0.00000  Uiso   1.00
C149   C     0.95117   0.44967   0.14167   0.00000  Uiso   1.00
C150   C     0.54884   0.55034   0.19167   0.00000  Uiso   1.00
C151   C     0.97638   0.49882   0.16494   0.00000  Uiso   1.00
C152   C     0.52362   0.50119   0.16838   0.00000  Uiso   1.00
C153   C     0.95442   0.54590   0.18502   0.00000  Uiso   1.00
C154   C     0.75167   0.60009   0.18222   0.00000  Uiso   1.00
C155   C     0.54558   0.45410   0.14830   0.00000  Uiso   1.00
C156   C     0.97487   0.40383   0.11806   0.00000  Uiso   1.00
C157   C     0.52513   0.59618   0.21528   0.00000  Uiso   1.00
C158   C     0.52136   0.40654   0.12353   0.00000  Uiso   1.00
C159   C     0.97864   0.59346   0.20979   0.00000  Uiso   1.00
C160   C     0.74754   0.34392   0.14236   0.00000  Uiso   1.00
C161   C     0.75247   0.65608   0.19097   0.00000  Uiso   1.00
C162   C     0.66465   0.50073   0.16788   0.00000  Uiso   1.00
C163   C     0.83535   0.49927   0.16546   0.00000  Uiso   1.00
C164   C     0.90816   0.54506   0.18220   0.00000  Uiso   1.00
Cu165  Cu    0.75501   0.50579   0.22813   0.00000  Uiso   1.00
Cu166  Cu    0.74500   0.49421   0.10521   0.00000  Uiso   1.00
H167   H     0.89118   0.58140   0.19730   0.00000  Uiso   1.00
H168   H     0.60882   0.41860   0.13598   0.00000  Uiso   1.00
H169   H     0.53894   0.37117   0.10598   0.00000  Uiso   1.00
H170   H     0.96105   0.62884   0.22733   0.00000  Uiso   1.00
H171   H     0.74307   0.65336   0.09551   0.00000  Uiso   1.00
H172   H     0.75694   0.34664   0.23782   0.00000  Uiso   1.00
H173   H     0.71513   0.45941   0.31626   0.00000  Uiso   1.00
H174   H     0.78487   0.54059   0.01707   0.00000  Uiso   1.00
N175   N     0.73745   0.48547   0.01284   0.00000  Uiso   1.00
N176   N     0.76256   0.51453   0.32049   0.00000  Uiso   1.00
O177   O     0.75326   0.42871   0.20659   0.00000  Uiso   1.00
O178   O     0.74675   0.57129   0.12674   0.00000  Uiso   1.00
O179   O     0.74480   0.41892   0.10279   0.00000  Uiso   1.00
O180   O     0.75520   0.58108   0.23055   0.00000  Uiso   1.00
O181   O     0.68936   0.50488   0.21857   0.00000  Uiso   1.00
O182   O     0.81065   0.49512   0.11476   0.00000  Uiso   1.00
O183   O     0.68090   0.49510   0.11477   0.00000  Uiso   1.00
O184   O     0.81910   0.50490   0.21857   0.00000  Uiso   1.00
Br185  Br    0.36583   0.71921   0.13459   0.00000  Uiso   1.00
Br186  Br    0.13419   0.94748   0.19889   0.00000  Uiso   1.00
Br187  Br    0.44977   0.67060   0.06892   0.00000  Uiso   1.00
Br188  Br    0.05021   0.99608   0.26443   0.00000  Uiso   1.00
C189   C     0.24833   0.73325   0.15112   0.00000  Uiso   1.00
C190   C     0.09183   0.78827   0.15110   0.00000  Uiso   1.00
C191   C     0.38331   0.83093   0.16266   0.00000  Uiso   1.00
C192   C     0.11669   0.83574   0.17067   0.00000  Uiso   1.00
C193   C     0.40386   0.78271   0.14411   0.00000  Uiso   1.00
C194   C     0.09615   0.88397   0.18925   0.00000  Uiso   1.00
C195   C     0.45117   0.78300   0.14167   0.00000  Uiso   1.00
C196   C     0.04884   0.88367   0.19167   0.00000  Uiso   1.00
C197   C     0.47638   0.83216   0.16494   0.00000  Uiso   1.00
C198   C     0.02362   0.83452   0.16838   0.00000  Uiso   1.00
C199   C     0.45442   0.87924   0.18502   0.00000  Uiso   1.00
C200   C     0.25167   0.93342   0.18222   0.00000  Uiso   1.00
C201   C     0.04558   0.78744   0.14830   0.00000  Uiso   1.00
C202   C     0.47487   0.73717   0.11806   0.00000  Uiso   1.00
C203   C     0.02513   0.92951   0.21528   0.00000  Uiso   1.00
C204   C     0.02136   0.73988   0.12353   0.00000  Uiso   1.00
C205   C     0.47864   0.92680   0.20979   0.00000  Uiso   1.00
C206   C     0.24754   0.67725   0.14236   0.00000  Uiso   1.00
C207   C     0.25247   0.98942   0.19097   0.00000  Uiso   1.00
C208   C     0.16465   0.83406   0.16788   0.00000  Uiso   1.00
C209   C     0.33535   0.83260   0.16546   0.00000  Uiso   1.00
C210   C     0.40816   0.87840   0.18220   0.00000  Uiso   1.00
Cu211  Cu    0.25501   0.83913   0.22813   0.00000  Uiso   1.00
Cu212  Cu    0.24500   0.82754   0.10521   0.00000  Uiso   1.00
H213   H     0.39118   0.91474   0.19730   0.00000  Uiso   1.00
H214   H     0.10882   0.75193   0.13598   0.00000  Uiso   1.00
H215   H     0.03894   0.70450   0.10598   0.00000  Uiso   1.00
H216   H     0.46105   0.96217   0.22733   0.00000  Uiso   1.00
H217   H     0.24307   0.98669   0.09551   0.00000  Uiso   1.00
H218   H     0.25694   0.67998   0.23782   0.00000  Uiso   1.00
H219   H     0.21513   0.79274   0.31626   0.00000  Uiso   1.00
H220   H     0.28487   0.87393   0.01707   0.00000  Uiso   1.00
N221   N     0.23745   0.81881   0.01284   0.00000  Uiso   1.00
N222   N     0.26256   0.84786   0.32049   0.00000  Uiso   1.00
O223   O     0.25326   0.76204   0.20659   0.00000  Uiso   1.00
O224   O     0.24675   0.90462   0.12674   0.00000  Uiso   1.00
O225   O     0.24480   0.75226   0.10279   0.00000  Uiso   1.00
O226   O     0.25520   0.91441   0.23055   0.00000  Uiso   1.00
O227   O     0.18936   0.83821   0.21857   0.00000  Uiso   1.00
O228   O     0.31065   0.82845   0.11476   0.00000  Uiso   1.00
O229   O     0.18090   0.82843   0.11477   0.00000  Uiso   1.00
O230   O     0.31910   0.83824   0.21857   0.00000  Uiso   1.00
Br231  Br    0.86583   0.71921   0.13459   0.00000  Uiso   1.00
Br232  Br    0.63419   0.94748   0.19889   0.00000  Uiso   1.00
Br233  Br    0.94977   0.67060   0.06892   0.00000  Uiso   1.00
Br234  Br    0.55021   0.99608   0.26443   0.00000  Uiso   1.00
C235   C     0.74833   0.73325   0.15112   0.00000  Uiso   1.00
C236   C     0.59183   0.78827   0.15110   0.00000  Uiso   1.00
C237   C     0.88331   0.83093   0.16266   0.00000  Uiso   1.00
C238   C     0.61669   0.83574   0.17067   0.00000  Uiso   1.00
C239   C     0.90386   0.78271   0.14411   0.00000  Uiso   1.00
C240   C     0.59615   0.88397   0.18925   0.00000  Uiso   1.00
C241   C     0.95117   0.78300   0.14167   0.00000  Uiso   1.00
C242   C     0.54884   0.88367   0.19167   0.00000  Uiso   1.00
C243   C     0.97638   0.83216   0.16494   0.00000  Uiso   1.00
C244   C     0.52362   0.83452   0.16838   0.00000  Uiso   1.00
C245   C     0.95442   0.87924   0.18502   0.00000  Uiso   1.00
C246   C     0.75167   0.93342   0.18222   0.00000  Uiso   1.00
C247   C     0.54558   0.78744   0.14830   0.00000  Uiso   1.00
C248   C     0.97487   0.73717   0.11806   0.00000  Uiso   1.00
C249   C     0.52513   0.92951   0.21528   0.00000  Uiso   1.00
C250   C     0.52136   0.73988   0.12353   0.00000  Uiso   1.00
C251   C     0.97864   0.92680   0.20979   0.00000  Uiso   1.00
C252   C     0.74754   0.67725   0.14236   0.00000  Uiso   1.00
C253   C     0.75247   0.98942   0.19097   0.00000  Uiso   1.00
C254   C     0.66465   0.83406   0.16788   0.00000  Uiso   1.00
C255   C     0.83535   0.83260   0.16546   0.00000  Uiso   1.00
C256   C     0.90816   0.87840   0.18220   0.00000  Uiso   1.00
Cu257  Cu    0.75501   0.83913   0.22813   0.00000  Uiso   1.00
Cu258  Cu    0.74500   0.82754   0.10521   0.00000  Uiso   1.00
H259   H     0.89118   0.91474   0.19730   0.00000  Uiso   1.00
H260   H     0.60882   0.75193   0.13598   0.00000  Uiso   1.00
H261   H     0.53894   0.70450   0.10598   0.00000  Uiso   1.00
H262   H     0.96105   0.96217   0.22733   0.00000  Uiso   1.00
H263   H     0.74307   0.98669   0.09551   0.00000  Uiso   1.00
H264   H     0.75694   0.67998   0.23782   0.00000  Uiso   1.00
H265   H     0.71513   0.79274   0.31626   0.00000  Uiso   1.00
H266   H     0.78487   0.87393   0.01707   0.00000  Uiso   1.00
N267   N     0.73745   0.81881   0.01284   0.00000  Uiso   1.00
N268   N     0.76256   0.84786   0.32049   0.00000  Uiso   1.00
O269   O     0.75326   0.76204   0.20659   0.00000  Uiso   1.00
O270   O     0.74675   0.90462   0.12674   0.00000  Uiso   1.00
O271   O     0.74480   0.75226   0.10279   0.00000  Uiso   1.00
O272   O     0.75520   0.91441   0.23055   0.00000  Uiso   1.00
O273   O     0.68936   0.83821   0.21857   0.00000  Uiso   1.00
O274   O     0.81065   0.82845   0.11476   0.00000  Uiso   1.00
O275   O     0.68090   0.82843   0.11477   0.00000  Uiso   1.00
O276   O     0.81910   0.83824   0.21857   0.00000  Uiso   1.00
Br277  Br    0.36583   0.05255   0.46793   0.00000  Uiso   1.00
Br278  Br    0.13419   0.28081   0.53223   0.00000  Uiso   1.00
Br279  Br    0.44977   0.00394   0.40226   0.00000  Uiso   1.00
Br280  Br    0.05021   0.32941   0.59776   0.00000  Uiso   1.00
C281   C     0.24833   0.06658   0.48445   0.00000  Uiso   1.00
C282   C     0.09183   0.12161   0.48443   0.00000  Uiso   1.00
C283   C     0.38331   0.16426   0.49600   0.00000  Uiso   1.00
C284   C     0.11669   0.16908   0.50400   0.00000  Uiso   1.00
C285   C     0.40386   0.11604   0.47745   0.00000  Uiso   1.00
C286   C     0.09615   0.21730   0.52259   0.00000  Uiso   1.00
C287   C     0.45117   0.11634   0.47501   0.00000  Uiso   1.00
C288   C     0.04884   0.21700   0.52501   0.00000  Uiso   1.00
C289   C     0.47638   0.16549   0.49828   0.00000  Uiso   1.00
C290   C     0.02362   0.16785   0.50172   0.00000  Uiso   1.00
C291   C     0.45442   0.21257   0.51835   0.00000  Uiso   1.00
C292   C     0.25167   0.26675   0.51555   0.00000  Uiso   1.00
C293   C     0.04558   0.12077   0.48163   0.00000  Uiso   1.00
C294   C     0.47487   0.07050   0.45140   0.00000  Uiso   1.00
C295   C     0.02513   0.26284   0.54861   0.00000  Uiso   1.00
C296   C     0.02136   0.07321   0.45686   0.00000  Uiso   1.00
C297   C     0.47864   0.26013   0.54312   0.00000  Uiso   1.00
C298   C     0.24754   0.01058   0.47569   0.00000  Uiso   1.00
C299   C     0.25247   0.32275   0.52431   0.00000  Uiso   1.00
C300   C     0.16465   0.16740   0.50121   0.00000  Uiso   1.00
C301   C     0.33535   0.16594   0.49879   0.00000  Uiso   1.00
C302   C     0.40816   0.21173   0.51553   0.00000  Uiso   1.00
Cu303  Cu    0.25501   0.17246   0.56146   0.00000  Uiso   1.00
Cu304  Cu    0.24500   0.16087   0.43854   0.00000  Uiso   1.00
H305   H     0.39118   0.24807   0.53064   0.00000  Uiso   1.00
H306   H     0.10882   0.08527   0.46931   0.00000  Uiso   1.00
H307   H     0.03894   0.03783   0.43931   0.00000  Uiso   1.00
H308   H     0.46105   0.29550   0.56066   0.00000  Uiso   1.00
H309   H     0.24307   0.32002   0.42884   0.00000  Uiso   1.00
H310   H     0.25694   0.01331   0.57116   0.00000  Uiso   1.00
H311   H     0.21513   0.12607   0.64960   0.00000  Uiso   1.00
H312   H     0.28487   0.20726   0.35040   0.00000  Uiso   1.00
N313   N     0.23745   0.15214   0.34617   0.00000  Uiso   1.00
N314   N     0.26256   0.18119   0.65383   0.00000  Uiso   1.00
O315   O     0.25326   0.09538   0.53992   0.00000  Uiso   1.00
O316   O     0.24675   0.23796   0.46008   0.00000  Uiso   1.00
O317   O     0.24480   0.08559   0.43612   0.00000  Uiso   1.00
O318   O     0.25520   0.24774   0.56388   0.00000  Uiso   1.00
O319   O     0.18936   0.17155   0.55191   0.00000  Uiso   1.00
O320   O     0.31065   0.16179   0.44809   0.00000  Uiso   1.00
O321   O     0.18090   0.16176   0.44810   0.00000  Uiso   1.00
O322   O     0.31910   0.17157   0.55190   0.00000  Uiso   1.00
Br323  Br    0.86583   0.05255   0.46793   0.00000  Uiso   1.00
Br324  Br    0.63419   0.28081   0.53223   0.00000  Uiso   1.00
Br325  Br    0.94977   0.00394   0.40226   0.00000  Uiso   1.00
Br326  Br    0.55021   0.32941   0.59776   0.00000  Uiso   1.00
C327   C     0.74833   0.06658   0.48445   0.00000  Uiso   1.00
C328   C     0.59183   0.12161   0.48443   0.00000  Uiso   1.00
C329   C     0.88331   0.16426   0.49600   0.00000  Uiso   1.00
C330   C     0.61669   0.16908   0.50400   0.00000  Uiso   1.00
C331   C     0.90386   0.11604   0.47745   0.00000  Uiso   1.00
C332   C     0.59615   0.21730   0.52259   0.00000  Uiso   1.00
C333   C     0.95117   0.11634   0.47501   0.00000  Uiso   1.00
C334   C     0.54884   0.21700   0.52501   0.00000  Uiso   1.00
C335   C     0.97638   0.16549   0.49828   0.00000  Uiso   1.00
C336   C     0.52362   0.16785   0.50172   0.00000  Uiso   1.00
C337   C     0.95442   0.21257   0.51835   0.00000  Uiso   1.00
C338   C     0.75167   0.26675   0.51555   0.00000  Uiso   1.00
C339   C     0.54558   0.12077   0.48163   0.00000  Uiso   1.00
C340   C     0.97487   0.07050   0.45140   0.00000  Uiso   1.00
C341   C     0.52513   0.26284   0.54861   0.00000  Uiso   1.00
C342   C     0.52136   0.07321   0.45686   0.00000  Uiso   1.00
C343   C     0.97864   0.26013   0.54312   0.00000  Uiso   1.00
C344   C     0.74754   0.01058   0.47569   0.00000  Uiso   1.00
C345   C     0.75247   0.32275   0.52431   0.00000  Uiso   1.00
C346   C     0.66465   0.16740   0.50121   0.00000  Uiso   1.00
C347   C     0.83535   0.16594   0.49879   0.00000  Uiso   1.00
C348   C     0.90816   0.21173   0.51553   0.00000  Uiso   1.00
Cu349  Cu    0.75501   0.17246   0.56146   0.00000  Uiso   1.00
Cu350  Cu    0.74500   0.16087   0.43854   0.00000  Uiso   1.00
H351   H     0.89118   0.24807   0.53064   0.00000  Uiso   1.00
H352   H     0.60882   0.08527   0.46931   0.00000  Uiso   1.00
H353   H     0.53894   0.03783   0.43931   0.00000  Uiso   1.00
H354   H     0.96105   0.29550   0.56066   0.00000  Uiso   1.00
H355   H     0.74307   0.32002   0.42884   0.00000  Uiso   1.00
H356   H     0.75694   0.01331   0.57116   0.00000  Uiso   1.00
H357   H     0.71513   0.12607   0.64960   0.00000  Uiso   1.00
H358   H     0.78487   0.20726   0.35040   0.00000  Uiso   1.00
N359   N     0.73745   0.15214   0.34617   0.00000  Uiso   1.00
N360   N     0.76256   0.18119   0.65383   0.00000  Uiso   1.00
O361   O     0.75326   0.09538   0.53992   0.00000  Uiso   1.00
O362   O     0.74675   0.23796   0.46008   0.00000  Uiso   1.00
O363   O     0.74480   0.08559   0.43612   0.00000  Uiso   1.00
O364   O     0.75520   0.24774   0.56388   0.00000  Uiso   1.00
O365   O     0.68936   0.17155   0.55191   0.00000  Uiso   1.00
O366   O     0.81065   0.16179   0.44809   0.00000  Uiso   1.00
O367   O     0.68090   0.16176   0.44810   0.00000  Uiso   1.00
O368   O     0.81910   0.17157   0.55190   0.00000  Uiso   1.00
Br369  Br    0.36583   0.38588   0.46793   0.00000  Uiso   1.00
Br370  Br    0.13419   0.61415   0.53223   0.00000  Uiso   1.00
Br371  Br    0.44977   0.33727   0.40226   0.00000  Uiso   1.00
Br372  Br    0.05021   0.66274   0.59776   0.00000  Uiso   1.00
C373   C     0.24833   0.39991   0.48445   0.00000  Uiso   1.00
C374   C     0.09183   0.45494   0.48443   0.00000  Uiso   1.00
C375   C     0.38331   0.49759   0.49600   0.00000  Uiso   1.00
C376   C     0.11669   0.50241   0.50400   0.00000  Uiso   1.00
C377   C     0.40386   0.44938   0.47745   0.00000  Uiso   1.00
C378   C     0.09615   0.55063   0.52259   0.00000  Uiso   1.00
C379   C     0.45117   0.44967   0.47501   0.00000  Uiso   1.00
C380   C     0.04884   0.55034   0.52501   0.00000  Uiso   1.00
C381   C     0.47638   0.49882   0.49828   0.00000  Uiso   1.00
C382   C     0.02362   0.50119   0.50172   0.00000  Uiso   1.00
C383   C     0.45442   0.54590   0.51835   0.00000  Uiso   1.00
C384   C     0.25167   0.60009   0.51555   0.00000  Uiso   1.00
C385   C     0.04558   0.45410   0.48163   0.00000  Uiso   1.00
C386   C     0.47487   0.40383   0.45140   0.00000  Uiso   1.00
C387   C     0.02513   0.59618   0.54861   0.00000  Uiso   1.00
C388   C     0.02136   0.40654   0.45686   0.00000  Uiso   1.00
C389   C     0.47864   0.59346   0.54312   0.00000  Uiso   1.00
C390   C     0.24754   0.34392   0.47569   0.00000  Uiso   1.00
C391   C     0.25247   0.65608   0.52431   0.00000  Uiso   1.00
C392   C     0.16465   0.50073   0.50121   0.00000  Uiso   1.00
C393   C     0.33535   0.49927   0.49879   0.00000  Uiso   1.00
C394   C     0.40816   0.54506   0.51553   0.00000  Uiso   1.00
Cu395  Cu    0.25501   0.50579   0.56146   0.00000  Uiso   1.00
Cu396  Cu    0.24500   0.49421   0.43854   0.00000  Uiso   1.00
H397   H     0.39118   0.58140   0.53064   0.00000  Uiso   1.00
H398   H     0.10882   0.41860   0.46931   0.00000  Uiso   1.00
H399   H     0.03894   0.37117   0.43931   0.00000  Uiso   1.00
H400   H     0.46105   0.62884   0.56066   0.00000  Uiso   1.00
H401   H     0.24307   0.65336   0.42884   0.00000  Uiso   1.00
H402   H     0.25694   0.34664   0.57116   0.00000  Uiso   1.00
H403   H     0.21513   0.45941   0.64960   0.00000  Uiso   1.00
H404   H     0.28487   0.54059   0.35040   0.00000  Uiso   1.00
N405   N     0.23745   0.48547   0.34617   0.00000  Uiso   1.00
N406   N     0.26256   0.51453   0.65383   0.00000  Uiso   1.00
O407   O     0.25326   0.42871   0.53992   0.00000  Uiso   1.00
O408   O     0.24675   0.57129   0.46008   0.00000  Uiso   1.00
O409   O     0.24480   0.41892   0.43612   0.00000  Uiso   1.00
O410   O     0.25520   0.58108   0.56388   0.00000  Uiso   1.00
O411   O     0.18936   0.50488   0.55191   0.00000  Uiso   1.00
O412   O     0.31065   0.49512   0.44809   0.00000  Uiso   1.00
O413   O     0.18090   0.49510   0.44810   0.00000  Uiso   1.00
O414   O     0.31910   0.50490   0.55190   0.00000  Uiso   1.00
Br415  Br    0.86583   0.38588   0.46793   0.00000  Uiso   1.00
Br416  Br    0.63419   0.61415   0.53223   0.00000  Uiso   1.00
Br417  Br    0.94977   0.33727   0.40226   0.00000  Uiso   1.00
Br418  Br    0.55021   0.66274   0.59776   0.00000  Uiso   1.00
C419   C     0.74833   0.39991   0.48445   0.00000  Uiso   1.00
C420   C     0.59183   0.45494   0.48443   0.00000  Uiso   1.00
C421   C     0.88331   0.49759   0.49600   0.00000  Uiso   1.00
C422   C     0.61669   0.50241   0.50400   0.00000  Uiso   1.00
C423   C     0.90386   0.44938   0.47745   0.00000  Uiso   1.00
C424   C     0.59615   0.55063   0.52259   0.00000  Uiso   1.00
C425   C     0.95117   0.44967   0.47501   0.00000  Uiso   1.00
C426   C     0.54884   0.55034   0.52501   0.00000  Uiso   1.00
C427   C     0.97638   0.49882   0.49828   0.00000  Uiso   1.00
C428   C     0.52362   0.50119   0.50172   0.00000  Uiso   1.00
C429   C     0.95442   0.54590   0.51835   0.00000  Uiso   1.00
C430   C     0.75167   0.60009   0.51555   0.00000  Uiso   1.00
C431   C     0.54558   0.45410   0.48163   0.00000  Uiso   1.00
C432   C     0.97487   0.40383   0.45140   0.00000  Uiso   1.00
C433   C     0.52513   0.59618   0.54861   0.00000  Uiso   1.00
C434   C     0.52136   0.40654   0.45686   0.00000  Uiso   1.00
C435   C     0.97864   0.59346   0.54312   0.00000  Uiso   1.00
C436   C     0.74754   0.34392   0.47569   0.00000  Uiso   1.00
C437   C     0.75247   0.65608   0.52431   0.00000  Uiso   1.00
C438   C     0.66465   0.50073   0.50121   0.00000  Uiso   1.00
C439   C     0.83535   0.49927   0.49879   0.00000  Uiso   1.00
C440   C     0.90816   0.54506   0.51553   0.00000  Uiso   1.00
Cu441  Cu    0.75501   0.50579   0.56146   0.00000  Uiso   1.00
Cu442  Cu    0.74500   0.49421   0.43854   0.00000  Uiso   1.00
H443   H     0.89118   0.58140   0.53064   0.00000  Uiso   1.00
H444   H     0.60882   0.41860   0.46931   0.00000  Uiso   1.00
H445   H     0.53894   0.37117   0.43931   0.00000  Uiso   1.00
H446   H     0.96105   0.62884   0.56066   0.00000  Uiso   1.00
H447   H     0.74307   0.65336   0.42884   0.00000  Uiso   1.00
H448   H     0.75694   0.34664   0.57116   0.00000  Uiso   1.00
H449   H     0.71513   0.45941   0.64960   0.00000  Uiso   1.00
H450   H     0.78487   0.54059   0.35040   0.00000  Uiso   1.00
N451   N     0.73745   0.48547   0.34617   0.00000  Uiso   1.00
N452   N     0.76256   0.51453   0.65383   0.00000  Uiso   1.00
O453   O     0.75326   0.42871   0.53992   0.00000  Uiso   1.00
O454   O     0.74675   0.57129   0.46008   0.00000  Uiso   1.00
O455   O     0.74480   0.41892   0.43612   0.00000  Uiso   1.00
O456   O     0.75520   0.58108   0.56388   0.00000  Uiso   1.00
O457   O     0.68936   0.50488   0.55191   0.00000  Uiso   1.00
O458   O     0.81065   0.49512   0.44809   0.00000  Uiso   1.00
O459   O     0.68090   0.49510   0.44810   0.00000  Uiso   1.00
O460   O     0.81910   0.50490   0.55190   0.00000  Uiso   1.00
Br461  Br    0.36583   0.71921   0.46793   0.00000  Uiso   1.00
Br462  Br    0.13419   0.94748   0.53223   0.00000  Uiso   1.00
Br463  Br    0.44977   0.67060   0.40226   0.00000  Uiso   1.00
Br464  Br    0.05021   0.99608   0.59776   0.00000  Uiso   1.00
C465   C     0.24833   0.73325   0.48445   0.00000  Uiso   1.00
C466   C     0.09183   0.78827   0.48443   0.00000  Uiso   1.00
C467   C     0.38331   0.83093   0.49600   0.00000  Uiso   1.00
C468   C     0.11669   0.83574   0.50400   0.00000  Uiso   1.00
C469   C     0.40386   0.78271   0.47745   0.00000  Uiso   1.00
C470   C     0.09615   0.88397   0.52259   0.00000  Uiso   1.00
C471   C     0.45117   0.78300   0.47501   0.00000  Uiso   1.00
C472   C     0.04884   0.88367   0.52501   0.00000  Uiso   1.00
C473   C     0.47638   0.83216   0.49828   0.00000  Uiso   1.00
C474   C     0.02362   0.83452   0.50172   0.00000  Uiso   1.00
C475   C     0.45442   0.87924   0.51835   0.00000  Uiso   1.00
C476   C     0.25167   0.93342   0.51555   0.00000  Uiso   1.00
C477   C     0.04558   0.78744   0.48163   0.00000  Uiso   1.00
C478   C     0.47487   0.73717   0.45140   0.00000  Uiso   1.00
C479   C     0.02513   0.92951   0.54861   0.00000  Uiso   1.00
C480   C     0.02136   0.73988   0.45686   0.00000  Uiso   1.00
C481   C     0.47864   0.92680   0.54312   0.00000  Uiso   1.00
C482   C     0.24754   0.67725   0.47569   0.00000  Uiso   1.00
C483   C     0.25247   0.98942   0.52431   0.00000  Uiso   1.00
C484   C     0.16465   0.83406   0.50121   0.00000  Uiso   1.00
C485   C     0.33535   0.83260   0.49879   0.00000  Uiso   1.00
C486   C     0.40816   0.87840   0.51553   0.00000  Uiso   1.00
Cu487  Cu    0.25501   0.83913   0.56146   0.00000  Uiso   1.00
Cu488  Cu    0.24500   0.82754   0.43854   0.00000  Uiso   1.00
H489   H     0.39118   0.91474   0.53064   0.00000  Uiso   1.00
H490   H     0.10882   0.75193   0.46931   0.00000  Uiso   1.00
H491   H     0.03894   0.70450   0.43931   0.00000  Uiso   1.00
H492   H     0.46105   0.96217   0.56066   0.00000  Uiso   1.00
H493   H     0.24307   0.98669   0.42884   0.00000  Uiso   1.00
H494   H     0.25694   0.67998   0.57116   0.00000  Uiso   1.00
H495   H     0.21513   0.79274   0.64960   0.00000  Uiso   1.00
H496   H     0.28487   0.87393   0.35040   0.00000  Uiso   1.00
N497   N     0.23745   0.81881   0.34617   0.00000  Uiso   1.00
N498   N     0.26256   0.84786   0.65383   0.00000  Uiso   1.00
O499   O     0.25326   0.76204   0.53992   0.00000  Uiso   1.00
O500   O     0.24675   0.90462   0.46008   0.00000  Uiso   1.00
O501   O     0.24480   0.75226   0.43612   0.00000  Uiso   1.00
O502   O     0.25520   0.91441   0.56388   0.00000  Uiso   1.00
O503   O     0.18936   0.83821   0.55191   0.00000  Uiso   1.00
O504   O     0.31065   0.82845   0.44809   0.00000  Uiso   1.00
O505   O     0.18090   0.82843   0.44810   0.00000  Uiso   1.00
O506   O     0.31910   0.83824   0.55190   0.00000  Uiso   1.00
Br507  Br    0.86583   0.71921   0.46793   0.00000  Uiso   1.00
Br508  Br    0.63419   0.94748   0.53223   0.00000  Uiso   1.00
Br509  Br    0.94977   0.67060   0.40226   0.00000  Uiso   1.00
Br510  Br    0.55021   0.99608   0.59776   0.00000  Uiso   1.00
C511   C     0.74833   0.73325   0.48445   0.00000  Uiso   1.00
C512   C     0.59183   0.78827   0.48443   0.00000  Uiso   1.00
C513   C     0.88331   0.83093   0.49600   0.00000  Uiso   1.00
C514   C     0.61669   0.83574   0.50400   0.00000  Uiso   1.00
C515   C     0.90386   0.78271   0.47745   0.00000  Uiso   1.00
C516   C     0.59615   0.88397   0.52259   0.00000  Uiso   1.00
C517   C     0.95117   0.78300   0.47501   0.00000  Uiso   1.00
C518   C     0.54884   0.88367   0.52501   0.00000  Uiso   1.00
C519   C     0.97638   0.83216   0.49828   0.00000  Uiso   1.00
C520   C     0.52362   0.83452   0.50172   0.00000  Uiso   1.00
C521   C     0.95442   0.87924   0.51835   0.00000  Uiso   1.00
C522   C     0.75167   0.93342   0.51555   0.00000  Uiso   1.00
C523   C     0.54558   0.78744   0.48163   0.00000  Uiso   1.00
C524   C     0.97487   0.73717   0.45140   0.00000  Uiso   1.00
C525   C     0.52513   0.92951   0.54861   0.00000  Uiso   1.00
C526   C     0.52136   0.73988   0.45686   0.00000  Uiso   1.00
C527   C     0.97864   0.92680   0.54312   0.00000  Uiso   1.00
C528   C     0.74754   0.67725   0.47569   0.00000  Uiso   1.00
C529   C     0.75247   0.98942   0.52431   0.00000  Uiso   1.00
C530   C     0.66465   0.83406   0.50121   0.00000  Uiso   1.00
C531   C     0.83535   0.83260   0.49879   0.00000  Uiso   1.00
C532   C     0.90816   0.87840   0.51553   0.00000  Uiso   1.00
Cu533  Cu    0.75501   0.83913   0.56146   0.00000  Uiso   1.00
Cu534  Cu    0.74500   0.82754   0.43854   0.00000  Uiso   1.00
H535   H     0.89118   0.91474   0.53064   0.00000  Uiso   1.00
H536   H     0.60882   0.75193   0.46931   0.00000  Uiso   1.00
H537   H     0.53894   0.70450   0.43931   0.00000  Uiso   1.00
H538   H     0.96105   0.96217   0.56066   0.00000  Uiso   1.00
H539   H     0.74307   0.98669   0.42884   0.00000  Uiso   1.00
H540   H     0.75694   0.67998   0.57116   0.00000  Uiso   1.00
H541   H     0.71513   0.79274   0.64960   0.00000  Uiso   1.00
H542   H     0.78487   0.87393   0.35040   0.00000  Uiso   1.00
N543   N     0.73745   0.81881   0.34617   0.00000  Uiso   1.00
N544   N     0.76256   0.84786   0.65383   0.00000  Uiso   1.00
O545   O     0.75326   0.76204   0.53992   0.00000  Uiso   1.00
O546   O     0.74675   0.90462   0.46008   0.00000  Uiso   1.00
O547   O     0.74480   0.75226   0.43612   0.00000  Uiso   1.00
O548   O     0.75520   0.91441   0.56388   0.00000  Uiso   1.00
O549   O     0.68936   0.83821   0.55191   0.00000  Uiso   1.00
O550   O     0.81065   0.82845   0.44809   0.00000  Uiso   1.00
O551   O     0.68090   0.82843   0.44810   0.00000  Uiso   1.00
O552   O     0.81910   0.83824   0.55190   0.00000  Uiso   1.00
Br553  Br    0.36583   0.05255   0.80126   0.00000  Uiso   1.00
Br554  Br    0.13419   0.28081   0.86556   0.00000  Uiso   1.00
Br555  Br    0.44977   0.00394   0.73559   0.00000  Uiso   1.00
Br556  Br    0.05021   0.32941   0.93109   0.00000  Uiso   1.00
C557   C     0.24833   0.06658   0.81778   0.00000  Uiso   1.00
C558   C     0.09183   0.12161   0.81777   0.00000  Uiso   1.00
C559   C     0.38331   0.16426   0.82933   0.00000  Uiso   1.00
C560   C     0.11669   0.16908   0.83733   0.00000  Uiso   1.00
C561   C     0.40386   0.11604   0.81078   0.00000  Uiso   1.00
C562   C     0.09615   0.21730   0.85592   0.00000  Uiso   1.00
C563   C     0.45117   0.11634   0.80834   0.00000  Uiso   1.00
C564   C     0.04884   0.21700   0.85834   0.00000  Uiso   1.00
C565   C     0.47638   0.16549   0.83161   0.00000  Uiso   1.00
C566   C     0.02362   0.16785   0.83505   0.00000  Uiso   1.00
C567   C     0.45442   0.21257   0.85168   0.00000  Uiso   1.00
C568   C     0.25167   0.26675   0.84888   0.00000  Uiso   1.00
C569   C     0.04558   0.12077   0.81496   0.00000  Uiso   1.00
C570   C     0.47487   0.07050   0.78473   0.00000  Uiso   1.00
C571   C     0.02513   0.26284   0.88194   0.00000  Uiso   1.00
C572   C     0.02136   0.07321   0.79019   0.00000  Uiso   1.00
C573   C     0.47864   0.26013   0.87646   0.00000  Uiso   1.00
C574   C     0.24754   0.01058   0.80903   0.00000  Uiso   1.00
C575   C     0.25247   0.32275   0.85764   0.00000  Uiso   1.00
C576   C     0.16465   0.16740   0.83454   0.00000  Uiso   1.00
C577   C     0.33535   0.16594   0.83212   0.00000  Uiso   1.00
C578   C     0.40816   0.21173   0.84887   0.00000  Uiso   1.00
Cu579  Cu    0.25501   0.17246   0.89479   0.00000  Uiso   1.00
Cu580  Cu    0.24500   0.16087   0.77187   0.00000  Uiso   1.00
H581   H     0.39118   0.24807   0.86397   0.00000  Uiso   1.00
H582   H     0.10882   0.08527   0.80265   0.00000  Uiso   1.00
H583   H     0.03894   0.03783   0.77264   0.00000  Uiso   1.00
H584   H     0.46105   0.29550   0.89400   0.00000  Uiso   1.00
H585   H     0.24307   0.32002   0.76218   0.00000  Uiso   1.00
H586   H     0.25694   0.01331   0.90449   0.00000  Uiso   1.00
H587   H     0.21513   0.12607   0.98293   0.00000  Uiso   1.00
H588   H     0.28487   0.20726   0.68374   0.00000  Uiso   1.00
N589   N     0.23745   0.15214   0.67951   0.00000  Uiso   1.00
N590   N     0.26256   0.18119   0.98716   0.00000  Uiso   1.00
O591   O     0.25326   0.09538   0.87326   0.00000  Uiso   1.00
O592   O     0.24675   0.23796   0.79341   0.00000  Uiso   1.00
O593   O     0.24480   0.08559   0.76945   0.00000  Uiso   1.00
O594   O     0.25520   0.24774   0.89721   0.00000  Uiso   1.00
O595   O     0.18936   0.17155   0.88524   0.00000  Uiso   1.00
O596   O     0.31065   0.16179   0.78143   0.00000  Uiso   1.00
O597   O     0.18090   0.16176   0.78143   0.00000  Uiso   1.00
O598   O     0.31910   0.17157   0.88523   0.00000  Uiso   1.00
Br599  Br    0.86583   0.05255   0.80126   0.00000  Uiso   1.00
Br600  Br    0.63419   0.28081   0.86556   0.00000  Uiso   1.00
Br601  Br    0.94977   0.00394   0.73559   0.00000  Uiso   1.00
Br602  Br    0.55021   0.32941   0.93109   0.00000  Uiso   1.00
C603   C     0.74833   0.06658   0.81778   0.00000  Uiso   1.00
C604   C     0.59183   0.12161   0.81777   0.00000  Uiso   1.00
C605   C     0.88331   0.16426   0.82933   0.00000  Uiso   1.00
C606   C     0.61669   0.16908   0.83733   0.00000  Uiso   1.00
C607   C     0.90386   0.11604   0.81078   0.00000  Uiso   1.00
C608   C     0.59615   0.21730   0.85592   0.00000  Uiso   1.00
C609   C     0.95117   0.11634   0.80834   0.00000  Uiso   1.00
C610   C     0.54884   0.21700   0.85834   0.00000  Uiso   1.00
C611   C     0.97638   0.16549   0.83161   0.00000  Uiso   1.00
C612   C     0.52362   0.16785   0.83505   0.00000  Uiso   1.00
C613   C     0.95442   0.21257   0.85168   0.00000  Uiso   1.00
C614   C     0.75167   0.26675   0.84888   0.00000  Uiso   1.00
C615   C     0.54558   0.12077   0.81496   0.00000  Uiso   1.00
C616   C     0.97487   0.07050   0.78473   0.00000  Uiso   1.00
C617   C     0.52513   0.26284   0.88194   0.00000  Uiso   1.00
C618   C     0.52136   0.07321   0.79019   0.00000  Uiso   1.00
C619   C     0.97864   0.26013   0.87646   0.00000  Uiso   1.00
C620   C     0.74754   0.01058   0.80903   0.00000  Uiso   1.00
C621   C     0.75247   0.32275   0.85764   0.00000  Uiso   1.00
C622   C     0.66465   0.16740   0.83454   0.00000  Uiso   1.00
C623   C     0.83535   0.16594   0.83212   0.00000  Uiso   1.00
C624   C     0.90816   0.21173   0.84887   0.00000  Uiso   1.00
Cu625  Cu    0.75501   0.17246   0.89479   0.00000  Uiso   1.00
Cu626  Cu    0.74500   0.16087   0.77187   0.00000  Uiso   1.00
H627   H     0.89118   0.24807   0.86397   0.00000  Uiso   1.00
H628   H     0.60882   0.08527   0.80265   0.00000  Uiso   1.00
H629   H     0.53894   0.03783   0.77264   0.00000  Uiso   1.00
H630   H     0.96105   0.29550   0.89400   0.00000  Uiso   1.00
H631   H     0.74307   0.32002   0.76218   0.00000  Uiso   1.00
H632   H     0.75694   0.01331   0.90449   0.00000  Uiso   1.00
H633   H     0.71513   0.12607   0.98293   0.00000  Uiso   1.00
H634   H     0.78487   0.20726   0.68374   0.00000  Uiso   1.00
N635   N     0.73745   0.15214   0.67951   0.00000  Uiso   1.00
N636   N     0.76256   0.18119   0.98716   0.00000  Uiso   1.00
O637   O     0.75326   0.09538   0.87326   0.00000  Uiso   1.00
O638   O     0.74675   0.23796   0.79341   0.00000  Uiso   1.00
O639   O     0.74480   0.08559   0.76945   0.00000  Uiso   1.00
O640   O     0.75520   0.24774   0.89721   0.00000  Uiso   1.00
O641   O     0.68936   0.17155   0.88524   0.00000  Uiso   1.00
O642   O     0.81065   0.16179   0.78143   0.00000  Uiso   1.00
O643   O     0.68090   0.16176   0.78143   0.00000  Uiso   1.00
O644   O     0.81910   0.17157   0.88523   0.00000  Uiso   1.00
Br645  Br    0.36583   0.38588   0.80126   0.00000  Uiso   1.00
Br646  Br    0.13419   0.61415   0.86556   0.00000  Uiso   1.00
Br647  Br    0.44977   0.33727   0.73559   0.00000  Uiso   1.00
Br648  Br    0.05021   0.66274   0.93109   0.00000  Uiso   1.00
C649   C     0.24833   0.39991   0.81778   0.00000  Uiso   1.00
C650   C     0.09183   0.45494   0.81777   0.00000  Uiso   1.00
C651   C     0.38331   0.49759   0.82933   0.00000  Uiso   1.00
C652   C     0.11669   0.50241   0.83733   0.00000  Uiso   1.00
C653   C     0.40386   0.44938   0.81078   0.00000  Uiso   1.00
C654   C     0.09615   0.55063   0.85592   0.00000  Uiso   1.00
C655   C     0.45117   0.44967   0.80834   0.00000  Uiso   1.00
C656   C     0.04884   0.55034   0.85834   0.00000  Uiso   1.00
C657   C     0.47638   0.49882   0.83161   0.00000  Uiso   1.00
C658   C     0.02362   0.50119   0.83505   0.00000  Uiso   1.00
C659   C     0.45442   0.54590   0.85168   0.00000  Uiso   1.00
C660   C     0.25167   0.60009   0.84888   0.00000  Uiso   1.00
C661   C     0.04558   0.45410   0.81496   0.00000  Uiso   1.00
C662   C     0.47487   0.40383   0.78473   0.00000  Uiso   1.00
C663   C     0.02513   0.59618   0.88194   0.00000  Uiso   1.00
C664   C     0.02136   0.40654   0.79019   0.00000  Uiso   1.00
C665   C     0.47864   0.59346   0.87646   0.00000  Uiso   1.00
C666   C     0.24754   0.34392   0.80903   0.00000  Uiso   1.00
C667   C     0.25247   0.65608   0.85764   0.00000  Uiso   1.00
C668   C     0.16465   0.50073   0.83454   0.00000  Uiso   1.00
C669   C     0.33535   0.49927   0.83212   0.00000  Uiso   1.00
C670   C     0.40816   0.54506   0.84887   0.00000  Uiso   1.00
Cu671  Cu    0.25501   0.50579   0.89479   0.00000  Uiso   1.00
Cu672  Cu    0.24500   0.49421   0.77187   0.00000  Uiso   1.00
H673   H     0.39118   0.58140   0.86397   0.00000  Uiso   1.00
H674   H     0.10882   0.41860   0.80265   0.00000  Uiso   1.00
H675   H     0.03894   0.37117   0.77264   0.00000  Uiso   1.00
H676   H     0.46105   0.62884   0.89400   0.00000  Uiso   1.00
H677   H     0.24307   0.65336   0.76218   0.00000  Uiso   1.00
H678   H     0.25694   0.34664   0.90449   0.00000  Uiso   1.00
H679   H     0.21513   0.45941   0.98293   0.00000  Uiso   1.00
H680   H     0.28487   0.54059   0.68374   0.00000  Uiso   1.00
N681   N     0.23745   0.48547   0.67951   0.00000  Uiso   1.00
N682   N     0.26256   0.51453   0.98716   0.00000  Uiso   1.00
O683   O     0.25326   0.42871   0.87326   0.00000  Uiso   1.00
O684   O     0.24675   0.57129   0.79341   0.00000  Uiso   1.00
O685   O     0.24480   0.41892   0.76945   0.00000  Uiso   1.00
O686   O     0.25520   0.58108   0.89721   0.00000  Uiso   1.00
O687   O     0.18936   0.50488   0.88524   0.00000  Uiso   1.00
O688   O     0.31065   0.49512   0.78143   0.00000  Uiso   1.00
O689   O     0.18090   0.49510   0.78143   0.00000  Uiso   1.00
O690   O     0.31910   0.50490   0.88523   0.00000  Uiso   1.00
Br691  Br    0.86583   0.38588   0.80126   0.00000  Uiso   1.00
Br692  Br    0.63419   0.61415   0.86556   0.00000  Uiso   1.00
Br693  Br    0.94977   0.33727   0.73559   0.00000  Uiso   1.00
Br694  Br    0.55021   0.66274   0.93109   0.00000  Uiso   1.00
C695   C     0.74833   0.39991   0.81778   0.00000  Uiso   1.00
C696   C     0.59183   0.45494   0.81777   0.00000  Uiso   1.00
C697   C     0.88331   0.49759   0.82933   0.00000  Uiso   1.00
C698   C     0.61669   0.50241   0.83733   0.00000  Uiso   1.00
C699   C     0.90386   0.44938   0.81078   0.00000  Uiso   1.00
C700   C     0.59615   0.55063   0.85592   0.00000  Uiso   1.00
C701   C     0.95117   0.44967   0.80834   0.00000  Uiso   1.00
C702   C     0.54884   0.55034   0.85834   0.00000  Uiso   1.00
C703   C     0.97638   0.49882   0.83161   0.00000  Uiso   1.00
C704   C     0.52362   0.50119   0.83505   0.00000  Uiso   1.00
C705   C     0.95442   0.54590   0.85168   0.00000  Uiso   1.00
C706   C     0.75167   0.60009   0.84888   0.00000  Uiso   1.00
C707   C     0.54558   0.45410   0.81496   0.00000  Uiso   1.00
C708   C     0.97487   0.40383   0.78473   0.00000  Uiso   1.00
C709   C     0.52513   0.59618   0.88194   0.00000  Uiso   1.00
C710   C     0.52136   0.40654   0.79019   0.00000  Uiso   1.00
C711   C     0.97864   0.59346   0.87646   0.00000  Uiso   1.00
C712   C     0.74754   0.34392   0.80903   0.00000  Uiso   1.00
C713   C     0.75247   0.65608   0.85764   0.00000  Uiso   1.00
C714   C     0.66465   0.50073   0.83454   0.00000  Uiso   1.00
C715   C     0.83535   0.49927   0.83212   0.00000  Uiso   1.00
C716   C     0.90816   0.54506   0.84887   0.00000  Uiso   1.00
Cu717  Cu    0.75501   0.50579   0.89479   0.00000  Uiso   1.00
Cu718  Cu    0.74500   0.49421   0.77187   0.00000  Uiso   1.00
H719   H     0.89118   0.58140   0.86397   0.00000  Uiso   1.00
H720   H     0.60882   0.41860   0.80265   0.00000  Uiso   1.00
H721   H     0.53894   0.37117   0.77264   0.00000  Uiso   1.00
H722   H     0.96105   0.62884   0.89400   0.00000  Uiso   1.00
H723   H     0.74307   0.65336   0.76218   0.00000  Uiso   1.00
H724   H     0.75694   0.34664   0.90449   0.00000  Uiso   1.00
H725   H     0.71513   0.45941   0.98293   0.00000  Uiso   1.00
H726   H     0.78487   0.54059   0.68374   0.00000  Uiso   1.00
N727   N     0.73745   0.48547   0.67951   0.00000  Uiso   1.00
N728   N     0.76256   0.51453   0.98716   0.00000  Uiso   1.00
O729   O     0.75326   0.42871   0.87326   0.00000  Uiso   1.00
O730   O     0.74675   0.57129   0.79341   0.00000  Uiso   1.00
O731   O     0.74480   0.41892   0.76945   0.00000  Uiso   1.00
O732   O     0.75520   0.58108   0.89721   0.00000  Uiso   1.00
O733   O     0.68936   0.50488   0.88524   0.00000  Uiso   1.00
O734   O     0.81065   0.49512   0.78143   0.00000  Uiso   1.00
O735   O     0.68090   0.49510   0.78143   0.00000  Uiso   1.00
O736   O     0.81910   0.50490   0.88523   0.00000  Uiso   1.00
Br737  Br    0.36583   0.71921   0.80126   0.00000  Uiso   1.00
Br738  Br    0.13419   0.94748   0.86556   0.00000  Uiso   1.00
Br739  Br    0.44977   0.67060   0.73559   0.00000  Uiso   1.00
Br740  Br    0.05021   0.99608   0.93109   0.00000  Uiso   1.00
C741   C     0.24833   0.73325   0.81778   0.00000  Uiso   1.00
C742   C     0.09183   0.78827   0.81777   0.00000  Uiso   1.00
C743   C     0.38331   0.83093   0.82933   0.00000  Uiso   1.00
C744   C     0.11669   0.83574   0.83733   0.00000  Uiso   1.00
C745   C     0.40386   0.78271   0.81078   0.00000  Uiso   1.00
C746   C     0.09615   0.88397   0.85592   0.00000  Uiso   1.00
C747   C     0.45117   0.78300   0.80834   0.00000  Uiso   1.00
C748   C     0.04884   0.88367   0.85834   0.00000  Uiso   1.00
C749   C     0.47638   0.83216   0.83161   0.00000  Uiso   1.00
C750   C     0.02362   0.83452   0.83505   0.00000  Uiso   1.00
C751   C     0.45442   0.87924   0.85168   0.00000  Uiso   1.00
C752   C     0.25167   0.93342   0.84888   0.00000  Uiso   1.00
C753   C     0.04558   0.78744   0.81496   0.00000  Uiso   1.00
C754   C     0.47487   0.73717   0.78473   0.00000  Uiso   1.00
C755   C     0.02513   0.92951   0.88194   0.00000  Uiso   1.00
C756   C     0.02136   0.73988   0.79019   0.00000  Uiso   1.00
C757   C     0.47864   0.92680   0.87646   0.00000  Uiso   1.00
C758   C     0.24754   0.67725   0.80903   0.00000  Uiso   1.00
C759   C     0.25247   0.98942   0.85764   0.00000  Uiso   1.00
C760   C     0.16465   0.83406   0.83454   0.00000  Uiso   1.00
C761   C     0.33535   0.83260   0.83212   0.00000  Uiso   1.00
C762   C     0.40816   0.87840   0.84887   0.00000  Uiso   1.00
Cu763  Cu    0.25501   0.83913   0.89479   0.00000  Uiso   1.00
Cu764  Cu    0.24500   0.82754   0.77187   0.00000  Uiso   1.00
H765   H     0.39118   0.91474   0.86397   0.00000  Uiso   1.00
H766   H     0.10882   0.75193   0.80265   0.00000  Uiso   1.00
H767   H     0.03894   0.70450   0.77264   0.00000  Uiso   1.00
H768   H     0.46105   0.96217   0.89400   0.00000  Uiso   1.00
H769   H     0.24307   0.98669   0.76218   0.00000  Uiso   1.00
H770   H     0.25694   0.67998   0.90449   0.00000  Uiso   1.00
H771   H     0.21513   0.79274   0.98293   0.00000  Uiso   1.00
H772   H     0.28487   0.87393   0.68374   0.00000  Uiso   1.00
N773   N     0.23745   0.81881   0.67951   0.00000  Uiso   1.00
N774   N     0.26256   0.84786   0.98716   0.00000  Uiso   1.00
O775   O     0.25326   0.76204   0.87326   0.00000  Uiso   1.00
O776   O     0.24675   0.90462   0.79341   0.00000  Uiso   1.00
O777   O     0.24480   0.75226   0.76945   0.00000  Uiso   1.00
O778   O     0.25520   0.91441   0.89721   0.00000  Uiso   1.00
O779   O     0.18936   0.83821   0.88524   0.00000  Uiso   1.00
O780   O     0.31065   0.82845   0.78143   0.00000  Uiso   1.00
O781   O     0.18090   0.82843   0.78143   0.00000  Uiso   1.00
O782   O     0.31910   0.83824   0.88523   0.00000  Uiso   1.00
Br783  Br    0.86583   0.71921   0.80126   0.00000  Uiso   1.00
Br784  Br    0.63419   0.94748   0.86556   0.00000  Uiso   1.00
Br785  Br    0.94977   0.67060   0.73559   0.00000  Uiso   1.00
Br786  Br    0.55021   0.99608   0.93109   0.00000  Uiso   1.00
C787   C     0.74833   0.73325   0.81778   0.00000  Uiso   1.00
C788   C     0.59183   0.78827   0.81777   0.00000  Uiso   1.00
C789   C     0.88331   0.83093   0.82933   0.00000  Uiso   1.00
C790   C     0.61669   0.83574   0.83733   0.00000  Uiso   1.00
C791   C     0.90386   0.78271   0.81078   0.00000  Uiso   1.00
C792   C     0.59615   0.88397   0.85592   0.00000  Uiso   1.00
C793   C     0.95117   0.78300   0.80834   0.00000  Uiso   1.00
C794   C     0.54884   0.88367   0.85834   0.00000  Uiso   1.00
C795   C     0.97638   0.83216   0.83161   0.00000  Uiso   1.00
C796   C     0.52362   0.83452   0.83505   0.00000  Uiso   1.00
C797   C     0.95442   0.87924   0.85168   0.00000  Uiso   1.00
C798   C     0.75167   0.93342   0.84888   0.00000  Uiso   1.00
C799   C     0.54558   0.78744   0.81496   0.00000  Uiso   1.00
C800   C     0.97487   0.73717   0.78473   0.00000  Uiso   1.00
C801   C     0.52513   0.92951   0.88194   0.00000  Uiso   1.00
C802   C     0.52136   0.73988   0.79019   0.00000  Uiso   1.00
C803   C     0.97864   0.92680   0.87646   0.00000  Uiso   1.00
C804   C     0.74754   0.67725   0.80903   0.00000  Uiso   1.00
C805   C     0.75247   0.98942   0.85764   0.00000  Uiso   1.00
C806   C     0.66465   0.83406   0.83454   0.00000  Uiso   1.00
C807   C     0.83535   0.83260   0.83212   0.00000  Uiso   1.00
C808   C     0.90816   0.87840   0.84887   0.00000  Uiso   1.00
Cu809  Cu    0.75501   0.83913   0.89479   0.00000  Uiso   1.00
Cu810  Cu    0.74500   0.82754   0.77187   0.00000  Uiso   1.00
H811   H     0.89118   0.91474   0.86397   0.00000  Uiso   1.00
H812   H     0.60882   0.75193   0.80265   0.00000  Uiso   1.00
H813   H     0.53894   0.70450   0.77264   0.00000  Uiso   1.00
H814   H     0.96105   0.96217   0.89400   0.00000  Uiso   1.00
H815   H     0.74307   0.98669   0.76218   0.00000  Uiso   1.00
H816   H     0.75694   0.67998   0.90449   0.00000  Uiso   1.00
H817   H     0.71513   0.79274   0.98293   0.00000  Uiso   1.00
H818   H     0.78487   0.87393   0.68374   0.00000  Uiso   1.00
N819   N     0.73745   0.81881   0.67951   0.00000  Uiso   1.00
N820   N     0.76256   0.84786   0.98716   0.00000  Uiso   1.00
O821   O     0.75326   0.76204   0.87326   0.00000  Uiso   1.00
O822   O     0.74675   0.90462   0.79341   0.00000  Uiso   1.00
O823   O     0.74480   0.75226   0.76945   0.00000  Uiso   1.00
O824   O     0.75520   0.91441   0.89721   0.00000  Uiso   1.00
O825   O     0.68936   0.83821   0.88524   0.00000  Uiso   1.00
O826   O     0.81065   0.82845   0.78143   0.00000  Uiso   1.00
O827   O     0.68090   0.82843   0.78143   0.00000  Uiso   1.00
O828   O     0.81910   0.83824   0.88523   0.00000  Uiso   1.00
loop_
_geom_bond_atom_site_label_1
_geom_bond_atom_site_label_2
_geom_bond_distance
_geom_bond_site_symmetry_2
_ccdc_geom_bond_type
Br1    C9      1.935   .     S
Br2    C10     1.935   .     S
Br3    C18     1.927   .     S
Br4    C19     1.927   .     S
C5     O39     1.292   .     A
C5     O41     1.284   .     A
C5     C22     1.424   .     S
C6     H30     1.086   .     S
C6     C17     1.383   .     A
C6     C8      1.385   .     A
C7     C26     1.385   .     A
C7     C25     1.445   .     S
C7     C9      1.407   .     A
C8     C10     1.407   .     A
C8     C24     1.445   .     S
C9     C11     1.423   .     A
C10    C12     1.423   .     A
C11    C18     1.425   .     A
C11    C13     1.434   .     A
C12    C19     1.425   .     A
C12    C14     1.434   .     A
C13    C15     1.408   .     A
C13    C60     1.412   .     S
C14    C17     1.408   .     A
C14    C59     1.412   1_455 S
C15    C21     1.392   .     A
C15    C26     1.383   .     A
C16    O40     1.292   .     A
C16    C23     1.424   .     S
C16    O42     1.284   .     A
C17    C20     1.392   .     A
C18    C66     1.389   .     S
C19    C67     1.389   1_455 S
C20    H31     1.085   .     S
C20    C64     1.389   1_455 S
C21    H32     1.085   .     S
C21    C65     1.389   .     S
C22    C207    1.325   1_545 S
C22    H217    1.088   1_545 S
C23    C114    1.325   .     S
C23    H126    1.088   .     S
C24    O45     1.292   .     A
C24    O43     1.293   .     A
C25    O44     1.293   .     A
C25    O46     1.292   .     A
C26    H29     1.086   .     S
Cu27   O43     1.965   .     S
Cu27   O42     1.945   .     S
Cu27   N38     2.021   .     S
Cu27   O46     1.948   .     S
Cu27   Cu28    2.690   .     S
Cu27   O39     1.951   .     S
Cu28   N37     2.021   .     S
Cu28   O45     1.948   .     S
Cu28   O40     1.951   .     S
Cu28   O41     1.945   .     S
Cu28   O44     1.965   .     S
H33    C114    1.088   .     S
H34    C207    1.088   1_545 S
H35    N313    1.029   .     S
H36    N590    1.029   1_554 S
N37    H587    1.029   1_554 S
N37    N590    1.294   1_554 S
N38    N313    1.294   .     S
N38    H312    1.029   .     S
Br47   C55     1.935   .     S
Br48   C56     1.935   .     S
Br49   C64     1.927   .     S
Br50   C65     1.927   .     S
C51    O85     1.292   .     A
C51    O87     1.284   .     A
C51    C68     1.424   .     S
C52    H76     1.086   .     S
C52    C63     1.383   .     A
C52    C54     1.385   .     A
C53    C72     1.385   .     A
C53    C71     1.445   .     S
C53    C55     1.407   .     A
C54    C56     1.407   .     A
C54    C70     1.445   .     S
C55    C57     1.423   .     A
C56    C58     1.423   .     A
C57    C64     1.425   .     A
C57    C59     1.434   .     A
C58    C65     1.425   .     A
C58    C60     1.434   .     A
C59    C61     1.408   .     A
C59    C14     1.412   1_655 S
C60    C63     1.408   .     A
C61    C67     1.392   .     A
C61    C72     1.383   .     A
C62    O86     1.292   .     A
C62    C69     1.424   .     S
C62    O88     1.284   .     A
C63    C66     1.392   .     A
C64    C20     1.389   1_655 S
C66    H77     1.085   .     S
C67    H78     1.085   .     S
C67    C19     1.389   1_655 S
C68    C253    1.325   1_545 S
C68    H263    1.088   1_545 S
C69    C160    1.325   .     S
C69    H172    1.088   .     S
C70    O91     1.292   .     A
C70    O89     1.293   .     A
C71    O90     1.293   .     A
C71    O92     1.292   .     A
C72    H75     1.086   .     S
Cu73   O89     1.965   .     S
Cu73   O88     1.945   .     S
Cu73   N84     2.021   .     S
Cu73   O92     1.948   .     S
Cu73   Cu74    2.690   .     S
Cu73   O85     1.951   .     S
Cu74   N83     2.021   .     S
Cu74   O91     1.948   .     S
Cu74   O86     1.951   .     S
Cu74   O87     1.945   .     S
Cu74   O90     1.965   .     S
H79    C160    1.088   .     S
H80    C253    1.088   1_545 S
H81    N359    1.029   .     S
H82    N636    1.029   1_554 S
N83    H633    1.029   1_554 S
N83    N636    1.294   1_554 S
N84    N359    1.294   .     S
N84    H358    1.029   .     S
Br93   C101    1.935   .     S
Br94   C102    1.935   .     S
Br95   C110    1.927   .     S
Br96   C111    1.927   .     S
C97    O131    1.292   .     A
C97    O133    1.284   .     A
C97    C114    1.424   .     S
C98    H122    1.086   .     S
C98    C109    1.383   .     A
C98    C100    1.385   .     A
C99    C118    1.385   .     A
C99    C117    1.445   .     S
C99    C101    1.407   .     A
C100   C102    1.407   .     A
C100   C116    1.445   .     S
C101   C103    1.423   .     A
C102   C104    1.423   .     A
C103   C110    1.425   .     A
C103   C105    1.434   .     A
C104   C111    1.425   .     A
C104   C106    1.434   .     A
C105   C107    1.408   .     A
C105   C152    1.412   .     S
C106   C109    1.408   .     A
C106   C151    1.412   1_455 S
C107   C113    1.392   .     A
C107   C118    1.383   .     A
C108   O132    1.292   .     A
C108   C115    1.424   .     S
C108   O134    1.284   .     A
C109   C112    1.392   .     A
C110   C158    1.389   .     S
C111   C159    1.389   1_455 S
C112   H123    1.085   .     S
C112   C156    1.389   1_455 S
C113   H124    1.085   .     S
C113   C157    1.389   .     S
C115   C206    1.325   .     S
C115   H218    1.088   .     S
C116   O137    1.292   .     A
C116   O135    1.293   .     A
C117   O136    1.293   .     A
C117   O138    1.292   .     A
C118   H121    1.086   .     S
Cu119  O135    1.965   .     S
Cu119  O134    1.945   .     S
Cu119  N130    2.021   .     S
Cu119  O138    1.948   .     S
Cu119  Cu120   2.690   .     S
Cu119  O131    1.951   .     S
Cu120  N129    2.021   .     S
Cu120  O137    1.948   .     S
Cu120  O132    1.951   .     S
Cu120  O133    1.945   .     S
Cu120  O136    1.965   .     S
H125   C206    1.088   .     S
H127   N405    1.029   .     S
H128   N682    1.029   1_554 S
N129   H679    1.029   1_554 S
N129   N682    1.294   1_554 S
N130   N405    1.294   .     S
N130   H404    1.029   .     S
Br139  C147    1.935   .     S
Br140  C148    1.935   .     S
Br141  C156    1.927   .     S
Br142  C157    1.927   .     S
C143   O177    1.292   .     A
C143   O179    1.284   .     A
C143   C160    1.424   .     S
C144   H168    1.086   .     S
C144   C155    1.383   .     A
C144   C146    1.385   .     A
C145   C164    1.385   .     A
C145   C163    1.445   .     S
C145   C147    1.407   .     A
C146   C148    1.407   .     A
C146   C162    1.445   .     S
C147   C149    1.423   .     A
C148   C150    1.423   .     A
C149   C156    1.425   .     A
C149   C151    1.434   .     A
C150   C157    1.425   .     A
C150   C152    1.434   .     A
C151   C153    1.408   .     A
C151   C106    1.412   1_655 S
C152   C155    1.408   .     A
C153   C159    1.392   .     A
C153   C164    1.383   .     A
C154   O178    1.292   .     A
C154   C161    1.424   .     S
C154   O180    1.284   .     A
C155   C158    1.392   .     A
C156   C112    1.389   1_655 S
C158   H169    1.085   .     S
C159   H170    1.085   .     S
C159   C111    1.389   1_655 S
C161   C252    1.325   .     S
C161   H264    1.088   .     S
C162   O183    1.292   .     A
C162   O181    1.293   .     A
C163   O182    1.293   .     A
C163   O184    1.292   .     A
C164   H167    1.086   .     S
Cu165  O181    1.965   .     S
Cu165  O180    1.945   .     S
Cu165  N176    2.021   .     S
Cu165  O184    1.948   .     S
Cu165  Cu166   2.690   .     S
Cu165  O177    1.951   .     S
Cu166  N175    2.021   .     S
Cu166  O183    1.948   .     S
Cu166  O178    1.951   .     S
Cu166  O179    1.945   .     S
Cu166  O182    1.965   .     S
H171   C252    1.088   .     S
H173   N451    1.029   .     S
H174   N728    1.029   1_554 S
N175   H725    1.029   1_554 S
N175   N728    1.294   1_554 S
N176   N451    1.294   .     S
N176   H450    1.029   .     S
Br185  C193    1.935   .     S
Br186  C194    1.935   .     S
Br187  C202    1.927   .     S
Br188  C203    1.927   .     S
C189   O223    1.292   .     A
C189   O225    1.284   .     A
C189   C206    1.424   .     S
C190   H214    1.086   .     S
C190   C201    1.383   .     A
C190   C192    1.385   .     A
C191   C210    1.385   .     A
C191   C209    1.445   .     S
C191   C193    1.407   .     A
C192   C194    1.407   .     A
C192   C208    1.445   .     S
C193   C195    1.423   .     A
C194   C196    1.423   .     A
C195   C202    1.425   .     A
C195   C197    1.434   .     A
C196   C203    1.425   .     A
C196   C198    1.434   .     A
C197   C199    1.408   .     A
C197   C244    1.412   .     S
C198   C201    1.408   .     A
C198   C243    1.412   1_455 S
C199   C205    1.392   .     A
C199   C210    1.383   .     A
C200   O224    1.292   .     A
C200   C207    1.424   .     S
C200   O226    1.284   .     A
C201   C204    1.392   .     A
C202   C250    1.389   .     S
C203   C251    1.389   1_455 S
C204   H215    1.085   .     S
C204   C248    1.389   1_455 S
C205   H216    1.085   .     S
C205   C249    1.389   .     S
C207   C22     1.325   1_565 S
C207   H34     1.088   1_565 S
C208   O229    1.292   .     A
C208   O227    1.293   .     A
C209   O228    1.293   .     A
C209   O230    1.292   .     A
C210   H213    1.086   .     S
Cu211  O227    1.965   .     S
Cu211  O226    1.945   .     S
Cu211  N222    2.021   .     S
Cu211  O230    1.948   .     S
Cu211  Cu212   2.690   .     S
Cu211  O223    1.951   .     S
Cu212  N221    2.021   .     S
Cu212  O229    1.948   .     S
Cu212  O224    1.951   .     S
Cu212  O225    1.945   .     S
Cu212  O228    1.965   .     S
H217   C22     1.088   1_565 S
H219   N497    1.029   .     S
H220   N774    1.029   1_554 S
N221   H771    1.029   1_554 S
N221   N774    1.294   1_554 S
N222   N497    1.294   .     S
N222   H496    1.029   .     S
Br231  C239    1.935   .     S
Br232  C240    1.935   .     S
Br233  C248    1.927   .     S
Br234  C249    1.927   .     S
C235   O269    1.292   .     A
C235   O271    1.284   .     A
C235   C252    1.424   .     S
C236   H260    1.086   .     S
C236   C247    1.383   .     A
C236   C238    1.385   .     A
C237   C256    1.385   .     A
C237   C255    1.445   .     S
C237   C239    1.407   .     A
C238   C240    1.407   .     A
C238   C254    1.445   .     S
C239   C241    1.423   .     A
C240   C242    1.423   .     A
C241   C248    1.425   .     A
C241   C243    1.434   .     A
C242   C249    1.425   .     A
C242   C244    1.434   .     A
C243   C245    1.408   .     A
C243   C198    1.412   1_655 S
C244   C247    1.408   .     A
C245   C251    1.392   .     A
C245   C256    1.383   .     A
C246   O270    1.292   .     A
C246   C253    1.424   .     S
C246   O272    1.284   .     A
C247   C250    1.392   .     A
C248   C204    1.389   1_655 S
C250   H261    1.085   .     S
C251   H262    1.085   .     S
C251   C203    1.389   1_655 S
C253   C68     1.325   1_565 S
C253   H80     1.088   1_565 S
C254   O275    1.292   .     A
C254   O273    1.293   .     A
C255   O274    1.293   .     A
C255   O276    1.292   .     A
C256   H259    1.086   .     S
Cu257  O273    1.965   .     S
Cu257  O272    1.945   .     S
Cu257  N268    2.021   .     S
Cu257  O276    1.948   .     S
Cu257  Cu258   2.690   .     S
Cu257  O269    1.951   .     S
Cu258  N267    2.021   .     S
Cu258  O275    1.948   .     S
Cu258  O270    1.951   .     S
Cu258  O271    1.945   .     S
Cu258  O274    1.965   .     S
H263   C68     1.088   1_565 S
H265   N543    1.029   .     S
H266   N820    1.029   1_554 S
N267   H817    1.029   1_554 S
N267   N820    1.294   1_554 S
N268   N543    1.294   .     S
N268   H542    1.029   .     S
Br277  C285    1.935   .     S
Br278  C286    1.935   .     S
Br279  C294    1.927   .     S
Br280  C295    1.927   .     S
C281   O315    1.292   .     A
C281   O317    1.284   .     A
C281   C298    1.424   .     S
C282   H306    1.086   .     S
C282   C293    1.383   .     A
C282   C284    1.385   .     A
C283   C302    1.385   .     A
C283   C301    1.445   .     S
C283   C285    1.407   .     A
C284   C286    1.407   .     A
C284   C300    1.445   .     S
C285   C287    1.423   .     A
C286   C288    1.423   .     A
C287   C294    1.425   .     A
C287   C289    1.434   .     A
C288   C295    1.425   .     A
C288   C290    1.434   .     A
C289   C291    1.408   .     A
C289   C336    1.412   .     S
C290   C293    1.408   .     A
C290   C335    1.412   1_455 S
C291   C297    1.392   .     A
C291   C302    1.383   .     A
C292   O316    1.292   .     A
C292   C299    1.424   .     S
C292   O318    1.284   .     A
C293   C296    1.392   .     A
C294   C342    1.389   .     S
C295   C343    1.389   1_455 S
C296   H307    1.085   .     S
C296   C340    1.389   1_455 S
C297   H308    1.085   .     S
C297   C341    1.389   .     S
C298   C483    1.325   1_545 S
C298   H493    1.088   1_545 S
C299   C390    1.325   .     S
C299   H402    1.088   .     S
C300   O321    1.292   .     A
C300   O319    1.293   .     A
C301   O320    1.293   .     A
C301   O322    1.292   .     A
C302   H305    1.086   .     S
Cu303  O319    1.965   .     S
Cu303  O318    1.945   .     S
Cu303  N314    2.021   .     S
Cu303  O322    1.948   .     S
Cu303  Cu304   2.690   .     S
Cu303  O315    1.951   .     S
Cu304  N313    2.021   .     S
Cu304  O321    1.948   .     S
Cu304  O316    1.951   .     S
Cu304  O317    1.945   .     S
Cu304  O320    1.965   .     S
H309   C390    1.088   .     S
H310   C483    1.088   1_545 S
H311   N589    1.029   .     S
N314   N589    1.294   .     S
N314   H588    1.029   .     S
Br323  C331    1.935   .     S
Br324  C332    1.935   .     S
Br325  C340    1.927   .     S
Br326  C341    1.927   .     S
C327   O361    1.292   .     A
C327   O363    1.284   .     A
C327   C344    1.424   .     S
C328   H352    1.086   .     S
C328   C339    1.383   .     A
C328   C330    1.385   .     A
C329   C348    1.385   .     A
C329   C347    1.445   .     S
C329   C331    1.407   .     A
C330   C332    1.407   .     A
C330   C346    1.445   .     S
C331   C333    1.423   .     A
C332   C334    1.423   .     A
C333   C340    1.425   .     A
C333   C335    1.434   .     A
C334   C341    1.425   .     A
C334   C336    1.434   .     A
C335   C337    1.408   .     A
C335   C290    1.412   1_655 S
C336   C339    1.408   .     A
C337   C343    1.392   .     A
C337   C348    1.383   .     A
C338   O362    1.292   .     A
C338   C345    1.424   .     S
C338   O364    1.284   .     A
C339   C342    1.392   .     A
C340   C296    1.389   1_655 S
C342   H353    1.085   .     S
C343   H354    1.085   .     S
C343   C295    1.389   1_655 S
C344   C529    1.325   1_545 S
C344   H539    1.088   1_545 S
C345   C436    1.325   .     S
C345   H448    1.088   .     S
C346   O367    1.292   .     A
C346   O365    1.293   .     A
C347   O366    1.293   .     A
C347   O368    1.292   .     A
C348   H351    1.086   .     S
Cu349  O365    1.965   .     S
Cu349  O364    1.945   .     S
Cu349  N360    2.021   .     S
Cu349  O368    1.948   .     S
Cu349  Cu350   2.690   .     S
Cu349  O361    1.951   .     S
Cu350  N359    2.021   .     S
Cu350  O367    1.948   .     S
Cu350  O362    1.951   .     S
Cu350  O363    1.945   .     S
Cu350  O366    1.965   .     S
H355   C436    1.088   .     S
H356   C529    1.088   1_545 S
H357   N635    1.029   .     S
N360   N635    1.294   .     S
N360   H634    1.029   .     S
Br369  C377    1.935   .     S
Br370  C378    1.935   .     S
Br371  C386    1.927   .     S
Br372  C387    1.927   .     S
C373   O407    1.292   .     A
C373   O409    1.284   .     A
C373   C390    1.424   .     S
C374   H398    1.086   .     S
C374   C385    1.383   .     A
C374   C376    1.385   .     A
C375   C394    1.385   .     A
C375   C393    1.445   .     S
C375   C377    1.407   .     A
C376   C378    1.407   .     A
C376   C392    1.445   .     S
C377   C379    1.423   .     A
C378   C380    1.423   .     A
C379   C386    1.425   .     A
C379   C381    1.434   .     A
C380   C387    1.425   .     A
C380   C382    1.434   .     A
C381   C383    1.408   .     A
C381   C428    1.412   .     S
C382   C385    1.408   .     A
C382   C427    1.412   1_455 S
C383   C389    1.392   .     A
C383   C394    1.383   .     A
C384   O408    1.292   .     A
C384   C391    1.424   .     S
C384   O410    1.284   .     A
C385   C388    1.392   .     A
C386   C434    1.389   .     S
C387   C435    1.389   1_455 S
C388   H399    1.085   .     S
C388   C432    1.389   1_455 S
C389   H400    1.085   .     S
C389   C433    1.389   .     S
C391   C482    1.325   .     S
C391   H494    1.088   .     S
C392   O413    1.292   .     A
C392   O411    1.293   .     A
C393   O412    1.293   .     A
C393   O414    1.292   .     A
C394   H397    1.086   .     S
Cu395  O411    1.965   .     S
Cu395  O410    1.945   .     S
Cu395  N406    2.021   .     S
Cu395  O414    1.948   .     S
Cu395  Cu396   2.690   .     S
Cu395  O407    1.951   .     S
Cu396  N405    2.021   .     S
Cu396  O413    1.948   .     S
Cu396  O408    1.951   .     S
Cu396  O409    1.945   .     S
Cu396  O412    1.965   .     S
H401   C482    1.088   .     S
H403   N681    1.029   .     S
N406   N681    1.294   .     S
N406   H680    1.029   .     S
Br415  C423    1.935   .     S
Br416  C424    1.935   .     S
Br417  C432    1.927   .     S
Br418  C433    1.927   .     S
C419   O453    1.292   .     A
C419   O455    1.284   .     A
C419   C436    1.424   .     S
C420   H444    1.086   .     S
C420   C431    1.383   .     A
C420   C422    1.385   .     A
C421   C440    1.385   .     A
C421   C439    1.445   .     S
C421   C423    1.407   .     A
C422   C424    1.407   .     A
C422   C438    1.445   .     S
C423   C425    1.423   .     A
C424   C426    1.423   .     A
C425   C432    1.425   .     A
C425   C427    1.434   .     A
C426   C433    1.425   .     A
C426   C428    1.434   .     A
C427   C429    1.408   .     A
C427   C382    1.412   1_655 S
C428   C431    1.408   .     A
C429   C435    1.392   .     A
C429   C440    1.383   .     A
C430   O454    1.292   .     A
C430   C437    1.424   .     S
C430   O456    1.284   .     A
C431   C434    1.392   .     A
C432   C388    1.389   1_655 S
C434   H445    1.085   .     S
C435   H446    1.085   .     S
C435   C387    1.389   1_655 S
C437   C528    1.325   .     S
C437   H540    1.088   .     S
C438   O459    1.292   .     A
C438   O457    1.293   .     A
C439   O458    1.293   .     A
C439   O460    1.292   .     A
C440   H443    1.086   .     S
Cu441  O457    1.965   .     S
Cu441  O456    1.945   .     S
Cu441  N452    2.021   .     S
Cu441  O460    1.948   .     S
Cu441  Cu442   2.690   .     S
Cu441  O453    1.951   .     S
Cu442  N451    2.021   .     S
Cu442  O459    1.948   .     S
Cu442  O454    1.951   .     S
Cu442  O455    1.945   .     S
Cu442  O458    1.965   .     S
H447   C528    1.088   .     S
H449   N727    1.029   .     S
N452   N727    1.294   .     S
N452   H726    1.029   .     S
Br461  C469    1.935   .     S
Br462  C470    1.935   .     S
Br463  C478    1.927   .     S
Br464  C479    1.927   .     S
C465   O499    1.292   .     A
C465   O501    1.284   .     A
C465   C482    1.424   .     S
C466   H490    1.086   .     S
C466   C477    1.383   .     A
C466   C468    1.385   .     A
C467   C486    1.385   .     A
C467   C485    1.445   .     S
C467   C469    1.407   .     A
C468   C470    1.407   .     A
C468   C484    1.445   .     S
C469   C471    1.423   .     A
C470   C472    1.423   .     A
C471   C478    1.425   .     A
C471   C473    1.434   .     A
C472   C479    1.425   .     A
C472   C474    1.434   .     A
C473   C475    1.408   .     A
C473   C520    1.412   .     S
C474   C477    1.408   .     A
C474   C519    1.412   1_455 S
C475   C481    1.392   .     A
C475   C486    1.383   .     A
C476   O500    1.292   .     A
C476   C483    1.424   .     S
C476   O502    1.284   .     A
C477   C480    1.392   .     A
C478   C526    1.389   .     S
C479   C527    1.389   1_455 S
C480   H491    1.085   .     S
C480   C524    1.389   1_455 S
C481   H492    1.085   .     S
C481   C525    1.389   .     S
C483   C298    1.325   1_565 S
C483   H310    1.088   1_565 S
C484   O505    1.292   .     A
C484   O503    1.293   .     A
C485   O504    1.293   .     A
C485   O506    1.292   .     A
C486   H489    1.086   .     S
Cu487  O503    1.965   .     S
Cu487  O502    1.945   .     S
Cu487  N498    2.021   .     S
Cu487  O506    1.948   .     S
Cu487  Cu488   2.690   .     S
Cu487  O499    1.951   .     S
Cu488  N497    2.021   .     S
Cu488  O505    1.948   .     S
Cu488  O500    1.951   .     S
Cu488  O501    1.945   .     S
Cu488  O504    1.965   .     S
H493   C298    1.088   1_565 S
H495   N773    1.029   .     S
N498   N773    1.294   .     S
N498   H772    1.029   .     S
Br507  C515    1.935   .     S
Br508  C516    1.935   .     S
Br509  C524    1.927   .     S
Br510  C525    1.927   .     S
C511   O545    1.292   .     A
C511   O547    1.284   .     A
C511   C528    1.424   .     S
C512   H536    1.086   .     S
C512   C523    1.383   .     A
C512   C514    1.385   .     A
C513   C532    1.385   .     A
C513   C531    1.445   .     S
C513   C515    1.407   .     A
C514   C516    1.407   .     A
C514   C530    1.445   .     S
C515   C517    1.423   .     A
C516   C518    1.423   .     A
C517   C524    1.425   .     A
C517   C519    1.434   .     A
C518   C525    1.425   .     A
C518   C520    1.434   .     A
C519   C521    1.408   .     A
C519   C474    1.412   1_655 S
C520   C523    1.408   .     A
C521   C527    1.392   .     A
C521   C532    1.383   .     A
C522   O546    1.292   .     A
C522   C529    1.424   .     S
C522   O548    1.284   .     A
C523   C526    1.392   .     A
C524   C480    1.389   1_655 S
C526   H537    1.085   .     S
C527   H538    1.085   .     S
C527   C479    1.389   1_655 S
C529   C344    1.325   1_565 S
C529   H356    1.088   1_565 S
C530   O551    1.292   .     A
C530   O549    1.293   .     A
C531   O550    1.293   .     A
C531   O552    1.292   .     A
C532   H535    1.086   .     S
Cu533  O549    1.965   .     S
Cu533  O548    1.945   .     S
Cu533  N544    2.021   .     S
Cu533  O552    1.948   .     S
Cu533  Cu534   2.690   .     S
Cu533  O545    1.951   .     S
Cu534  N543    2.021   .     S
Cu534  O551    1.948   .     S
Cu534  O546    1.951   .     S
Cu534  O547    1.945   .     S
Cu534  O550    1.965   .     S
H539   C344    1.088   1_565 S
H541   N819    1.029   .     S
N544   N819    1.294   .     S
N544   H818    1.029   .     S
Br553  C561    1.935   .     S
Br554  C562    1.935   .     S
Br555  C570    1.927   .     S
Br556  C571    1.927   .     S
C557   O591    1.292   .     A
C557   O593    1.284   .     A
C557   C574    1.424   .     S
C558   H582    1.086   .     S
C558   C569    1.383   .     A
C558   C560    1.385   .     A
C559   C578    1.385   .     A
C559   C577    1.445   .     S
C559   C561    1.407   .     A
C560   C562    1.407   .     A
C560   C576    1.445   .     S
C561   C563    1.423   .     A
C562   C564    1.423   .     A
C563   C570    1.425   .     A
C563   C565    1.434   .     A
C564   C571    1.425   .     A
C564   C566    1.434   .     A
C565   C567    1.408   .     A
C565   C612    1.412   .     S
C566   C569    1.408   .     A
C566   C611    1.412   1_455 S
C567   C573    1.392   .     A
C567   C578    1.383   .     A
C568   O592    1.292   .     A
C568   C575    1.424   .     S
C568   O594    1.284   .     A
C569   C572    1.392   .     A
C570   C618    1.389   .     S
C571   C619    1.389   1_455 S
C572   H583    1.085   .     S
C572   C616    1.389   1_455 S
C573   H584    1.085   .     S
C573   C617    1.389   .     S
C574   C759    1.325   1_545 S
C574   H769    1.088   1_545 S
C575   C666    1.325   .     S
C575   H678    1.088   .     S
C576   O597    1.292   .     A
C576   O595    1.293   .     A
C577   O596    1.293   .     A
C577   O598    1.292   .     A
C578   H581    1.086   .     S
Cu579  O595    1.965   .     S
Cu579  O594    1.945   .     S
Cu579  N590    2.021   .     S
Cu579  O598    1.948   .     S
Cu579  Cu580   2.690   .     S
Cu579  O591    1.951   .     S
Cu580  N589    2.021   .     S
Cu580  O597    1.948   .     S
Cu580  O592    1.951   .     S
Cu580  O593    1.945   .     S
Cu580  O596    1.965   .     S
H585   C666    1.088   .     S
H586   C759    1.088   1_545 S
H587   N37     1.029   1_556 S
N590   N37     1.294   1_556 S
N590   H36     1.029   1_556 S
Br599  C607    1.935   .     S
Br600  C608    1.935   .     S
Br601  C616    1.927   .     S
Br602  C617    1.927   .     S
C603   O637    1.292   .     A
C603   O639    1.284   .     A
C603   C620    1.424   .     S
C604   H628    1.086   .     S
C604   C615    1.383   .     A
C604   C606    1.385   .     A
C605   C624    1.385   .     A
C605   C623    1.445   .     S
C605   C607    1.407   .     A
C606   C608    1.407   .     A
C606   C622    1.445   .     S
C607   C609    1.423   .     A
C608   C610    1.423   .     A
C609   C616    1.425   .     A
C609   C611    1.434   .     A
C610   C617    1.425   .     A
C610   C612    1.434   .     A
C611   C613    1.408   .     A
C611   C566    1.412   1_655 S
C612   C615    1.408   .     A
C613   C619    1.392   .     A
C613   C624    1.383   .     A
C614   O638    1.292   .     A
C614   C621    1.424   .     S
C614   O640    1.284   .     A
C615   C618    1.392   .     A
C616   C572    1.389   1_655 S
C618   H629    1.085   .     S
C619   H630    1.085   .     S
C619   C571    1.389   1_655 S
C620   C805    1.325   1_545 S
C620   H815    1.088   1_545 S
C621   C712    1.325   .     S
C621   H724    1.088   .     S
C622   O643    1.292   .     A
C622   O641    1.293   .     A
C623   O642    1.293   .     A
C623   O644    1.292   .     A
C624   H627    1.086   .     S
Cu625  O641    1.965   .     S
Cu625  O640    1.945   .     S
Cu625  N636    2.021   .     S
Cu625  O644    1.948   .     S
Cu625  Cu626   2.690   .     S
Cu625  O637    1.951   .     S
Cu626  N635    2.021   .     S
Cu626  O643    1.948   .     S
Cu626  O638    1.951   .     S
Cu626  O639    1.945   .     S
Cu626  O642    1.965   .     S
H631   C712    1.088   .     S
H632   C805    1.088   1_545 S
H633   N83     1.029   1_556 S
N636   N83     1.294   1_556 S
N636   H82     1.029   1_556 S
Br645  C653    1.935   .     S
Br646  C654    1.935   .     S
Br647  C662    1.927   .     S
Br648  C663    1.927   .     S
C649   O683    1.292   .     A
C649   O685    1.284   .     A
C649   C666    1.424   .     S
C650   H674    1.086   .     S
C650   C661    1.383   .     A
C650   C652    1.385   .     A
C651   C670    1.385   .     A
C651   C669    1.445   .     S
C651   C653    1.407   .     A
C652   C654    1.407   .     A
C652   C668    1.445   .     S
C653   C655    1.423   .     A
C654   C656    1.423   .     A
C655   C662    1.425   .     A
C655   C657    1.434   .     A
C656   C663    1.425   .     A
C656   C658    1.434   .     A
C657   C659    1.408   .     A
C657   C704    1.412   .     S
C658   C661    1.408   .     A
C658   C703    1.412   1_455 S
C659   C665    1.392   .     A
C659   C670    1.383   .     A
C660   O684    1.292   .     A
C660   C667    1.424   .     S
C660   O686    1.284   .     A
C661   C664    1.392   .     A
C662   C710    1.389   .     S
C663   C711    1.389   1_455 S
C664   H675    1.085   .     S
C664   C708    1.389   1_455 S
C665   H676    1.085   .     S
C665   C709    1.389   .     S
C667   C758    1.325   .     S
C667   H770    1.088   .     S
C668   O689    1.292   .     A
C668   O687    1.293   .     A
C669   O688    1.293   .     A
C669   O690    1.292   .     A
C670   H673    1.086   .     S
Cu671  O687    1.965   .     S
Cu671  O686    1.945   .     S
Cu671  N682    2.021   .     S
Cu671  O690    1.948   .     S
Cu671  Cu672   2.690   .     S
Cu671  O683    1.951   .     S
Cu672  N681    2.021   .     S
Cu672  O689    1.948   .     S
Cu672  O684    1.951   .     S
Cu672  O685    1.945   .     S
Cu672  O688    1.965   .     S
H677   C758    1.088   .     S
H679   N129    1.029   1_556 S
N682   N129    1.294   1_556 S
N682   H128    1.029   1_556 S
Br691  C699    1.935   .     S
Br692  C700    1.935   .     S
Br693  C708    1.927   .     S
Br694  C709    1.927   .     S
C695   O729    1.292   .     A
C695   O731    1.284   .     A
C695   C712    1.424   .     S
C696   H720    1.086   .     S
C696   C707    1.383   .     A
C696   C698    1.385   .     A
C697   C716    1.385   .     A
C697   C715    1.445   .     S
C697   C699    1.407   .     A
C698   C700    1.407   .     A
C698   C714    1.445   .     S
C699   C701    1.423   .     A
C700   C702    1.423   .     A
C701   C708    1.425   .     A
C701   C703    1.434   .     A
C702   C709    1.425   .     A
C702   C704    1.434   .     A
C703   C705    1.408   .     A
C703   C658    1.412   1_655 S
C704   C707    1.408   .     A
C705   C711    1.392   .     A
C705   C716    1.383   .     A
C706   O730    1.292   .     A
C706   C713    1.424   .     S
C706   O732    1.284   .     A
C707   C710    1.392   .     A
C708   C664    1.389   1_655 S
C710   H721    1.085   .     S
C711   H722    1.085   .     S
C711   C663    1.389   1_655 S
C713   C804    1.325   .     S
C713   H816    1.088   .     S
C714   O735    1.292   .     A
C714   O733    1.293   .     A
C715   O734    1.293   .     A
C715   O736    1.292   .     A
C716   H719    1.086   .     S
Cu717  O733    1.965   .     S
Cu717  O732    1.945   .     S
Cu717  N728    2.021   .     S
Cu717  O736    1.948   .     S
Cu717  Cu718   2.690   .     S
Cu717  O729    1.951   .     S
Cu718  N727    2.021   .     S
Cu718  O735    1.948   .     S
Cu718  O730    1.951   .     S
Cu718  O731    1.945   .     S
Cu718  O734    1.965   .     S
H723   C804    1.088   .     S
H725   N175    1.029   1_556 S
N728   N175    1.294   1_556 S
N728   H174    1.029   1_556 S
Br737  C745    1.935   .     S
Br738  C746    1.935   .     S
Br739  C754    1.927   .     S
Br740  C755    1.927   .     S
C741   O775    1.292   .     A
C741   O777    1.284   .     A
C741   C758    1.424   .     S
C742   H766    1.086   .     S
C742   C753    1.383   .     A
C742   C744    1.385   .     A
C743   C762    1.385   .     A
C743   C761    1.445   .     S
C743   C745    1.407   .     A
C744   C746    1.407   .     A
C744   C760    1.445   .     S
C745   C747    1.423   .     A
C746   C748    1.423   .     A
C747   C754    1.425   .     A
C747   C749    1.434   .     A
C748   C755    1.425   .     A
C748   C750    1.434   .     A
C749   C751    1.408   .     A
C749   C796    1.412   .     S
C750   C753    1.408   .     A
C750   C795    1.412   1_455 S
C751   C757    1.392   .     A
C751   C762    1.383   .     A
C752   O776    1.292   .     A
C752   C759    1.424   .     S
C752   O778    1.284   .     A
C753   C756    1.392   .     A
C754   C802    1.389   .     S
C755   C803    1.389   1_455 S
C756   H767    1.085   .     S
C756   C800    1.389   1_455 S
C757   H768    1.085   .     S
C757   C801    1.389   .     S
C759   C574    1.325   1_565 S
C759   H586    1.088   1_565 S
C760   O781    1.292   .     A
C760   O779    1.293   .     A
C761   O780    1.293   .     A
C761   O782    1.292   .     A
C762   H765    1.086   .     S
Cu763  O779    1.965   .     S
Cu763  O778    1.945   .     S
Cu763  N774    2.021   .     S
Cu763  O782    1.948   .     S
Cu763  Cu764   2.690   .     S
Cu763  O775    1.951   .     S
Cu764  N773    2.021   .     S
Cu764  O781    1.948   .     S
Cu764  O776    1.951   .     S
Cu764  O777    1.945   .     S
Cu764  O780    1.965   .     S
H769   C574    1.088   1_565 S
H771   N221    1.029   1_556 S
N774   N221    1.294   1_556 S
N774   H220    1.029   1_556 S
Br783  C791    1.935   .     S
Br784  C792    1.935   .     S
Br785  C800    1.927   .     S
Br786  C801    1.927   .     S
C787   O821    1.292   .     A
C787   O823    1.284   .     A
C787   C804    1.424   .     S
C788   H812    1.086   .     S
C788   C799    1.383   .     A
C788   C790    1.385   .     A
C789   C808    1.385   .     A
C789   C807    1.445   .     S
C789   C791    1.407   .     A
C790   C792    1.407   .     A
C790   C806    1.445   .     S
C791   C793    1.423   .     A
C792   C794    1.423   .     A
C793   C800    1.425   .     A
C793   C795    1.434   .     A
C794   C801    1.425   .     A
C794   C796    1.434   .     A
C795   C797    1.408   .     A
C795   C750    1.412   1_655 S
C796   C799    1.408   .     A
C797   C803    1.392   .     A
C797   C808    1.383   .     A
C798   O822    1.292   .     A
C798   C805    1.424   .     S
C798   O824    1.284   .     A
C799   C802    1.392   .     A
C800   C756    1.389   1_655 S
C802   H813    1.085   .     S
C803   H814    1.085   .     S
C803   C755    1.389   1_655 S
C805   C620    1.325   1_565 S
C805   H632    1.088   1_565 S
C806   O827    1.292   .     A
C806   O825    1.293   .     A
C807   O826    1.293   .     A
C807   O828    1.292   .     A
C808   H811    1.086   .     S
Cu809  O825    1.965   .     S
Cu809  O824    1.945   .     S
Cu809  N820    2.021   .     S
Cu809  O828    1.948   .     S
Cu809  Cu810   2.690   .     S
Cu809  O821    1.951   .     S
Cu810  N819    2.021   .     S
Cu810  O827    1.948   .     S
Cu810  O822    1.951   .     S
Cu810  O823    1.945   .     S
Cu810  O826    1.965   .     S
H815   C620    1.088   1_565 S
H817   N267    1.029   1_556 S
N820   N267    1.294   1_556 S
N820   H266    1.029   1_556 S
