data_str_m2_o10_o17_pcu_sym.160
_audit_creation_date              2020-01-03
_audit_creation_method            'Materials Studio'
_symmetry_space_group_name_H-M    'P1'
_symmetry_Int_Tables_number       1
_symmetry_cell_setting            triclinic
loop_
_symmetry_equiv_pos_as_xyz
  x,y,z
_cell_length_a                    30.0056
_cell_length_b                    26.1649
_cell_length_c                    22.5471
_cell_angle_alpha                 103.0768
_cell_angle_beta                  94.2629
_cell_angle_gamma                 93.0654
loop_
_atom_site_label
_atom_site_type_symbol
_atom_site_fract_x
_atom_site_fract_y
_atom_site_fract_z
_atom_site_U_iso_or_equiv
_atom_site_adp_type
_atom_site_occupancy
C1     C     0.24804   0.06675   0.15126   0.00000  Uiso   1.00
C2     C     0.25196   0.26658   0.18207   0.00000  Uiso   1.00
C3     C     0.01664   0.07310   0.11563   0.00000  Uiso   1.00
C4     C     0.48336   0.26023   0.21770   0.00000  Uiso   1.00
C5     C     0.24494   0.01088   0.14302   0.00000  Uiso   1.00
C6     C     0.25506   0.32245   0.19031   0.00000  Uiso   1.00
C7     C     0.16475   0.16734   0.16755   0.00000  Uiso   1.00
C8     C     0.33525   0.16599   0.16578   0.00000  Uiso   1.00
C9     C     0.40931   0.21182   0.19156   0.00000  Uiso   1.00
C10    C     0.09069   0.12151   0.14177   0.00000  Uiso   1.00
C11    C     0.38332   0.16565   0.16395   0.00000  Uiso   1.00
C12    C     0.11668   0.16768   0.16939   0.00000  Uiso   1.00
C13    C     0.40276   0.11981   0.13612   0.00000  Uiso   1.00
C14    C     0.09724   0.21353   0.19721   0.00000  Uiso   1.00
C15    C     0.44967   0.11990   0.13815   0.00000  Uiso   1.00
C16    C     0.05033   0.21343   0.19518   0.00000  Uiso   1.00
C17    C     0.47643   0.16672   0.16589   0.00000  Uiso   1.00
C18    C     0.02357   0.16662   0.16744   0.00000  Uiso   1.00
C19    C     0.45611   0.21355   0.19195   0.00000  Uiso   1.00
C20    C     0.04389   0.11978   0.14139   0.00000  Uiso   1.00
C21    C     0.47036   0.07394   0.11383   0.00000  Uiso   1.00
C22    C     0.02964   0.25939   0.21950   0.00000  Uiso   1.00
Cu23   Cu    0.25500   0.17246   0.22813   0.00000  Uiso   1.00
Cu24   Cu    0.24499   0.16087   0.10521   0.00000  Uiso   1.00
H25    H     0.45095   0.03744   0.09363   0.00000  Uiso   1.00
H26    H     0.04905   0.29590   0.23970   0.00000  Uiso   1.00
N27    N     0.23744   0.15214   0.01284   0.00000  Uiso   1.00
N28    N     0.26255   0.18119   0.32049   0.00000  Uiso   1.00
O29    O     0.25325   0.09538   0.20659   0.00000  Uiso   1.00
O30    O     0.24674   0.23796   0.12674   0.00000  Uiso   1.00
O31    O     0.24480   0.08559   0.10279   0.00000  Uiso   1.00
O32    O     0.25520   0.24774   0.23055   0.00000  Uiso   1.00
O33    O     0.18935   0.17155   0.21857   0.00000  Uiso   1.00
O34    O     0.31064   0.16179   0.11476   0.00000  Uiso   1.00
O35    O     0.18090   0.16176   0.11477   0.00000  Uiso   1.00
O36    O     0.31910   0.17157   0.21857   0.00000  Uiso   1.00
F37    F     0.38786   0.25439   0.21790   0.00000  Uiso   1.00
F38    F     0.11214   0.07894   0.11543   0.00000  Uiso   1.00
I39    I     0.36024   0.05078   0.09328   0.00000  Uiso   1.00
I40    I     0.13976   0.28256   0.24006   0.00000  Uiso   1.00
I41    I     0.03980   0.33066   0.07996   0.00000  Uiso   1.00
I42    I     0.46020   0.00267   0.25337   0.00000  Uiso   1.00
F43    F     0.23027   0.31500   0.08616   0.00000  Uiso   1.00
F44    F     0.26973   0.01833   0.24718   0.00000  Uiso   1.00
I45    I     0.18558   0.09842   0.30107   0.00000  Uiso   1.00
I46    I     0.31442   0.23492   0.03227   0.00000  Uiso   1.00
C47    C     0.74804   0.06675   0.15126   0.00000  Uiso   1.00
C48    C     0.75196   0.26658   0.18207   0.00000  Uiso   1.00
C49    C     0.51664   0.07310   0.11563   0.00000  Uiso   1.00
C50    C     0.98336   0.26023   0.21770   0.00000  Uiso   1.00
C51    C     0.74494   0.01088   0.14302   0.00000  Uiso   1.00
C52    C     0.75506   0.32245   0.19031   0.00000  Uiso   1.00
C53    C     0.66475   0.16734   0.16755   0.00000  Uiso   1.00
C54    C     0.83525   0.16599   0.16578   0.00000  Uiso   1.00
C55    C     0.90931   0.21182   0.19156   0.00000  Uiso   1.00
C56    C     0.59069   0.12151   0.14177   0.00000  Uiso   1.00
C57    C     0.88332   0.16565   0.16395   0.00000  Uiso   1.00
C58    C     0.61668   0.16768   0.16939   0.00000  Uiso   1.00
C59    C     0.90276   0.11981   0.13612   0.00000  Uiso   1.00
C60    C     0.59724   0.21353   0.19721   0.00000  Uiso   1.00
C61    C     0.94967   0.11990   0.13815   0.00000  Uiso   1.00
C62    C     0.55033   0.21343   0.19518   0.00000  Uiso   1.00
C63    C     0.97643   0.16672   0.16589   0.00000  Uiso   1.00
C64    C     0.52357   0.16662   0.16744   0.00000  Uiso   1.00
C65    C     0.95611   0.21355   0.19195   0.00000  Uiso   1.00
C66    C     0.54389   0.11978   0.14139   0.00000  Uiso   1.00
C67    C     0.97036   0.07394   0.11383   0.00000  Uiso   1.00
C68    C     0.52964   0.25939   0.21950   0.00000  Uiso   1.00
Cu69   Cu    0.75500   0.17246   0.22813   0.00000  Uiso   1.00
Cu70   Cu    0.74499   0.16087   0.10521   0.00000  Uiso   1.00
H71    H     0.95095   0.03744   0.09363   0.00000  Uiso   1.00
H72    H     0.54905   0.29590   0.23970   0.00000  Uiso   1.00
N73    N     0.73744   0.15214   0.01284   0.00000  Uiso   1.00
N74    N     0.76255   0.18119   0.32049   0.00000  Uiso   1.00
O75    O     0.75325   0.09538   0.20659   0.00000  Uiso   1.00
O76    O     0.74674   0.23796   0.12674   0.00000  Uiso   1.00
O77    O     0.74480   0.08559   0.10279   0.00000  Uiso   1.00
O78    O     0.75520   0.24774   0.23055   0.00000  Uiso   1.00
O79    O     0.68935   0.17155   0.21857   0.00000  Uiso   1.00
O80    O     0.81064   0.16179   0.11476   0.00000  Uiso   1.00
O81    O     0.68090   0.16176   0.11477   0.00000  Uiso   1.00
O82    O     0.81910   0.17157   0.21857   0.00000  Uiso   1.00
F83    F     0.88786   0.25439   0.21790   0.00000  Uiso   1.00
F84    F     0.61214   0.07894   0.11543   0.00000  Uiso   1.00
I85    I     0.86024   0.05078   0.09328   0.00000  Uiso   1.00
I86    I     0.63976   0.28256   0.24006   0.00000  Uiso   1.00
I87    I     0.53980   0.33066   0.07996   0.00000  Uiso   1.00
I88    I     0.96020   0.00267   0.25337   0.00000  Uiso   1.00
F89    F     0.73027   0.31500   0.08616   0.00000  Uiso   1.00
F90    F     0.76973   0.01833   0.24718   0.00000  Uiso   1.00
I91    I     0.68558   0.09842   0.30107   0.00000  Uiso   1.00
I92    I     0.81442   0.23492   0.03227   0.00000  Uiso   1.00
C93    C     0.24804   0.40008   0.15126   0.00000  Uiso   1.00
C94    C     0.25196   0.59992   0.18207   0.00000  Uiso   1.00
C95    C     0.01664   0.40643   0.11563   0.00000  Uiso   1.00
C96    C     0.48336   0.59357   0.21770   0.00000  Uiso   1.00
C97    C     0.24494   0.34421   0.14302   0.00000  Uiso   1.00
C98    C     0.25506   0.65579   0.19031   0.00000  Uiso   1.00
C99    C     0.16475   0.50068   0.16755   0.00000  Uiso   1.00
C100   C     0.33525   0.49932   0.16578   0.00000  Uiso   1.00
C101   C     0.40931   0.54516   0.19156   0.00000  Uiso   1.00
C102   C     0.09069   0.45484   0.14177   0.00000  Uiso   1.00
C103   C     0.38332   0.49898   0.16395   0.00000  Uiso   1.00
C104   C     0.11668   0.50102   0.16939   0.00000  Uiso   1.00
C105   C     0.40276   0.45314   0.13612   0.00000  Uiso   1.00
C106   C     0.09724   0.54686   0.19721   0.00000  Uiso   1.00
C107   C     0.44967   0.45323   0.13815   0.00000  Uiso   1.00
C108   C     0.05033   0.54677   0.19518   0.00000  Uiso   1.00
C109   C     0.47643   0.50005   0.16589   0.00000  Uiso   1.00
C110   C     0.02357   0.49995   0.16744   0.00000  Uiso   1.00
C111   C     0.45611   0.54688   0.19195   0.00000  Uiso   1.00
C112   C     0.04389   0.45312   0.14139   0.00000  Uiso   1.00
C113   C     0.47036   0.40728   0.11383   0.00000  Uiso   1.00
C114   C     0.02964   0.59272   0.21950   0.00000  Uiso   1.00
Cu115  Cu    0.25500   0.50579   0.22813   0.00000  Uiso   1.00
Cu116  Cu    0.24499   0.49421   0.10521   0.00000  Uiso   1.00
H117   H     0.45095   0.37077   0.09363   0.00000  Uiso   1.00
H118   H     0.04905   0.62923   0.23970   0.00000  Uiso   1.00
N119   N     0.23744   0.48547   0.01284   0.00000  Uiso   1.00
N120   N     0.26255   0.51453   0.32049   0.00000  Uiso   1.00
O121   O     0.25325   0.42871   0.20659   0.00000  Uiso   1.00
O122   O     0.24674   0.57129   0.12674   0.00000  Uiso   1.00
O123   O     0.24480   0.41892   0.10279   0.00000  Uiso   1.00
O124   O     0.25520   0.58108   0.23055   0.00000  Uiso   1.00
O125   O     0.18935   0.50488   0.21857   0.00000  Uiso   1.00
O126   O     0.31064   0.49512   0.11476   0.00000  Uiso   1.00
O127   O     0.18090   0.49510   0.11477   0.00000  Uiso   1.00
O128   O     0.31910   0.50490   0.21857   0.00000  Uiso   1.00
F129   F     0.38786   0.58772   0.21790   0.00000  Uiso   1.00
F130   F     0.11214   0.41227   0.11543   0.00000  Uiso   1.00
I131   I     0.36024   0.38411   0.09328   0.00000  Uiso   1.00
I132   I     0.13976   0.61589   0.24006   0.00000  Uiso   1.00
I133   I     0.03980   0.66400   0.07996   0.00000  Uiso   1.00
I134   I     0.46020   0.33600   0.25337   0.00000  Uiso   1.00
F135   F     0.23027   0.64834   0.08616   0.00000  Uiso   1.00
F136   F     0.26973   0.35166   0.24718   0.00000  Uiso   1.00
I137   I     0.18558   0.43175   0.30107   0.00000  Uiso   1.00
I138   I     0.31442   0.56825   0.03227   0.00000  Uiso   1.00
C139   C     0.74804   0.40008   0.15126   0.00000  Uiso   1.00
C140   C     0.75196   0.59992   0.18207   0.00000  Uiso   1.00
C141   C     0.51664   0.40643   0.11563   0.00000  Uiso   1.00
C142   C     0.98336   0.59357   0.21770   0.00000  Uiso   1.00
C143   C     0.74494   0.34421   0.14302   0.00000  Uiso   1.00
C144   C     0.75506   0.65579   0.19031   0.00000  Uiso   1.00
C145   C     0.66475   0.50068   0.16755   0.00000  Uiso   1.00
C146   C     0.83525   0.49932   0.16578   0.00000  Uiso   1.00
C147   C     0.90931   0.54516   0.19156   0.00000  Uiso   1.00
C148   C     0.59069   0.45484   0.14177   0.00000  Uiso   1.00
C149   C     0.88332   0.49898   0.16395   0.00000  Uiso   1.00
C150   C     0.61668   0.50102   0.16939   0.00000  Uiso   1.00
C151   C     0.90276   0.45314   0.13612   0.00000  Uiso   1.00
C152   C     0.59724   0.54686   0.19721   0.00000  Uiso   1.00
C153   C     0.94967   0.45323   0.13815   0.00000  Uiso   1.00
C154   C     0.55033   0.54677   0.19518   0.00000  Uiso   1.00
C155   C     0.97643   0.50005   0.16589   0.00000  Uiso   1.00
C156   C     0.52357   0.49995   0.16744   0.00000  Uiso   1.00
C157   C     0.95611   0.54688   0.19195   0.00000  Uiso   1.00
C158   C     0.54389   0.45312   0.14139   0.00000  Uiso   1.00
C159   C     0.97036   0.40728   0.11383   0.00000  Uiso   1.00
C160   C     0.52964   0.59272   0.21950   0.00000  Uiso   1.00
Cu161  Cu    0.75500   0.50579   0.22813   0.00000  Uiso   1.00
Cu162  Cu    0.74499   0.49421   0.10521   0.00000  Uiso   1.00
H163   H     0.95095   0.37077   0.09363   0.00000  Uiso   1.00
H164   H     0.54905   0.62923   0.23970   0.00000  Uiso   1.00
N165   N     0.73744   0.48547   0.01284   0.00000  Uiso   1.00
N166   N     0.76255   0.51453   0.32049   0.00000  Uiso   1.00
O167   O     0.75325   0.42871   0.20659   0.00000  Uiso   1.00
O168   O     0.74674   0.57129   0.12674   0.00000  Uiso   1.00
O169   O     0.74480   0.41892   0.10279   0.00000  Uiso   1.00
O170   O     0.75520   0.58108   0.23055   0.00000  Uiso   1.00
O171   O     0.68935   0.50488   0.21857   0.00000  Uiso   1.00
O172   O     0.81064   0.49512   0.11476   0.00000  Uiso   1.00
O173   O     0.68090   0.49510   0.11477   0.00000  Uiso   1.00
O174   O     0.81910   0.50490   0.21857   0.00000  Uiso   1.00
F175   F     0.88786   0.58772   0.21790   0.00000  Uiso   1.00
F176   F     0.61214   0.41227   0.11543   0.00000  Uiso   1.00
I177   I     0.86024   0.38411   0.09328   0.00000  Uiso   1.00
I178   I     0.63976   0.61589   0.24006   0.00000  Uiso   1.00
I179   I     0.53980   0.66400   0.07996   0.00000  Uiso   1.00
I180   I     0.96020   0.33600   0.25337   0.00000  Uiso   1.00
F181   F     0.73027   0.64834   0.08616   0.00000  Uiso   1.00
F182   F     0.76973   0.35166   0.24718   0.00000  Uiso   1.00
I183   I     0.68558   0.43175   0.30107   0.00000  Uiso   1.00
I184   I     0.81442   0.56825   0.03227   0.00000  Uiso   1.00
C185   C     0.24804   0.73342   0.15126   0.00000  Uiso   1.00
C186   C     0.25196   0.93325   0.18207   0.00000  Uiso   1.00
C187   C     0.01664   0.73977   0.11563   0.00000  Uiso   1.00
C188   C     0.48336   0.92690   0.21770   0.00000  Uiso   1.00
C189   C     0.24494   0.67755   0.14302   0.00000  Uiso   1.00
C190   C     0.25506   0.98912   0.19031   0.00000  Uiso   1.00
C191   C     0.16475   0.83401   0.16755   0.00000  Uiso   1.00
C192   C     0.33525   0.83266   0.16578   0.00000  Uiso   1.00
C193   C     0.40931   0.87849   0.19156   0.00000  Uiso   1.00
C194   C     0.09069   0.78818   0.14177   0.00000  Uiso   1.00
C195   C     0.38332   0.83232   0.16395   0.00000  Uiso   1.00
C196   C     0.11668   0.83435   0.16939   0.00000  Uiso   1.00
C197   C     0.40276   0.78647   0.13612   0.00000  Uiso   1.00
C198   C     0.09724   0.88019   0.19721   0.00000  Uiso   1.00
C199   C     0.44967   0.78657   0.13815   0.00000  Uiso   1.00
C200   C     0.05033   0.88010   0.19518   0.00000  Uiso   1.00
C201   C     0.47643   0.83338   0.16589   0.00000  Uiso   1.00
C202   C     0.02357   0.83328   0.16744   0.00000  Uiso   1.00
C203   C     0.45611   0.88022   0.19195   0.00000  Uiso   1.00
C204   C     0.04389   0.78645   0.14139   0.00000  Uiso   1.00
C205   C     0.47036   0.74061   0.11383   0.00000  Uiso   1.00
C206   C     0.02964   0.92606   0.21950   0.00000  Uiso   1.00
Cu207  Cu    0.25500   0.83913   0.22813   0.00000  Uiso   1.00
Cu208  Cu    0.24499   0.82754   0.10521   0.00000  Uiso   1.00
H209   H     0.45095   0.70410   0.09363   0.00000  Uiso   1.00
H210   H     0.04905   0.96256   0.23970   0.00000  Uiso   1.00
N211   N     0.23744   0.81881   0.01284   0.00000  Uiso   1.00
N212   N     0.26255   0.84786   0.32049   0.00000  Uiso   1.00
O213   O     0.25325   0.76204   0.20659   0.00000  Uiso   1.00
O214   O     0.24674   0.90462   0.12674   0.00000  Uiso   1.00
O215   O     0.24480   0.75226   0.10279   0.00000  Uiso   1.00
O216   O     0.25520   0.91441   0.23055   0.00000  Uiso   1.00
O217   O     0.18935   0.83821   0.21857   0.00000  Uiso   1.00
O218   O     0.31064   0.82845   0.11476   0.00000  Uiso   1.00
O219   O     0.18090   0.82843   0.11477   0.00000  Uiso   1.00
O220   O     0.31910   0.83824   0.21857   0.00000  Uiso   1.00
F221   F     0.38786   0.92106   0.21790   0.00000  Uiso   1.00
F222   F     0.11214   0.74561   0.11543   0.00000  Uiso   1.00
I223   I     0.36024   0.71744   0.09328   0.00000  Uiso   1.00
I224   I     0.13976   0.94922   0.24006   0.00000  Uiso   1.00
I225   I     0.03980   0.99733   0.07996   0.00000  Uiso   1.00
I226   I     0.46020   0.66934   0.25337   0.00000  Uiso   1.00
F227   F     0.23027   0.98167   0.08616   0.00000  Uiso   1.00
F228   F     0.26973   0.68500   0.24718   0.00000  Uiso   1.00
I229   I     0.18558   0.76508   0.30107   0.00000  Uiso   1.00
I230   I     0.31442   0.90158   0.03227   0.00000  Uiso   1.00
C231   C     0.74804   0.73342   0.15126   0.00000  Uiso   1.00
C232   C     0.75196   0.93325   0.18207   0.00000  Uiso   1.00
C233   C     0.51664   0.73977   0.11563   0.00000  Uiso   1.00
C234   C     0.98336   0.92690   0.21770   0.00000  Uiso   1.00
C235   C     0.74494   0.67755   0.14302   0.00000  Uiso   1.00
C236   C     0.75506   0.98912   0.19031   0.00000  Uiso   1.00
C237   C     0.66475   0.83401   0.16755   0.00000  Uiso   1.00
C238   C     0.83525   0.83266   0.16578   0.00000  Uiso   1.00
C239   C     0.90931   0.87849   0.19156   0.00000  Uiso   1.00
C240   C     0.59069   0.78818   0.14177   0.00000  Uiso   1.00
C241   C     0.88332   0.83232   0.16395   0.00000  Uiso   1.00
C242   C     0.61668   0.83435   0.16939   0.00000  Uiso   1.00
C243   C     0.90276   0.78647   0.13612   0.00000  Uiso   1.00
C244   C     0.59724   0.88019   0.19721   0.00000  Uiso   1.00
C245   C     0.94967   0.78657   0.13815   0.00000  Uiso   1.00
C246   C     0.55033   0.88010   0.19518   0.00000  Uiso   1.00
C247   C     0.97643   0.83338   0.16589   0.00000  Uiso   1.00
C248   C     0.52357   0.83328   0.16744   0.00000  Uiso   1.00
C249   C     0.95611   0.88022   0.19195   0.00000  Uiso   1.00
C250   C     0.54389   0.78645   0.14139   0.00000  Uiso   1.00
C251   C     0.97036   0.74061   0.11383   0.00000  Uiso   1.00
C252   C     0.52964   0.92606   0.21950   0.00000  Uiso   1.00
Cu253  Cu    0.75500   0.83913   0.22813   0.00000  Uiso   1.00
Cu254  Cu    0.74499   0.82754   0.10521   0.00000  Uiso   1.00
H255   H     0.95095   0.70410   0.09363   0.00000  Uiso   1.00
H256   H     0.54905   0.96256   0.23970   0.00000  Uiso   1.00
N257   N     0.73744   0.81881   0.01284   0.00000  Uiso   1.00
N258   N     0.76255   0.84786   0.32049   0.00000  Uiso   1.00
O259   O     0.75325   0.76204   0.20659   0.00000  Uiso   1.00
O260   O     0.74674   0.90462   0.12674   0.00000  Uiso   1.00
O261   O     0.74480   0.75226   0.10279   0.00000  Uiso   1.00
O262   O     0.75520   0.91441   0.23055   0.00000  Uiso   1.00
O263   O     0.68935   0.83821   0.21857   0.00000  Uiso   1.00
O264   O     0.81064   0.82845   0.11476   0.00000  Uiso   1.00
O265   O     0.68090   0.82843   0.11477   0.00000  Uiso   1.00
O266   O     0.81910   0.83824   0.21857   0.00000  Uiso   1.00
F267   F     0.88786   0.92106   0.21790   0.00000  Uiso   1.00
F268   F     0.61214   0.74561   0.11543   0.00000  Uiso   1.00
I269   I     0.86024   0.71744   0.09328   0.00000  Uiso   1.00
I270   I     0.63976   0.94922   0.24006   0.00000  Uiso   1.00
I271   I     0.53980   0.99733   0.07996   0.00000  Uiso   1.00
I272   I     0.96020   0.66934   0.25337   0.00000  Uiso   1.00
F273   F     0.73027   0.98167   0.08616   0.00000  Uiso   1.00
F274   F     0.76973   0.68500   0.24718   0.00000  Uiso   1.00
I275   I     0.68558   0.76508   0.30107   0.00000  Uiso   1.00
I276   I     0.81442   0.90158   0.03227   0.00000  Uiso   1.00
C277   C     0.24804   0.06675   0.48459   0.00000  Uiso   1.00
C278   C     0.25196   0.26658   0.51541   0.00000  Uiso   1.00
C279   C     0.01664   0.07310   0.44897   0.00000  Uiso   1.00
C280   C     0.48336   0.26023   0.55103   0.00000  Uiso   1.00
C281   C     0.24494   0.01088   0.47636   0.00000  Uiso   1.00
C282   C     0.25506   0.32245   0.52364   0.00000  Uiso   1.00
C283   C     0.16475   0.16734   0.50088   0.00000  Uiso   1.00
C284   C     0.33525   0.16599   0.49912   0.00000  Uiso   1.00
C285   C     0.40931   0.21182   0.52489   0.00000  Uiso   1.00
C286   C     0.09069   0.12151   0.47511   0.00000  Uiso   1.00
C287   C     0.38332   0.16565   0.49728   0.00000  Uiso   1.00
C288   C     0.11668   0.16768   0.50272   0.00000  Uiso   1.00
C289   C     0.40276   0.11981   0.46945   0.00000  Uiso   1.00
C290   C     0.09724   0.21353   0.53055   0.00000  Uiso   1.00
C291   C     0.44967   0.11990   0.47148   0.00000  Uiso   1.00
C292   C     0.05033   0.21343   0.52852   0.00000  Uiso   1.00
C293   C     0.47643   0.16672   0.49923   0.00000  Uiso   1.00
C294   C     0.02357   0.16662   0.50077   0.00000  Uiso   1.00
C295   C     0.45611   0.21355   0.52528   0.00000  Uiso   1.00
C296   C     0.04389   0.11978   0.47472   0.00000  Uiso   1.00
C297   C     0.47036   0.07394   0.44717   0.00000  Uiso   1.00
C298   C     0.02964   0.25939   0.55283   0.00000  Uiso   1.00
Cu299  Cu    0.25500   0.17246   0.56146   0.00000  Uiso   1.00
Cu300  Cu    0.24499   0.16087   0.43854   0.00000  Uiso   1.00
H301   H     0.45095   0.03744   0.42696   0.00000  Uiso   1.00
H302   H     0.04905   0.29590   0.57304   0.00000  Uiso   1.00
N303   N     0.23744   0.15214   0.34617   0.00000  Uiso   1.00
N304   N     0.26255   0.18119   0.65383   0.00000  Uiso   1.00
O305   O     0.25325   0.09538   0.53992   0.00000  Uiso   1.00
O306   O     0.24674   0.23796   0.46008   0.00000  Uiso   1.00
O307   O     0.24480   0.08559   0.43612   0.00000  Uiso   1.00
O308   O     0.25520   0.24774   0.56388   0.00000  Uiso   1.00
O309   O     0.18935   0.17155   0.55191   0.00000  Uiso   1.00
O310   O     0.31064   0.16179   0.44809   0.00000  Uiso   1.00
O311   O     0.18090   0.16176   0.44810   0.00000  Uiso   1.00
O312   O     0.31910   0.17157   0.55190   0.00000  Uiso   1.00
F313   F     0.38786   0.25439   0.55124   0.00000  Uiso   1.00
F314   F     0.11214   0.07894   0.44877   0.00000  Uiso   1.00
I315   I     0.36024   0.05078   0.42662   0.00000  Uiso   1.00
I316   I     0.13976   0.28256   0.57339   0.00000  Uiso   1.00
I317   I     0.03980   0.33066   0.41329   0.00000  Uiso   1.00
I318   I     0.46020   0.00267   0.58671   0.00000  Uiso   1.00
F319   F     0.23027   0.31500   0.41949   0.00000  Uiso   1.00
F320   F     0.26973   0.01833   0.58051   0.00000  Uiso   1.00
I321   I     0.18558   0.09842   0.63440   0.00000  Uiso   1.00
I322   I     0.31442   0.23492   0.36560   0.00000  Uiso   1.00
C323   C     0.74804   0.06675   0.48459   0.00000  Uiso   1.00
C324   C     0.75196   0.26658   0.51541   0.00000  Uiso   1.00
C325   C     0.51664   0.07310   0.44897   0.00000  Uiso   1.00
C326   C     0.98336   0.26023   0.55103   0.00000  Uiso   1.00
C327   C     0.74494   0.01088   0.47636   0.00000  Uiso   1.00
C328   C     0.75506   0.32245   0.52364   0.00000  Uiso   1.00
C329   C     0.66475   0.16734   0.50088   0.00000  Uiso   1.00
C330   C     0.83525   0.16599   0.49912   0.00000  Uiso   1.00
C331   C     0.90931   0.21182   0.52489   0.00000  Uiso   1.00
C332   C     0.59069   0.12151   0.47511   0.00000  Uiso   1.00
C333   C     0.88332   0.16565   0.49728   0.00000  Uiso   1.00
C334   C     0.61668   0.16768   0.50272   0.00000  Uiso   1.00
C335   C     0.90276   0.11981   0.46945   0.00000  Uiso   1.00
C336   C     0.59724   0.21353   0.53055   0.00000  Uiso   1.00
C337   C     0.94967   0.11990   0.47148   0.00000  Uiso   1.00
C338   C     0.55033   0.21343   0.52852   0.00000  Uiso   1.00
C339   C     0.97643   0.16672   0.49923   0.00000  Uiso   1.00
C340   C     0.52357   0.16662   0.50077   0.00000  Uiso   1.00
C341   C     0.95611   0.21355   0.52528   0.00000  Uiso   1.00
C342   C     0.54389   0.11978   0.47472   0.00000  Uiso   1.00
C343   C     0.97036   0.07394   0.44717   0.00000  Uiso   1.00
C344   C     0.52964   0.25939   0.55283   0.00000  Uiso   1.00
Cu345  Cu    0.75500   0.17246   0.56146   0.00000  Uiso   1.00
Cu346  Cu    0.74499   0.16087   0.43854   0.00000  Uiso   1.00
H347   H     0.95095   0.03744   0.42696   0.00000  Uiso   1.00
H348   H     0.54905   0.29590   0.57304   0.00000  Uiso   1.00
N349   N     0.73744   0.15214   0.34617   0.00000  Uiso   1.00
N350   N     0.76255   0.18119   0.65383   0.00000  Uiso   1.00
O351   O     0.75325   0.09538   0.53992   0.00000  Uiso   1.00
O352   O     0.74674   0.23796   0.46008   0.00000  Uiso   1.00
O353   O     0.74480   0.08559   0.43612   0.00000  Uiso   1.00
O354   O     0.75520   0.24774   0.56388   0.00000  Uiso   1.00
O355   O     0.68935   0.17155   0.55191   0.00000  Uiso   1.00
O356   O     0.81064   0.16179   0.44809   0.00000  Uiso   1.00
O357   O     0.68090   0.16176   0.44810   0.00000  Uiso   1.00
O358   O     0.81910   0.17157   0.55190   0.00000  Uiso   1.00
F359   F     0.88786   0.25439   0.55124   0.00000  Uiso   1.00
F360   F     0.61214   0.07894   0.44877   0.00000  Uiso   1.00
I361   I     0.86024   0.05078   0.42662   0.00000  Uiso   1.00
I362   I     0.63976   0.28256   0.57339   0.00000  Uiso   1.00
I363   I     0.53980   0.33066   0.41329   0.00000  Uiso   1.00
I364   I     0.96020   0.00267   0.58671   0.00000  Uiso   1.00
F365   F     0.73027   0.31500   0.41949   0.00000  Uiso   1.00
F366   F     0.76973   0.01833   0.58051   0.00000  Uiso   1.00
I367   I     0.68558   0.09842   0.63440   0.00000  Uiso   1.00
I368   I     0.81442   0.23492   0.36560   0.00000  Uiso   1.00
C369   C     0.24804   0.40008   0.48459   0.00000  Uiso   1.00
C370   C     0.25196   0.59992   0.51541   0.00000  Uiso   1.00
C371   C     0.01664   0.40643   0.44897   0.00000  Uiso   1.00
C372   C     0.48336   0.59357   0.55103   0.00000  Uiso   1.00
C373   C     0.24494   0.34421   0.47636   0.00000  Uiso   1.00
C374   C     0.25506   0.65579   0.52364   0.00000  Uiso   1.00
C375   C     0.16475   0.50068   0.50088   0.00000  Uiso   1.00
C376   C     0.33525   0.49932   0.49912   0.00000  Uiso   1.00
C377   C     0.40931   0.54516   0.52489   0.00000  Uiso   1.00
C378   C     0.09069   0.45484   0.47511   0.00000  Uiso   1.00
C379   C     0.38332   0.49898   0.49728   0.00000  Uiso   1.00
C380   C     0.11668   0.50102   0.50272   0.00000  Uiso   1.00
C381   C     0.40276   0.45314   0.46945   0.00000  Uiso   1.00
C382   C     0.09724   0.54686   0.53055   0.00000  Uiso   1.00
C383   C     0.44967   0.45323   0.47148   0.00000  Uiso   1.00
C384   C     0.05033   0.54677   0.52852   0.00000  Uiso   1.00
C385   C     0.47643   0.50005   0.49923   0.00000  Uiso   1.00
C386   C     0.02357   0.49995   0.50077   0.00000  Uiso   1.00
C387   C     0.45611   0.54688   0.52528   0.00000  Uiso   1.00
C388   C     0.04389   0.45312   0.47472   0.00000  Uiso   1.00
C389   C     0.47036   0.40728   0.44717   0.00000  Uiso   1.00
C390   C     0.02964   0.59272   0.55283   0.00000  Uiso   1.00
Cu391  Cu    0.25500   0.50579   0.56146   0.00000  Uiso   1.00
Cu392  Cu    0.24499   0.49421   0.43854   0.00000  Uiso   1.00
H393   H     0.45095   0.37077   0.42696   0.00000  Uiso   1.00
H394   H     0.04905   0.62923   0.57304   0.00000  Uiso   1.00
N395   N     0.23744   0.48547   0.34617   0.00000  Uiso   1.00
N396   N     0.26255   0.51453   0.65383   0.00000  Uiso   1.00
O397   O     0.25325   0.42871   0.53992   0.00000  Uiso   1.00
O398   O     0.24674   0.57129   0.46008   0.00000  Uiso   1.00
O399   O     0.24480   0.41892   0.43612   0.00000  Uiso   1.00
O400   O     0.25520   0.58108   0.56388   0.00000  Uiso   1.00
O401   O     0.18935   0.50488   0.55191   0.00000  Uiso   1.00
O402   O     0.31064   0.49512   0.44809   0.00000  Uiso   1.00
O403   O     0.18090   0.49510   0.44810   0.00000  Uiso   1.00
O404   O     0.31910   0.50490   0.55190   0.00000  Uiso   1.00
F405   F     0.38786   0.58772   0.55124   0.00000  Uiso   1.00
F406   F     0.11214   0.41227   0.44877   0.00000  Uiso   1.00
I407   I     0.36024   0.38411   0.42662   0.00000  Uiso   1.00
I408   I     0.13976   0.61589   0.57339   0.00000  Uiso   1.00
I409   I     0.03980   0.66400   0.41329   0.00000  Uiso   1.00
I410   I     0.46020   0.33600   0.58671   0.00000  Uiso   1.00
F411   F     0.23027   0.64834   0.41949   0.00000  Uiso   1.00
F412   F     0.26973   0.35166   0.58051   0.00000  Uiso   1.00
I413   I     0.18558   0.43175   0.63440   0.00000  Uiso   1.00
I414   I     0.31442   0.56825   0.36560   0.00000  Uiso   1.00
C415   C     0.74804   0.40008   0.48459   0.00000  Uiso   1.00
C416   C     0.75196   0.59992   0.51541   0.00000  Uiso   1.00
C417   C     0.51664   0.40643   0.44897   0.00000  Uiso   1.00
C418   C     0.98336   0.59357   0.55103   0.00000  Uiso   1.00
C419   C     0.74494   0.34421   0.47636   0.00000  Uiso   1.00
C420   C     0.75506   0.65579   0.52364   0.00000  Uiso   1.00
C421   C     0.66475   0.50068   0.50088   0.00000  Uiso   1.00
C422   C     0.83525   0.49932   0.49912   0.00000  Uiso   1.00
C423   C     0.90931   0.54516   0.52489   0.00000  Uiso   1.00
C424   C     0.59069   0.45484   0.47511   0.00000  Uiso   1.00
C425   C     0.88332   0.49898   0.49728   0.00000  Uiso   1.00
C426   C     0.61668   0.50102   0.50272   0.00000  Uiso   1.00
C427   C     0.90276   0.45314   0.46945   0.00000  Uiso   1.00
C428   C     0.59724   0.54686   0.53055   0.00000  Uiso   1.00
C429   C     0.94967   0.45323   0.47148   0.00000  Uiso   1.00
C430   C     0.55033   0.54677   0.52852   0.00000  Uiso   1.00
C431   C     0.97643   0.50005   0.49923   0.00000  Uiso   1.00
C432   C     0.52357   0.49995   0.50077   0.00000  Uiso   1.00
C433   C     0.95611   0.54688   0.52528   0.00000  Uiso   1.00
C434   C     0.54389   0.45312   0.47472   0.00000  Uiso   1.00
C435   C     0.97036   0.40728   0.44717   0.00000  Uiso   1.00
C436   C     0.52964   0.59272   0.55283   0.00000  Uiso   1.00
Cu437  Cu    0.75500   0.50579   0.56146   0.00000  Uiso   1.00
Cu438  Cu    0.74499   0.49421   0.43854   0.00000  Uiso   1.00
H439   H     0.95095   0.37077   0.42696   0.00000  Uiso   1.00
H440   H     0.54905   0.62923   0.57304   0.00000  Uiso   1.00
N441   N     0.73744   0.48547   0.34617   0.00000  Uiso   1.00
N442   N     0.76255   0.51453   0.65383   0.00000  Uiso   1.00
O443   O     0.75325   0.42871   0.53992   0.00000  Uiso   1.00
O444   O     0.74674   0.57129   0.46008   0.00000  Uiso   1.00
O445   O     0.74480   0.41892   0.43612   0.00000  Uiso   1.00
O446   O     0.75520   0.58108   0.56388   0.00000  Uiso   1.00
O447   O     0.68935   0.50488   0.55191   0.00000  Uiso   1.00
O448   O     0.81064   0.49512   0.44809   0.00000  Uiso   1.00
O449   O     0.68090   0.49510   0.44810   0.00000  Uiso   1.00
O450   O     0.81910   0.50490   0.55190   0.00000  Uiso   1.00
F451   F     0.88786   0.58772   0.55124   0.00000  Uiso   1.00
F452   F     0.61214   0.41227   0.44877   0.00000  Uiso   1.00
I453   I     0.86024   0.38411   0.42662   0.00000  Uiso   1.00
I454   I     0.63976   0.61589   0.57339   0.00000  Uiso   1.00
I455   I     0.53980   0.66400   0.41329   0.00000  Uiso   1.00
I456   I     0.96020   0.33600   0.58671   0.00000  Uiso   1.00
F457   F     0.73027   0.64834   0.41949   0.00000  Uiso   1.00
F458   F     0.76973   0.35166   0.58051   0.00000  Uiso   1.00
I459   I     0.68558   0.43175   0.63440   0.00000  Uiso   1.00
I460   I     0.81442   0.56825   0.36560   0.00000  Uiso   1.00
C461   C     0.24804   0.73342   0.48459   0.00000  Uiso   1.00
C462   C     0.25196   0.93325   0.51541   0.00000  Uiso   1.00
C463   C     0.01664   0.73977   0.44897   0.00000  Uiso   1.00
C464   C     0.48336   0.92690   0.55103   0.00000  Uiso   1.00
C465   C     0.24494   0.67755   0.47636   0.00000  Uiso   1.00
C466   C     0.25506   0.98912   0.52364   0.00000  Uiso   1.00
C467   C     0.16475   0.83401   0.50088   0.00000  Uiso   1.00
C468   C     0.33525   0.83266   0.49912   0.00000  Uiso   1.00
C469   C     0.40931   0.87849   0.52489   0.00000  Uiso   1.00
C470   C     0.09069   0.78818   0.47511   0.00000  Uiso   1.00
C471   C     0.38332   0.83232   0.49728   0.00000  Uiso   1.00
C472   C     0.11668   0.83435   0.50272   0.00000  Uiso   1.00
C473   C     0.40276   0.78647   0.46945   0.00000  Uiso   1.00
C474   C     0.09724   0.88019   0.53055   0.00000  Uiso   1.00
C475   C     0.44967   0.78657   0.47148   0.00000  Uiso   1.00
C476   C     0.05033   0.88010   0.52852   0.00000  Uiso   1.00
C477   C     0.47643   0.83338   0.49923   0.00000  Uiso   1.00
C478   C     0.02357   0.83328   0.50077   0.00000  Uiso   1.00
C479   C     0.45611   0.88022   0.52528   0.00000  Uiso   1.00
C480   C     0.04389   0.78645   0.47472   0.00000  Uiso   1.00
C481   C     0.47036   0.74061   0.44717   0.00000  Uiso   1.00
C482   C     0.02964   0.92606   0.55283   0.00000  Uiso   1.00
Cu483  Cu    0.25500   0.83913   0.56146   0.00000  Uiso   1.00
Cu484  Cu    0.24499   0.82754   0.43854   0.00000  Uiso   1.00
H485   H     0.45095   0.70410   0.42696   0.00000  Uiso   1.00
H486   H     0.04905   0.96256   0.57304   0.00000  Uiso   1.00
N487   N     0.23744   0.81881   0.34617   0.00000  Uiso   1.00
N488   N     0.26255   0.84786   0.65383   0.00000  Uiso   1.00
O489   O     0.25325   0.76204   0.53992   0.00000  Uiso   1.00
O490   O     0.24674   0.90462   0.46008   0.00000  Uiso   1.00
O491   O     0.24480   0.75226   0.43612   0.00000  Uiso   1.00
O492   O     0.25520   0.91441   0.56388   0.00000  Uiso   1.00
O493   O     0.18935   0.83821   0.55191   0.00000  Uiso   1.00
O494   O     0.31064   0.82845   0.44809   0.00000  Uiso   1.00
O495   O     0.18090   0.82843   0.44810   0.00000  Uiso   1.00
O496   O     0.31910   0.83824   0.55190   0.00000  Uiso   1.00
F497   F     0.38786   0.92106   0.55124   0.00000  Uiso   1.00
F498   F     0.11214   0.74561   0.44877   0.00000  Uiso   1.00
I499   I     0.36024   0.71744   0.42662   0.00000  Uiso   1.00
I500   I     0.13976   0.94922   0.57339   0.00000  Uiso   1.00
I501   I     0.03980   0.99733   0.41329   0.00000  Uiso   1.00
I502   I     0.46020   0.66934   0.58671   0.00000  Uiso   1.00
F503   F     0.23027   0.98167   0.41949   0.00000  Uiso   1.00
F504   F     0.26973   0.68500   0.58051   0.00000  Uiso   1.00
I505   I     0.18558   0.76508   0.63440   0.00000  Uiso   1.00
I506   I     0.31442   0.90158   0.36560   0.00000  Uiso   1.00
C507   C     0.74804   0.73342   0.48459   0.00000  Uiso   1.00
C508   C     0.75196   0.93325   0.51541   0.00000  Uiso   1.00
C509   C     0.51664   0.73977   0.44897   0.00000  Uiso   1.00
C510   C     0.98336   0.92690   0.55103   0.00000  Uiso   1.00
C511   C     0.74494   0.67755   0.47636   0.00000  Uiso   1.00
C512   C     0.75506   0.98912   0.52364   0.00000  Uiso   1.00
C513   C     0.66475   0.83401   0.50088   0.00000  Uiso   1.00
C514   C     0.83525   0.83266   0.49912   0.00000  Uiso   1.00
C515   C     0.90931   0.87849   0.52489   0.00000  Uiso   1.00
C516   C     0.59069   0.78818   0.47511   0.00000  Uiso   1.00
C517   C     0.88332   0.83232   0.49728   0.00000  Uiso   1.00
C518   C     0.61668   0.83435   0.50272   0.00000  Uiso   1.00
C519   C     0.90276   0.78647   0.46945   0.00000  Uiso   1.00
C520   C     0.59724   0.88019   0.53055   0.00000  Uiso   1.00
C521   C     0.94967   0.78657   0.47148   0.00000  Uiso   1.00
C522   C     0.55033   0.88010   0.52852   0.00000  Uiso   1.00
C523   C     0.97643   0.83338   0.49923   0.00000  Uiso   1.00
C524   C     0.52357   0.83328   0.50077   0.00000  Uiso   1.00
C525   C     0.95611   0.88022   0.52528   0.00000  Uiso   1.00
C526   C     0.54389   0.78645   0.47472   0.00000  Uiso   1.00
C527   C     0.97036   0.74061   0.44717   0.00000  Uiso   1.00
C528   C     0.52964   0.92606   0.55283   0.00000  Uiso   1.00
Cu529  Cu    0.75500   0.83913   0.56146   0.00000  Uiso   1.00
Cu530  Cu    0.74499   0.82754   0.43854   0.00000  Uiso   1.00
H531   H     0.95095   0.70410   0.42696   0.00000  Uiso   1.00
H532   H     0.54905   0.96256   0.57304   0.00000  Uiso   1.00
N533   N     0.73744   0.81881   0.34617   0.00000  Uiso   1.00
N534   N     0.76255   0.84786   0.65383   0.00000  Uiso   1.00
O535   O     0.75325   0.76204   0.53992   0.00000  Uiso   1.00
O536   O     0.74674   0.90462   0.46008   0.00000  Uiso   1.00
O537   O     0.74480   0.75226   0.43612   0.00000  Uiso   1.00
O538   O     0.75520   0.91441   0.56388   0.00000  Uiso   1.00
O539   O     0.68935   0.83821   0.55191   0.00000  Uiso   1.00
O540   O     0.81064   0.82845   0.44809   0.00000  Uiso   1.00
O541   O     0.68090   0.82843   0.44810   0.00000  Uiso   1.00
O542   O     0.81910   0.83824   0.55190   0.00000  Uiso   1.00
F543   F     0.88786   0.92106   0.55124   0.00000  Uiso   1.00
F544   F     0.61214   0.74561   0.44877   0.00000  Uiso   1.00
I545   I     0.86024   0.71744   0.42662   0.00000  Uiso   1.00
I546   I     0.63976   0.94922   0.57339   0.00000  Uiso   1.00
I547   I     0.53980   0.99733   0.41329   0.00000  Uiso   1.00
I548   I     0.96020   0.66934   0.58671   0.00000  Uiso   1.00
F549   F     0.73027   0.98167   0.41949   0.00000  Uiso   1.00
F550   F     0.76973   0.68500   0.58051   0.00000  Uiso   1.00
I551   I     0.68558   0.76508   0.63440   0.00000  Uiso   1.00
I552   I     0.81442   0.90158   0.36560   0.00000  Uiso   1.00
C553   C     0.24804   0.06675   0.81793   0.00000  Uiso   1.00
C554   C     0.25196   0.26658   0.84874   0.00000  Uiso   1.00
C555   C     0.01664   0.07310   0.78230   0.00000  Uiso   1.00
C556   C     0.48336   0.26023   0.88436   0.00000  Uiso   1.00
C557   C     0.24494   0.01088   0.80969   0.00000  Uiso   1.00
C558   C     0.25506   0.32245   0.85698   0.00000  Uiso   1.00
C559   C     0.16475   0.16734   0.83422   0.00000  Uiso   1.00
C560   C     0.33525   0.16599   0.83245   0.00000  Uiso   1.00
C561   C     0.40931   0.21182   0.85823   0.00000  Uiso   1.00
C562   C     0.09069   0.12151   0.80844   0.00000  Uiso   1.00
C563   C     0.38332   0.16565   0.83061   0.00000  Uiso   1.00
C564   C     0.11668   0.16768   0.83605   0.00000  Uiso   1.00
C565   C     0.40276   0.11981   0.80279   0.00000  Uiso   1.00
C566   C     0.09724   0.21353   0.86388   0.00000  Uiso   1.00
C567   C     0.44967   0.11990   0.80482   0.00000  Uiso   1.00
C568   C     0.05033   0.21343   0.86185   0.00000  Uiso   1.00
C569   C     0.47643   0.16672   0.83256   0.00000  Uiso   1.00
C570   C     0.02357   0.16662   0.83410   0.00000  Uiso   1.00
C571   C     0.45611   0.21355   0.85861   0.00000  Uiso   1.00
C572   C     0.04389   0.11978   0.80805   0.00000  Uiso   1.00
C573   C     0.47036   0.07394   0.78050   0.00000  Uiso   1.00
C574   C     0.02964   0.25939   0.88616   0.00000  Uiso   1.00
Cu575  Cu    0.25500   0.17246   0.89479   0.00000  Uiso   1.00
Cu576  Cu    0.24499   0.16087   0.77187   0.00000  Uiso   1.00
H577   H     0.45095   0.03744   0.76029   0.00000  Uiso   1.00
H578   H     0.04905   0.29590   0.90637   0.00000  Uiso   1.00
N579   N     0.23744   0.15214   0.67951   0.00000  Uiso   1.00
N580   N     0.26255   0.18119   0.98716   0.00000  Uiso   1.00
O581   O     0.25325   0.09538   0.87326   0.00000  Uiso   1.00
O582   O     0.24674   0.23796   0.79341   0.00000  Uiso   1.00
O583   O     0.24480   0.08559   0.76945   0.00000  Uiso   1.00
O584   O     0.25520   0.24774   0.89721   0.00000  Uiso   1.00
O585   O     0.18935   0.17155   0.88524   0.00000  Uiso   1.00
O586   O     0.31064   0.16179   0.78143   0.00000  Uiso   1.00
O587   O     0.18090   0.16176   0.78143   0.00000  Uiso   1.00
O588   O     0.31910   0.17157   0.88523   0.00000  Uiso   1.00
F589   F     0.38786   0.25439   0.88457   0.00000  Uiso   1.00
F590   F     0.11214   0.07894   0.78210   0.00000  Uiso   1.00
I591   I     0.36024   0.05078   0.75995   0.00000  Uiso   1.00
I592   I     0.13976   0.28256   0.90672   0.00000  Uiso   1.00
I593   I     0.03980   0.33066   0.74663   0.00000  Uiso   1.00
I594   I     0.46020   0.00267   0.92004   0.00000  Uiso   1.00
F595   F     0.23027   0.31500   0.75282   0.00000  Uiso   1.00
F596   F     0.26973   0.01833   0.91384   0.00000  Uiso   1.00
I597   I     0.18558   0.09842   0.96773   0.00000  Uiso   1.00
I598   I     0.31442   0.23492   0.69893   0.00000  Uiso   1.00
C599   C     0.74804   0.06675   0.81793   0.00000  Uiso   1.00
C600   C     0.75196   0.26658   0.84874   0.00000  Uiso   1.00
C601   C     0.51664   0.07310   0.78230   0.00000  Uiso   1.00
C602   C     0.98336   0.26023   0.88436   0.00000  Uiso   1.00
C603   C     0.74494   0.01088   0.80969   0.00000  Uiso   1.00
C604   C     0.75506   0.32245   0.85698   0.00000  Uiso   1.00
C605   C     0.66475   0.16734   0.83422   0.00000  Uiso   1.00
C606   C     0.83525   0.16599   0.83245   0.00000  Uiso   1.00
C607   C     0.90931   0.21182   0.85823   0.00000  Uiso   1.00
C608   C     0.59069   0.12151   0.80844   0.00000  Uiso   1.00
C609   C     0.88332   0.16565   0.83061   0.00000  Uiso   1.00
C610   C     0.61668   0.16768   0.83605   0.00000  Uiso   1.00
C611   C     0.90276   0.11981   0.80279   0.00000  Uiso   1.00
C612   C     0.59724   0.21353   0.86388   0.00000  Uiso   1.00
C613   C     0.94967   0.11990   0.80482   0.00000  Uiso   1.00
C614   C     0.55033   0.21343   0.86185   0.00000  Uiso   1.00
C615   C     0.97643   0.16672   0.83256   0.00000  Uiso   1.00
C616   C     0.52357   0.16662   0.83410   0.00000  Uiso   1.00
C617   C     0.95611   0.21355   0.85861   0.00000  Uiso   1.00
C618   C     0.54389   0.11978   0.80805   0.00000  Uiso   1.00
C619   C     0.97036   0.07394   0.78050   0.00000  Uiso   1.00
C620   C     0.52964   0.25939   0.88616   0.00000  Uiso   1.00
Cu621  Cu    0.75500   0.17246   0.89479   0.00000  Uiso   1.00
Cu622  Cu    0.74499   0.16087   0.77187   0.00000  Uiso   1.00
H623   H     0.95095   0.03744   0.76029   0.00000  Uiso   1.00
H624   H     0.54905   0.29590   0.90637   0.00000  Uiso   1.00
N625   N     0.73744   0.15214   0.67951   0.00000  Uiso   1.00
N626   N     0.76255   0.18119   0.98716   0.00000  Uiso   1.00
O627   O     0.75325   0.09538   0.87326   0.00000  Uiso   1.00
O628   O     0.74674   0.23796   0.79341   0.00000  Uiso   1.00
O629   O     0.74480   0.08559   0.76945   0.00000  Uiso   1.00
O630   O     0.75520   0.24774   0.89721   0.00000  Uiso   1.00
O631   O     0.68935   0.17155   0.88524   0.00000  Uiso   1.00
O632   O     0.81064   0.16179   0.78143   0.00000  Uiso   1.00
O633   O     0.68090   0.16176   0.78143   0.00000  Uiso   1.00
O634   O     0.81910   0.17157   0.88523   0.00000  Uiso   1.00
F635   F     0.88786   0.25439   0.88457   0.00000  Uiso   1.00
F636   F     0.61214   0.07894   0.78210   0.00000  Uiso   1.00
I637   I     0.86024   0.05078   0.75995   0.00000  Uiso   1.00
I638   I     0.63976   0.28256   0.90672   0.00000  Uiso   1.00
I639   I     0.53980   0.33066   0.74663   0.00000  Uiso   1.00
I640   I     0.96020   0.00267   0.92004   0.00000  Uiso   1.00
F641   F     0.73027   0.31500   0.75282   0.00000  Uiso   1.00
F642   F     0.76973   0.01833   0.91384   0.00000  Uiso   1.00
I643   I     0.68558   0.09842   0.96773   0.00000  Uiso   1.00
I644   I     0.81442   0.23492   0.69893   0.00000  Uiso   1.00
C645   C     0.24804   0.40008   0.81793   0.00000  Uiso   1.00
C646   C     0.25196   0.59992   0.84874   0.00000  Uiso   1.00
C647   C     0.01664   0.40643   0.78230   0.00000  Uiso   1.00
C648   C     0.48336   0.59357   0.88436   0.00000  Uiso   1.00
C649   C     0.24494   0.34421   0.80969   0.00000  Uiso   1.00
C650   C     0.25506   0.65579   0.85698   0.00000  Uiso   1.00
C651   C     0.16475   0.50068   0.83422   0.00000  Uiso   1.00
C652   C     0.33525   0.49932   0.83245   0.00000  Uiso   1.00
C653   C     0.40931   0.54516   0.85823   0.00000  Uiso   1.00
C654   C     0.09069   0.45484   0.80844   0.00000  Uiso   1.00
C655   C     0.38332   0.49898   0.83061   0.00000  Uiso   1.00
C656   C     0.11668   0.50102   0.83605   0.00000  Uiso   1.00
C657   C     0.40276   0.45314   0.80279   0.00000  Uiso   1.00
C658   C     0.09724   0.54686   0.86388   0.00000  Uiso   1.00
C659   C     0.44967   0.45323   0.80482   0.00000  Uiso   1.00
C660   C     0.05033   0.54677   0.86185   0.00000  Uiso   1.00
C661   C     0.47643   0.50005   0.83256   0.00000  Uiso   1.00
C662   C     0.02357   0.49995   0.83410   0.00000  Uiso   1.00
C663   C     0.45611   0.54688   0.85861   0.00000  Uiso   1.00
C664   C     0.04389   0.45312   0.80805   0.00000  Uiso   1.00
C665   C     0.47036   0.40728   0.78050   0.00000  Uiso   1.00
C666   C     0.02964   0.59272   0.88616   0.00000  Uiso   1.00
Cu667  Cu    0.25500   0.50579   0.89479   0.00000  Uiso   1.00
Cu668  Cu    0.24499   0.49421   0.77187   0.00000  Uiso   1.00
H669   H     0.45095   0.37077   0.76029   0.00000  Uiso   1.00
H670   H     0.04905   0.62923   0.90637   0.00000  Uiso   1.00
N671   N     0.23744   0.48547   0.67951   0.00000  Uiso   1.00
N672   N     0.26255   0.51453   0.98716   0.00000  Uiso   1.00
O673   O     0.25325   0.42871   0.87326   0.00000  Uiso   1.00
O674   O     0.24674   0.57129   0.79341   0.00000  Uiso   1.00
O675   O     0.24480   0.41892   0.76945   0.00000  Uiso   1.00
O676   O     0.25520   0.58108   0.89721   0.00000  Uiso   1.00
O677   O     0.18935   0.50488   0.88524   0.00000  Uiso   1.00
O678   O     0.31064   0.49512   0.78143   0.00000  Uiso   1.00
O679   O     0.18090   0.49510   0.78143   0.00000  Uiso   1.00
O680   O     0.31910   0.50490   0.88523   0.00000  Uiso   1.00
F681   F     0.38786   0.58772   0.88457   0.00000  Uiso   1.00
F682   F     0.11214   0.41227   0.78210   0.00000  Uiso   1.00
I683   I     0.36024   0.38411   0.75995   0.00000  Uiso   1.00
I684   I     0.13976   0.61589   0.90672   0.00000  Uiso   1.00
I685   I     0.03980   0.66400   0.74663   0.00000  Uiso   1.00
I686   I     0.46020   0.33600   0.92004   0.00000  Uiso   1.00
F687   F     0.23027   0.64834   0.75282   0.00000  Uiso   1.00
F688   F     0.26973   0.35166   0.91384   0.00000  Uiso   1.00
I689   I     0.18558   0.43175   0.96773   0.00000  Uiso   1.00
I690   I     0.31442   0.56825   0.69893   0.00000  Uiso   1.00
C691   C     0.74804   0.40008   0.81793   0.00000  Uiso   1.00
C692   C     0.75196   0.59992   0.84874   0.00000  Uiso   1.00
C693   C     0.51664   0.40643   0.78230   0.00000  Uiso   1.00
C694   C     0.98336   0.59357   0.88436   0.00000  Uiso   1.00
C695   C     0.74494   0.34421   0.80969   0.00000  Uiso   1.00
C696   C     0.75506   0.65579   0.85698   0.00000  Uiso   1.00
C697   C     0.66475   0.50068   0.83422   0.00000  Uiso   1.00
C698   C     0.83525   0.49932   0.83245   0.00000  Uiso   1.00
C699   C     0.90931   0.54516   0.85823   0.00000  Uiso   1.00
C700   C     0.59069   0.45484   0.80844   0.00000  Uiso   1.00
C701   C     0.88332   0.49898   0.83061   0.00000  Uiso   1.00
C702   C     0.61668   0.50102   0.83605   0.00000  Uiso   1.00
C703   C     0.90276   0.45314   0.80279   0.00000  Uiso   1.00
C704   C     0.59724   0.54686   0.86388   0.00000  Uiso   1.00
C705   C     0.94967   0.45323   0.80482   0.00000  Uiso   1.00
C706   C     0.55033   0.54677   0.86185   0.00000  Uiso   1.00
C707   C     0.97643   0.50005   0.83256   0.00000  Uiso   1.00
C708   C     0.52357   0.49995   0.83410   0.00000  Uiso   1.00
C709   C     0.95611   0.54688   0.85861   0.00000  Uiso   1.00
C710   C     0.54389   0.45312   0.80805   0.00000  Uiso   1.00
C711   C     0.97036   0.40728   0.78050   0.00000  Uiso   1.00
C712   C     0.52964   0.59272   0.88616   0.00000  Uiso   1.00
Cu713  Cu    0.75500   0.50579   0.89479   0.00000  Uiso   1.00
Cu714  Cu    0.74499   0.49421   0.77187   0.00000  Uiso   1.00
H715   H     0.95095   0.37077   0.76029   0.00000  Uiso   1.00
H716   H     0.54905   0.62923   0.90637   0.00000  Uiso   1.00
N717   N     0.73744   0.48547   0.67951   0.00000  Uiso   1.00
N718   N     0.76255   0.51453   0.98716   0.00000  Uiso   1.00
O719   O     0.75325   0.42871   0.87326   0.00000  Uiso   1.00
O720   O     0.74674   0.57129   0.79341   0.00000  Uiso   1.00
O721   O     0.74480   0.41892   0.76945   0.00000  Uiso   1.00
O722   O     0.75520   0.58108   0.89721   0.00000  Uiso   1.00
O723   O     0.68935   0.50488   0.88524   0.00000  Uiso   1.00
O724   O     0.81064   0.49512   0.78143   0.00000  Uiso   1.00
O725   O     0.68090   0.49510   0.78143   0.00000  Uiso   1.00
O726   O     0.81910   0.50490   0.88523   0.00000  Uiso   1.00
F727   F     0.88786   0.58772   0.88457   0.00000  Uiso   1.00
F728   F     0.61214   0.41227   0.78210   0.00000  Uiso   1.00
I729   I     0.86024   0.38411   0.75995   0.00000  Uiso   1.00
I730   I     0.63976   0.61589   0.90672   0.00000  Uiso   1.00
I731   I     0.53980   0.66400   0.74663   0.00000  Uiso   1.00
I732   I     0.96020   0.33600   0.92004   0.00000  Uiso   1.00
F733   F     0.73027   0.64834   0.75282   0.00000  Uiso   1.00
F734   F     0.76973   0.35166   0.91384   0.00000  Uiso   1.00
I735   I     0.68558   0.43175   0.96773   0.00000  Uiso   1.00
I736   I     0.81442   0.56825   0.69893   0.00000  Uiso   1.00
C737   C     0.24804   0.73342   0.81793   0.00000  Uiso   1.00
C738   C     0.25196   0.93325   0.84874   0.00000  Uiso   1.00
C739   C     0.01664   0.73977   0.78230   0.00000  Uiso   1.00
C740   C     0.48336   0.92690   0.88436   0.00000  Uiso   1.00
C741   C     0.24494   0.67755   0.80969   0.00000  Uiso   1.00
C742   C     0.25506   0.98912   0.85698   0.00000  Uiso   1.00
C743   C     0.16475   0.83401   0.83422   0.00000  Uiso   1.00
C744   C     0.33525   0.83266   0.83245   0.00000  Uiso   1.00
C745   C     0.40931   0.87849   0.85823   0.00000  Uiso   1.00
C746   C     0.09069   0.78818   0.80844   0.00000  Uiso   1.00
C747   C     0.38332   0.83232   0.83061   0.00000  Uiso   1.00
C748   C     0.11668   0.83435   0.83605   0.00000  Uiso   1.00
C749   C     0.40276   0.78647   0.80279   0.00000  Uiso   1.00
C750   C     0.09724   0.88019   0.86388   0.00000  Uiso   1.00
C751   C     0.44967   0.78657   0.80482   0.00000  Uiso   1.00
C752   C     0.05033   0.88010   0.86185   0.00000  Uiso   1.00
C753   C     0.47643   0.83338   0.83256   0.00000  Uiso   1.00
C754   C     0.02357   0.83328   0.83410   0.00000  Uiso   1.00
C755   C     0.45611   0.88022   0.85861   0.00000  Uiso   1.00
C756   C     0.04389   0.78645   0.80805   0.00000  Uiso   1.00
C757   C     0.47036   0.74061   0.78050   0.00000  Uiso   1.00
C758   C     0.02964   0.92606   0.88616   0.00000  Uiso   1.00
Cu759  Cu    0.25500   0.83913   0.89479   0.00000  Uiso   1.00
Cu760  Cu    0.24499   0.82754   0.77187   0.00000  Uiso   1.00
H761   H     0.45095   0.70410   0.76029   0.00000  Uiso   1.00
H762   H     0.04905   0.96256   0.90637   0.00000  Uiso   1.00
N763   N     0.23744   0.81881   0.67951   0.00000  Uiso   1.00
N764   N     0.26255   0.84786   0.98716   0.00000  Uiso   1.00
O765   O     0.25325   0.76204   0.87326   0.00000  Uiso   1.00
O766   O     0.24674   0.90462   0.79341   0.00000  Uiso   1.00
O767   O     0.24480   0.75226   0.76945   0.00000  Uiso   1.00
O768   O     0.25520   0.91441   0.89721   0.00000  Uiso   1.00
O769   O     0.18935   0.83821   0.88524   0.00000  Uiso   1.00
O770   O     0.31064   0.82845   0.78143   0.00000  Uiso   1.00
O771   O     0.18090   0.82843   0.78143   0.00000  Uiso   1.00
O772   O     0.31910   0.83824   0.88523   0.00000  Uiso   1.00
F773   F     0.38786   0.92106   0.88457   0.00000  Uiso   1.00
F774   F     0.11214   0.74561   0.78210   0.00000  Uiso   1.00
I775   I     0.36024   0.71744   0.75995   0.00000  Uiso   1.00
I776   I     0.13976   0.94922   0.90672   0.00000  Uiso   1.00
I777   I     0.03980   0.99733   0.74663   0.00000  Uiso   1.00
I778   I     0.46020   0.66934   0.92004   0.00000  Uiso   1.00
F779   F     0.23027   0.98167   0.75282   0.00000  Uiso   1.00
F780   F     0.26973   0.68500   0.91384   0.00000  Uiso   1.00
I781   I     0.18558   0.76508   0.96773   0.00000  Uiso   1.00
I782   I     0.31442   0.90158   0.69893   0.00000  Uiso   1.00
C783   C     0.74804   0.73342   0.81793   0.00000  Uiso   1.00
C784   C     0.75196   0.93325   0.84874   0.00000  Uiso   1.00
C785   C     0.51664   0.73977   0.78230   0.00000  Uiso   1.00
C786   C     0.98336   0.92690   0.88436   0.00000  Uiso   1.00
C787   C     0.74494   0.67755   0.80969   0.00000  Uiso   1.00
C788   C     0.75506   0.98912   0.85698   0.00000  Uiso   1.00
C789   C     0.66475   0.83401   0.83422   0.00000  Uiso   1.00
C790   C     0.83525   0.83266   0.83245   0.00000  Uiso   1.00
C791   C     0.90931   0.87849   0.85823   0.00000  Uiso   1.00
C792   C     0.59069   0.78818   0.80844   0.00000  Uiso   1.00
C793   C     0.88332   0.83232   0.83061   0.00000  Uiso   1.00
C794   C     0.61668   0.83435   0.83605   0.00000  Uiso   1.00
C795   C     0.90276   0.78647   0.80279   0.00000  Uiso   1.00
C796   C     0.59724   0.88019   0.86388   0.00000  Uiso   1.00
C797   C     0.94967   0.78657   0.80482   0.00000  Uiso   1.00
C798   C     0.55033   0.88010   0.86185   0.00000  Uiso   1.00
C799   C     0.97643   0.83338   0.83256   0.00000  Uiso   1.00
C800   C     0.52357   0.83328   0.83410   0.00000  Uiso   1.00
C801   C     0.95611   0.88022   0.85861   0.00000  Uiso   1.00
C802   C     0.54389   0.78645   0.80805   0.00000  Uiso   1.00
C803   C     0.97036   0.74061   0.78050   0.00000  Uiso   1.00
C804   C     0.52964   0.92606   0.88616   0.00000  Uiso   1.00
Cu805  Cu    0.75500   0.83913   0.89479   0.00000  Uiso   1.00
Cu806  Cu    0.74499   0.82754   0.77187   0.00000  Uiso   1.00
H807   H     0.95095   0.70410   0.76029   0.00000  Uiso   1.00
H808   H     0.54905   0.96256   0.90637   0.00000  Uiso   1.00
N809   N     0.73744   0.81881   0.67951   0.00000  Uiso   1.00
N810   N     0.76255   0.84786   0.98716   0.00000  Uiso   1.00
O811   O     0.75325   0.76204   0.87326   0.00000  Uiso   1.00
O812   O     0.74674   0.90462   0.79341   0.00000  Uiso   1.00
O813   O     0.74480   0.75226   0.76945   0.00000  Uiso   1.00
O814   O     0.75520   0.91441   0.89721   0.00000  Uiso   1.00
O815   O     0.68935   0.83821   0.88524   0.00000  Uiso   1.00
O816   O     0.81064   0.82845   0.78143   0.00000  Uiso   1.00
O817   O     0.68090   0.82843   0.78143   0.00000  Uiso   1.00
O818   O     0.81910   0.83824   0.88523   0.00000  Uiso   1.00
F819   F     0.88786   0.92106   0.88457   0.00000  Uiso   1.00
F820   F     0.61214   0.74561   0.78210   0.00000  Uiso   1.00
I821   I     0.86024   0.71744   0.75995   0.00000  Uiso   1.00
I822   I     0.63976   0.94922   0.90672   0.00000  Uiso   1.00
I823   I     0.53980   0.99733   0.74663   0.00000  Uiso   1.00
I824   I     0.96020   0.66934   0.92004   0.00000  Uiso   1.00
F825   F     0.73027   0.98167   0.75282   0.00000  Uiso   1.00
F826   F     0.76973   0.68500   0.91384   0.00000  Uiso   1.00
I827   I     0.68558   0.76508   0.96773   0.00000  Uiso   1.00
I828   I     0.81442   0.90158   0.69893   0.00000  Uiso   1.00
loop_
_geom_bond_atom_site_label_1
_geom_bond_atom_site_label_2
_geom_bond_distance
_geom_bond_site_symmetry_2
_ccdc_geom_bond_type
C1     O31     1.296   .     A
C1     O29     1.295   .     A
C1     C5      1.428   .     S
C2     O30     1.295   .     A
C2     C6      1.428   .     S
C2     O32     1.296   .     A
C3     C20     1.414   .     A
C3     C67     1.388   1_455 S
C3     I225    2.138   1_545 S
C4     C19     1.414   .     A
C4     C68     1.388   .     S
C4     I134    2.138   .     S
C5     C190    1.341   1_545 S
C5     F227    1.363   1_545 S
C6     C97     1.341   .     S
C6     F136    1.363   .     S
C7     O33     1.299   .     A
C7     C12     1.446   .     S
C7     O35     1.299   .     A
C8     C11     1.446   .     S
C8     O36     1.299   .     A
C8     O34     1.299   .     A
C9     F37     1.357   .     S
C9     C11     1.394   .     A
C9     C19     1.402   .     A
C10    F38     1.357   .     S
C10    C12     1.394   .     A
C10    C20     1.402   .     A
C11    C13     1.400   .     A
C12    C14     1.400   .     A
C13    C15     1.405   .     A
C13    I39     2.146   .     S
C14    C16     1.405   .     A
C14    I40     2.146   .     S
C15    C21     1.401   .     A
C15    C17     1.418   .     A
C16    C18     1.418   .     A
C16    C22     1.401   .     A
C17    C19     1.423   .     A
C17    C64     1.412   .     S
C18    C20     1.423   .     A
C18    C63     1.412   1_455 S
C21    H25     1.079   .     S
C21    C49     1.388   .     S
C22    H26     1.079   .     S
C22    C50     1.388   1_455 S
Cu23   Cu24    2.711   .     S
Cu23   O32     1.958   .     S
Cu23   N28     2.037   .     S
Cu23   O29     1.962   .     S
Cu23   O36     1.952   .     S
Cu23   O33     1.964   .     S
Cu24   N27     2.037   .     S
Cu24   O31     1.958   .     S
Cu24   O30     1.962   .     S
Cu24   O35     1.952   .     S
Cu24   O34     1.964   .     S
N27    N580    1.298   1_554 S
N27    I597    2.078   1_554 S
N28    N303    1.298   .     S
N28    I322    2.078   .     S
I41    C95     2.138   .     S
I42    C188    2.138   1_545 S
F43    C97     1.363   .     S
F44    C190    1.363   1_545 S
I45    N303    2.078   .     S
I46    N580    2.078   1_554 S
C47    O77     1.296   .     A
C47    O75     1.295   .     A
C47    C51     1.428   .     S
C48    O76     1.295   .     A
C48    C52     1.428   .     S
C48    O78     1.296   .     A
C49    C66     1.414   .     A
C49    I271    2.138   1_545 S
C50    C65     1.414   .     A
C50    C22     1.388   1_655 S
C50    I180    2.138   .     S
C51    C236    1.341   1_545 S
C51    F273    1.363   1_545 S
C52    C143    1.341   .     S
C52    F182    1.363   .     S
C53    O79     1.299   .     A
C53    C58     1.446   .     S
C53    O81     1.299   .     A
C54    C57     1.446   .     S
C54    O82     1.299   .     A
C54    O80     1.299   .     A
C55    F83     1.357   .     S
C55    C57     1.394   .     A
C55    C65     1.402   .     A
C56    F84     1.357   .     S
C56    C58     1.394   .     A
C56    C66     1.402   .     A
C57    C59     1.400   .     A
C58    C60     1.400   .     A
C59    C61     1.405   .     A
C59    I85     2.146   .     S
C60    C62     1.405   .     A
C60    I86     2.146   .     S
C61    C67     1.401   .     A
C61    C63     1.418   .     A
C62    C64     1.418   .     A
C62    C68     1.401   .     A
C63    C65     1.423   .     A
C63    C18     1.412   1_655 S
C64    C66     1.423   .     A
C67    H71     1.079   .     S
C67    C3      1.388   1_655 S
C68    H72     1.079   .     S
Cu69   Cu70    2.711   .     S
Cu69   O78     1.958   .     S
Cu69   N74     2.037   .     S
Cu69   O75     1.962   .     S
Cu69   O82     1.952   .     S
Cu69   O79     1.964   .     S
Cu70   N73     2.037   .     S
Cu70   O77     1.958   .     S
Cu70   O76     1.962   .     S
Cu70   O81     1.952   .     S
Cu70   O80     1.964   .     S
N73    N626    1.298   1_554 S
N73    I643    2.078   1_554 S
N74    N349    1.298   .     S
N74    I368    2.078   .     S
I87    C141    2.138   .     S
I88    C234    2.138   1_545 S
F89    C143    1.363   .     S
F90    C236    1.363   1_545 S
I91    N349    2.078   .     S
I92    N626    2.078   1_554 S
C93    O123    1.296   .     A
C93    O121    1.295   .     A
C93    C97     1.428   .     S
C94    O122    1.295   .     A
C94    C98     1.428   .     S
C94    O124    1.296   .     A
C95    C112    1.414   .     A
C95    C159    1.388   1_455 S
C96    C111    1.414   .     A
C96    C160    1.388   .     S
C96    I226    2.138   .     S
C98    C189    1.341   .     S
C98    F228    1.363   .     S
C99    O125    1.299   .     A
C99    C104    1.446   .     S
C99    O127    1.299   .     A
C100   C103    1.446   .     S
C100   O128    1.299   .     A
C100   O126    1.299   .     A
C101   F129    1.357   .     S
C101   C103    1.394   .     A
C101   C111    1.402   .     A
C102   F130    1.357   .     S
C102   C104    1.394   .     A
C102   C112    1.402   .     A
C103   C105    1.400   .     A
C104   C106    1.400   .     A
C105   C107    1.405   .     A
C105   I131    2.146   .     S
C106   C108    1.405   .     A
C106   I132    2.146   .     S
C107   C113    1.401   .     A
C107   C109    1.418   .     A
C108   C110    1.418   .     A
C108   C114    1.401   .     A
C109   C111    1.423   .     A
C109   C156    1.412   .     S
C110   C112    1.423   .     A
C110   C155    1.412   1_455 S
C113   H117    1.079   .     S
C113   C141    1.388   .     S
C114   H118    1.079   .     S
C114   C142    1.388   1_455 S
Cu115  Cu116   2.711   .     S
Cu115  O124    1.958   .     S
Cu115  N120    2.037   .     S
Cu115  O121    1.962   .     S
Cu115  O128    1.952   .     S
Cu115  O125    1.964   .     S
Cu116  N119    2.037   .     S
Cu116  O123    1.958   .     S
Cu116  O122    1.962   .     S
Cu116  O127    1.952   .     S
Cu116  O126    1.964   .     S
N119   N672    1.298   1_554 S
N119   I689    2.078   1_554 S
N120   N395    1.298   .     S
N120   I414    2.078   .     S
I133   C187    2.138   .     S
F135   C189    1.363   .     S
I137   N395    2.078   .     S
I138   N672    2.078   1_554 S
C139   O169    1.296   .     A
C139   O167    1.295   .     A
C139   C143    1.428   .     S
C140   O168    1.295   .     A
C140   C144    1.428   .     S
C140   O170    1.296   .     A
C141   C158    1.414   .     A
C142   C157    1.414   .     A
C142   C114    1.388   1_655 S
C142   I272    2.138   .     S
C144   C235    1.341   .     S
C144   F274    1.363   .     S
C145   O171    1.299   .     A
C145   C150    1.446   .     S
C145   O173    1.299   .     A
C146   C149    1.446   .     S
C146   O174    1.299   .     A
C146   O172    1.299   .     A
C147   F175    1.357   .     S
C147   C149    1.394   .     A
C147   C157    1.402   .     A
C148   F176    1.357   .     S
C148   C150    1.394   .     A
C148   C158    1.402   .     A
C149   C151    1.400   .     A
C150   C152    1.400   .     A
C151   C153    1.405   .     A
C151   I177    2.146   .     S
C152   C154    1.405   .     A
C152   I178    2.146   .     S
C153   C159    1.401   .     A
C153   C155    1.418   .     A
C154   C156    1.418   .     A
C154   C160    1.401   .     A
C155   C157    1.423   .     A
C155   C110    1.412   1_655 S
C156   C158    1.423   .     A
C159   H163    1.079   .     S
C159   C95     1.388   1_655 S
C160   H164    1.079   .     S
Cu161  Cu162   2.711   .     S
Cu161  O170    1.958   .     S
Cu161  N166    2.037   .     S
Cu161  O167    1.962   .     S
Cu161  O174    1.952   .     S
Cu161  O171    1.964   .     S
Cu162  N165    2.037   .     S
Cu162  O169    1.958   .     S
Cu162  O168    1.962   .     S
Cu162  O173    1.952   .     S
Cu162  O172    1.964   .     S
N165   N718    1.298   1_554 S
N165   I735    2.078   1_554 S
N166   N441    1.298   .     S
N166   I460    2.078   .     S
I179   C233    2.138   .     S
F181   C235    1.363   .     S
I183   N441    2.078   .     S
I184   N718    2.078   1_554 S
C185   O215    1.296   .     A
C185   O213    1.295   .     A
C185   C189    1.428   .     S
C186   O214    1.295   .     A
C186   C190    1.428   .     S
C186   O216    1.296   .     A
C187   C204    1.414   .     A
C187   C251    1.388   1_455 S
C188   C203    1.414   .     A
C188   C252    1.388   .     S
C188   I42     2.138   1_565 S
C190   C5      1.341   1_565 S
C190   F44     1.363   1_565 S
C191   O217    1.299   .     A
C191   C196    1.446   .     S
C191   O219    1.299   .     A
C192   C195    1.446   .     S
C192   O220    1.299   .     A
C192   O218    1.299   .     A
C193   F221    1.357   .     S
C193   C195    1.394   .     A
C193   C203    1.402   .     A
C194   F222    1.357   .     S
C194   C196    1.394   .     A
C194   C204    1.402   .     A
C195   C197    1.400   .     A
C196   C198    1.400   .     A
C197   C199    1.405   .     A
C197   I223    2.146   .     S
C198   C200    1.405   .     A
C198   I224    2.146   .     S
C199   C205    1.401   .     A
C199   C201    1.418   .     A
C200   C202    1.418   .     A
C200   C206    1.401   .     A
C201   C203    1.423   .     A
C201   C248    1.412   .     S
C202   C204    1.423   .     A
C202   C247    1.412   1_455 S
C205   H209    1.079   .     S
C205   C233    1.388   .     S
C206   H210    1.079   .     S
C206   C234    1.388   1_455 S
Cu207  Cu208   2.711   .     S
Cu207  O216    1.958   .     S
Cu207  N212    2.037   .     S
Cu207  O213    1.962   .     S
Cu207  O220    1.952   .     S
Cu207  O217    1.964   .     S
Cu208  N211    2.037   .     S
Cu208  O215    1.958   .     S
Cu208  O214    1.962   .     S
Cu208  O219    1.952   .     S
Cu208  O218    1.964   .     S
N211   N764    1.298   1_554 S
N211   I781    2.078   1_554 S
N212   N487    1.298   .     S
N212   I506    2.078   .     S
I225   C3      2.138   1_565 S
F227   C5      1.363   1_565 S
I229   N487    2.078   .     S
I230   N764    2.078   1_554 S
C231   O261    1.296   .     A
C231   O259    1.295   .     A
C231   C235    1.428   .     S
C232   O260    1.295   .     A
C232   C236    1.428   .     S
C232   O262    1.296   .     A
C233   C250    1.414   .     A
C234   C249    1.414   .     A
C234   C206    1.388   1_655 S
C234   I88     2.138   1_565 S
C236   C51     1.341   1_565 S
C236   F90     1.363   1_565 S
C237   O263    1.299   .     A
C237   C242    1.446   .     S
C237   O265    1.299   .     A
C238   C241    1.446   .     S
C238   O266    1.299   .     A
C238   O264    1.299   .     A
C239   F267    1.357   .     S
C239   C241    1.394   .     A
C239   C249    1.402   .     A
C240   F268    1.357   .     S
C240   C242    1.394   .     A
C240   C250    1.402   .     A
C241   C243    1.400   .     A
C242   C244    1.400   .     A
C243   C245    1.405   .     A
C243   I269    2.146   .     S
C244   C246    1.405   .     A
C244   I270    2.146   .     S
C245   C251    1.401   .     A
C245   C247    1.418   .     A
C246   C248    1.418   .     A
C246   C252    1.401   .     A
C247   C249    1.423   .     A
C247   C202    1.412   1_655 S
C248   C250    1.423   .     A
C251   H255    1.079   .     S
C251   C187    1.388   1_655 S
C252   H256    1.079   .     S
Cu253  Cu254   2.711   .     S
Cu253  O262    1.958   .     S
Cu253  N258    2.037   .     S
Cu253  O259    1.962   .     S
Cu253  O266    1.952   .     S
Cu253  O263    1.964   .     S
Cu254  N257    2.037   .     S
Cu254  O261    1.958   .     S
Cu254  O260    1.962   .     S
Cu254  O265    1.952   .     S
Cu254  O264    1.964   .     S
N257   N810    1.298   1_554 S
N257   I827    2.078   1_554 S
N258   N533    1.298   .     S
N258   I552    2.078   .     S
I271   C49     2.138   1_565 S
F273   C51     1.363   1_565 S
I275   N533    2.078   .     S
I276   N810    2.078   1_554 S
C277   O307    1.296   .     A
C277   O305    1.295   .     A
C277   C281    1.428   .     S
C278   O306    1.295   .     A
C278   C282    1.428   .     S
C278   O308    1.296   .     A
C279   C296    1.414   .     A
C279   C343    1.388   1_455 S
C279   I501    2.138   1_545 S
C280   C295    1.414   .     A
C280   C344    1.388   .     S
C280   I410    2.138   .     S
C281   C466    1.341   1_545 S
C281   F503    1.363   1_545 S
C282   C373    1.341   .     S
C282   F412    1.363   .     S
C283   O309    1.299   .     A
C283   C288    1.446   .     S
C283   O311    1.299   .     A
C284   C287    1.446   .     S
C284   O312    1.299   .     A
C284   O310    1.299   .     A
C285   F313    1.357   .     S
C285   C287    1.394   .     A
C285   C295    1.402   .     A
C286   F314    1.357   .     S
C286   C288    1.394   .     A
C286   C296    1.402   .     A
C287   C289    1.400   .     A
C288   C290    1.400   .     A
C289   C291    1.405   .     A
C289   I315    2.146   .     S
C290   C292    1.405   .     A
C290   I316    2.146   .     S
C291   C297    1.401   .     A
C291   C293    1.418   .     A
C292   C294    1.418   .     A
C292   C298    1.401   .     A
C293   C295    1.423   .     A
C293   C340    1.412   .     S
C294   C296    1.423   .     A
C294   C339    1.412   1_455 S
C297   H301    1.079   .     S
C297   C325    1.388   .     S
C298   H302    1.079   .     S
C298   C326    1.388   1_455 S
Cu299  Cu300   2.711   .     S
Cu299  O308    1.958   .     S
Cu299  N304    2.037   .     S
Cu299  O305    1.962   .     S
Cu299  O312    1.952   .     S
Cu299  O309    1.964   .     S
Cu300  N303    2.037   .     S
Cu300  O307    1.958   .     S
Cu300  O306    1.962   .     S
Cu300  O311    1.952   .     S
Cu300  O310    1.964   .     S
N304   N579    1.298   .     S
N304   I598    2.078   .     S
I317   C371    2.138   .     S
I318   C464    2.138   1_545 S
F319   C373    1.363   .     S
F320   C466    1.363   1_545 S
I321   N579    2.078   .     S
C323   O353    1.296   .     A
C323   O351    1.295   .     A
C323   C327    1.428   .     S
C324   O352    1.295   .     A
C324   C328    1.428   .     S
C324   O354    1.296   .     A
C325   C342    1.414   .     A
C325   I547    2.138   1_545 S
C326   C341    1.414   .     A
C326   C298    1.388   1_655 S
C326   I456    2.138   .     S
C327   C512    1.341   1_545 S
C327   F549    1.363   1_545 S
C328   C419    1.341   .     S
C328   F458    1.363   .     S
C329   O355    1.299   .     A
C329   C334    1.446   .     S
C329   O357    1.299   .     A
C330   C333    1.446   .     S
C330   O358    1.299   .     A
C330   O356    1.299   .     A
C331   F359    1.357   .     S
C331   C333    1.394   .     A
C331   C341    1.402   .     A
C332   F360    1.357   .     S
C332   C334    1.394   .     A
C332   C342    1.402   .     A
C333   C335    1.400   .     A
C334   C336    1.400   .     A
C335   C337    1.405   .     A
C335   I361    2.146   .     S
C336   C338    1.405   .     A
C336   I362    2.146   .     S
C337   C343    1.401   .     A
C337   C339    1.418   .     A
C338   C340    1.418   .     A
C338   C344    1.401   .     A
C339   C341    1.423   .     A
C339   C294    1.412   1_655 S
C340   C342    1.423   .     A
C343   H347    1.079   .     S
C343   C279    1.388   1_655 S
C344   H348    1.079   .     S
Cu345  Cu346   2.711   .     S
Cu345  O354    1.958   .     S
Cu345  N350    2.037   .     S
Cu345  O351    1.962   .     S
Cu345  O358    1.952   .     S
Cu345  O355    1.964   .     S
Cu346  N349    2.037   .     S
Cu346  O353    1.958   .     S
Cu346  O352    1.962   .     S
Cu346  O357    1.952   .     S
Cu346  O356    1.964   .     S
N350   N625    1.298   .     S
N350   I644    2.078   .     S
I363   C417    2.138   .     S
I364   C510    2.138   1_545 S
F365   C419    1.363   .     S
F366   C512    1.363   1_545 S
I367   N625    2.078   .     S
C369   O399    1.296   .     A
C369   O397    1.295   .     A
C369   C373    1.428   .     S
C370   O398    1.295   .     A
C370   C374    1.428   .     S
C370   O400    1.296   .     A
C371   C388    1.414   .     A
C371   C435    1.388   1_455 S
C372   C387    1.414   .     A
C372   C436    1.388   .     S
C372   I502    2.138   .     S
C374   C465    1.341   .     S
C374   F504    1.363   .     S
C375   O401    1.299   .     A
C375   C380    1.446   .     S
C375   O403    1.299   .     A
C376   C379    1.446   .     S
C376   O404    1.299   .     A
C376   O402    1.299   .     A
C377   F405    1.357   .     S
C377   C379    1.394   .     A
C377   C387    1.402   .     A
C378   F406    1.357   .     S
C378   C380    1.394   .     A
C378   C388    1.402   .     A
C379   C381    1.400   .     A
C380   C382    1.400   .     A
C381   C383    1.405   .     A
C381   I407    2.146   .     S
C382   C384    1.405   .     A
C382   I408    2.146   .     S
C383   C389    1.401   .     A
C383   C385    1.418   .     A
C384   C386    1.418   .     A
C384   C390    1.401   .     A
C385   C387    1.423   .     A
C385   C432    1.412   .     S
C386   C388    1.423   .     A
C386   C431    1.412   1_455 S
C389   H393    1.079   .     S
C389   C417    1.388   .     S
C390   H394    1.079   .     S
C390   C418    1.388   1_455 S
Cu391  Cu392   2.711   .     S
Cu391  O400    1.958   .     S
Cu391  N396    2.037   .     S
Cu391  O397    1.962   .     S
Cu391  O404    1.952   .     S
Cu391  O401    1.964   .     S
Cu392  N395    2.037   .     S
Cu392  O399    1.958   .     S
Cu392  O398    1.962   .     S
Cu392  O403    1.952   .     S
Cu392  O402    1.964   .     S
N396   N671    1.298   .     S
N396   I690    2.078   .     S
I409   C463    2.138   .     S
F411   C465    1.363   .     S
I413   N671    2.078   .     S
C415   O445    1.296   .     A
C415   O443    1.295   .     A
C415   C419    1.428   .     S
C416   O444    1.295   .     A
C416   C420    1.428   .     S
C416   O446    1.296   .     A
C417   C434    1.414   .     A
C418   C433    1.414   .     A
C418   C390    1.388   1_655 S
C418   I548    2.138   .     S
C420   C511    1.341   .     S
C420   F550    1.363   .     S
C421   O447    1.299   .     A
C421   C426    1.446   .     S
C421   O449    1.299   .     A
C422   C425    1.446   .     S
C422   O450    1.299   .     A
C422   O448    1.299   .     A
C423   F451    1.357   .     S
C423   C425    1.394   .     A
C423   C433    1.402   .     A
C424   F452    1.357   .     S
C424   C426    1.394   .     A
C424   C434    1.402   .     A
C425   C427    1.400   .     A
C426   C428    1.400   .     A
C427   C429    1.405   .     A
C427   I453    2.146   .     S
C428   C430    1.405   .     A
C428   I454    2.146   .     S
C429   C435    1.401   .     A
C429   C431    1.418   .     A
C430   C432    1.418   .     A
C430   C436    1.401   .     A
C431   C433    1.423   .     A
C431   C386    1.412   1_655 S
C432   C434    1.423   .     A
C435   H439    1.079   .     S
C435   C371    1.388   1_655 S
C436   H440    1.079   .     S
Cu437  Cu438   2.711   .     S
Cu437  O446    1.958   .     S
Cu437  N442    2.037   .     S
Cu437  O443    1.962   .     S
Cu437  O450    1.952   .     S
Cu437  O447    1.964   .     S
Cu438  N441    2.037   .     S
Cu438  O445    1.958   .     S
Cu438  O444    1.962   .     S
Cu438  O449    1.952   .     S
Cu438  O448    1.964   .     S
N442   N717    1.298   .     S
N442   I736    2.078   .     S
I455   C509    2.138   .     S
F457   C511    1.363   .     S
I459   N717    2.078   .     S
C461   O491    1.296   .     A
C461   O489    1.295   .     A
C461   C465    1.428   .     S
C462   O490    1.295   .     A
C462   C466    1.428   .     S
C462   O492    1.296   .     A
C463   C480    1.414   .     A
C463   C527    1.388   1_455 S
C464   C479    1.414   .     A
C464   C528    1.388   .     S
C464   I318    2.138   1_565 S
C466   C281    1.341   1_565 S
C466   F320    1.363   1_565 S
C467   O493    1.299   .     A
C467   C472    1.446   .     S
C467   O495    1.299   .     A
C468   C471    1.446   .     S
C468   O496    1.299   .     A
C468   O494    1.299   .     A
C469   F497    1.357   .     S
C469   C471    1.394   .     A
C469   C479    1.402   .     A
C470   F498    1.357   .     S
C470   C472    1.394   .     A
C470   C480    1.402   .     A
C471   C473    1.400   .     A
C472   C474    1.400   .     A
C473   C475    1.405   .     A
C473   I499    2.146   .     S
C474   C476    1.405   .     A
C474   I500    2.146   .     S
C475   C481    1.401   .     A
C475   C477    1.418   .     A
C476   C478    1.418   .     A
C476   C482    1.401   .     A
C477   C479    1.423   .     A
C477   C524    1.412   .     S
C478   C480    1.423   .     A
C478   C523    1.412   1_455 S
C481   H485    1.079   .     S
C481   C509    1.388   .     S
C482   H486    1.079   .     S
C482   C510    1.388   1_455 S
Cu483  Cu484   2.711   .     S
Cu483  O492    1.958   .     S
Cu483  N488    2.037   .     S
Cu483  O489    1.962   .     S
Cu483  O496    1.952   .     S
Cu483  O493    1.964   .     S
Cu484  N487    2.037   .     S
Cu484  O491    1.958   .     S
Cu484  O490    1.962   .     S
Cu484  O495    1.952   .     S
Cu484  O494    1.964   .     S
N488   N763    1.298   .     S
N488   I782    2.078   .     S
I501   C279    2.138   1_565 S
F503   C281    1.363   1_565 S
I505   N763    2.078   .     S
C507   O537    1.296   .     A
C507   O535    1.295   .     A
C507   C511    1.428   .     S
C508   O536    1.295   .     A
C508   C512    1.428   .     S
C508   O538    1.296   .     A
C509   C526    1.414   .     A
C510   C525    1.414   .     A
C510   C482    1.388   1_655 S
C510   I364    2.138   1_565 S
C512   C327    1.341   1_565 S
C512   F366    1.363   1_565 S
C513   O539    1.299   .     A
C513   C518    1.446   .     S
C513   O541    1.299   .     A
C514   C517    1.446   .     S
C514   O542    1.299   .     A
C514   O540    1.299   .     A
C515   F543    1.357   .     S
C515   C517    1.394   .     A
C515   C525    1.402   .     A
C516   F544    1.357   .     S
C516   C518    1.394   .     A
C516   C526    1.402   .     A
C517   C519    1.400   .     A
C518   C520    1.400   .     A
C519   C521    1.405   .     A
C519   I545    2.146   .     S
C520   C522    1.405   .     A
C520   I546    2.146   .     S
C521   C527    1.401   .     A
C521   C523    1.418   .     A
C522   C524    1.418   .     A
C522   C528    1.401   .     A
C523   C525    1.423   .     A
C523   C478    1.412   1_655 S
C524   C526    1.423   .     A
C527   H531    1.079   .     S
C527   C463    1.388   1_655 S
C528   H532    1.079   .     S
Cu529  Cu530   2.711   .     S
Cu529  O538    1.958   .     S
Cu529  N534    2.037   .     S
Cu529  O535    1.962   .     S
Cu529  O542    1.952   .     S
Cu529  O539    1.964   .     S
Cu530  N533    2.037   .     S
Cu530  O537    1.958   .     S
Cu530  O536    1.962   .     S
Cu530  O541    1.952   .     S
Cu530  O540    1.964   .     S
N534   N809    1.298   .     S
N534   I828    2.078   .     S
I547   C325    2.138   1_565 S
F549   C327    1.363   1_565 S
I551   N809    2.078   .     S
C553   O583    1.296   .     A
C553   O581    1.295   .     A
C553   C557    1.428   .     S
C554   O582    1.295   .     A
C554   C558    1.428   .     S
C554   O584    1.296   .     A
C555   C572    1.414   .     A
C555   C619    1.388   1_455 S
C555   I777    2.138   1_545 S
C556   C571    1.414   .     A
C556   C620    1.388   .     S
C556   I686    2.138   .     S
C557   C742    1.341   1_545 S
C557   F779    1.363   1_545 S
C558   C649    1.341   .     S
C558   F688    1.363   .     S
C559   O585    1.299   .     A
C559   C564    1.446   .     S
C559   O587    1.299   .     A
C560   C563    1.446   .     S
C560   O588    1.299   .     A
C560   O586    1.299   .     A
C561   F589    1.357   .     S
C561   C563    1.394   .     A
C561   C571    1.402   .     A
C562   F590    1.357   .     S
C562   C564    1.394   .     A
C562   C572    1.402   .     A
C563   C565    1.400   .     A
C564   C566    1.400   .     A
C565   C567    1.405   .     A
C565   I591    2.146   .     S
C566   C568    1.405   .     A
C566   I592    2.146   .     S
C567   C573    1.401   .     A
C567   C569    1.418   .     A
C568   C570    1.418   .     A
C568   C574    1.401   .     A
C569   C571    1.423   .     A
C569   C616    1.412   .     S
C570   C572    1.423   .     A
C570   C615    1.412   1_455 S
C573   H577    1.079   .     S
C573   C601    1.388   .     S
C574   H578    1.079   .     S
C574   C602    1.388   1_455 S
Cu575  Cu576   2.711   .     S
Cu575  O584    1.958   .     S
Cu575  N580    2.037   .     S
Cu575  O581    1.962   .     S
Cu575  O588    1.952   .     S
Cu575  O585    1.964   .     S
Cu576  N579    2.037   .     S
Cu576  O583    1.958   .     S
Cu576  O582    1.962   .     S
Cu576  O587    1.952   .     S
Cu576  O586    1.964   .     S
N580   N27     1.298   1_556 S
N580   I46     2.078   1_556 S
I593   C647    2.138   .     S
I594   C740    2.138   1_545 S
F595   C649    1.363   .     S
F596   C742    1.363   1_545 S
I597   N27     2.078   1_556 S
C599   O629    1.296   .     A
C599   O627    1.295   .     A
C599   C603    1.428   .     S
C600   O628    1.295   .     A
C600   C604    1.428   .     S
C600   O630    1.296   .     A
C601   C618    1.414   .     A
C601   I823    2.138   1_545 S
C602   C617    1.414   .     A
C602   C574    1.388   1_655 S
C602   I732    2.138   .     S
C603   C788    1.341   1_545 S
C603   F825    1.363   1_545 S
C604   C695    1.341   .     S
C604   F734    1.363   .     S
C605   O631    1.299   .     A
C605   C610    1.446   .     S
C605   O633    1.299   .     A
C606   C609    1.446   .     S
C606   O634    1.299   .     A
C606   O632    1.299   .     A
C607   F635    1.357   .     S
C607   C609    1.394   .     A
C607   C617    1.402   .     A
C608   F636    1.357   .     S
C608   C610    1.394   .     A
C608   C618    1.402   .     A
C609   C611    1.400   .     A
C610   C612    1.400   .     A
C611   C613    1.405   .     A
C611   I637    2.146   .     S
C612   C614    1.405   .     A
C612   I638    2.146   .     S
C613   C619    1.401   .     A
C613   C615    1.418   .     A
C614   C616    1.418   .     A
C614   C620    1.401   .     A
C615   C617    1.423   .     A
C615   C570    1.412   1_655 S
C616   C618    1.423   .     A
C619   H623    1.079   .     S
C619   C555    1.388   1_655 S
C620   H624    1.079   .     S
Cu621  Cu622   2.711   .     S
Cu621  O630    1.958   .     S
Cu621  N626    2.037   .     S
Cu621  O627    1.962   .     S
Cu621  O634    1.952   .     S
Cu621  O631    1.964   .     S
Cu622  N625    2.037   .     S
Cu622  O629    1.958   .     S
Cu622  O628    1.962   .     S
Cu622  O633    1.952   .     S
Cu622  O632    1.964   .     S
N626   N73     1.298   1_556 S
N626   I92     2.078   1_556 S
I639   C693    2.138   .     S
I640   C786    2.138   1_545 S
F641   C695    1.363   .     S
F642   C788    1.363   1_545 S
I643   N73     2.078   1_556 S
C645   O675    1.296   .     A
C645   O673    1.295   .     A
C645   C649    1.428   .     S
C646   O674    1.295   .     A
C646   C650    1.428   .     S
C646   O676    1.296   .     A
C647   C664    1.414   .     A
C647   C711    1.388   1_455 S
C648   C663    1.414   .     A
C648   C712    1.388   .     S
C648   I778    2.138   .     S
C650   C741    1.341   .     S
C650   F780    1.363   .     S
C651   O677    1.299   .     A
C651   C656    1.446   .     S
C651   O679    1.299   .     A
C652   C655    1.446   .     S
C652   O680    1.299   .     A
C652   O678    1.299   .     A
C653   F681    1.357   .     S
C653   C655    1.394   .     A
C653   C663    1.402   .     A
C654   F682    1.357   .     S
C654   C656    1.394   .     A
C654   C664    1.402   .     A
C655   C657    1.400   .     A
C656   C658    1.400   .     A
C657   C659    1.405   .     A
C657   I683    2.146   .     S
C658   C660    1.405   .     A
C658   I684    2.146   .     S
C659   C665    1.401   .     A
C659   C661    1.418   .     A
C660   C662    1.418   .     A
C660   C666    1.401   .     A
C661   C663    1.423   .     A
C661   C708    1.412   .     S
C662   C664    1.423   .     A
C662   C707    1.412   1_455 S
C665   H669    1.079   .     S
C665   C693    1.388   .     S
C666   H670    1.079   .     S
C666   C694    1.388   1_455 S
Cu667  Cu668   2.711   .     S
Cu667  O676    1.958   .     S
Cu667  N672    2.037   .     S
Cu667  O673    1.962   .     S
Cu667  O680    1.952   .     S
Cu667  O677    1.964   .     S
Cu668  N671    2.037   .     S
Cu668  O675    1.958   .     S
Cu668  O674    1.962   .     S
Cu668  O679    1.952   .     S
Cu668  O678    1.964   .     S
N672   N119    1.298   1_556 S
N672   I138    2.078   1_556 S
I685   C739    2.138   .     S
F687   C741    1.363   .     S
I689   N119    2.078   1_556 S
C691   O721    1.296   .     A
C691   O719    1.295   .     A
C691   C695    1.428   .     S
C692   O720    1.295   .     A
C692   C696    1.428   .     S
C692   O722    1.296   .     A
C693   C710    1.414   .     A
C694   C709    1.414   .     A
C694   C666    1.388   1_655 S
C694   I824    2.138   .     S
C696   C787    1.341   .     S
C696   F826    1.363   .     S
C697   O723    1.299   .     A
C697   C702    1.446   .     S
C697   O725    1.299   .     A
C698   C701    1.446   .     S
C698   O726    1.299   .     A
C698   O724    1.299   .     A
C699   F727    1.357   .     S
C699   C701    1.394   .     A
C699   C709    1.402   .     A
C700   F728    1.357   .     S
C700   C702    1.394   .     A
C700   C710    1.402   .     A
C701   C703    1.400   .     A
C702   C704    1.400   .     A
C703   C705    1.405   .     A
C703   I729    2.146   .     S
C704   C706    1.405   .     A
C704   I730    2.146   .     S
C705   C711    1.401   .     A
C705   C707    1.418   .     A
C706   C708    1.418   .     A
C706   C712    1.401   .     A
C707   C709    1.423   .     A
C707   C662    1.412   1_655 S
C708   C710    1.423   .     A
C711   H715    1.079   .     S
C711   C647    1.388   1_655 S
C712   H716    1.079   .     S
Cu713  Cu714   2.711   .     S
Cu713  O722    1.958   .     S
Cu713  N718    2.037   .     S
Cu713  O719    1.962   .     S
Cu713  O726    1.952   .     S
Cu713  O723    1.964   .     S
Cu714  N717    2.037   .     S
Cu714  O721    1.958   .     S
Cu714  O720    1.962   .     S
Cu714  O725    1.952   .     S
Cu714  O724    1.964   .     S
N718   N165    1.298   1_556 S
N718   I184    2.078   1_556 S
I731   C785    2.138   .     S
F733   C787    1.363   .     S
I735   N165    2.078   1_556 S
C737   O767    1.296   .     A
C737   O765    1.295   .     A
C737   C741    1.428   .     S
C738   O766    1.295   .     A
C738   C742    1.428   .     S
C738   O768    1.296   .     A
C739   C756    1.414   .     A
C739   C803    1.388   1_455 S
C740   C755    1.414   .     A
C740   C804    1.388   .     S
C740   I594    2.138   1_565 S
C742   C557    1.341   1_565 S
C742   F596    1.363   1_565 S
C743   O769    1.299   .     A
C743   C748    1.446   .     S
C743   O771    1.299   .     A
C744   C747    1.446   .     S
C744   O772    1.299   .     A
C744   O770    1.299   .     A
C745   F773    1.357   .     S
C745   C747    1.394   .     A
C745   C755    1.402   .     A
C746   F774    1.357   .     S
C746   C748    1.394   .     A
C746   C756    1.402   .     A
C747   C749    1.400   .     A
C748   C750    1.400   .     A
C749   C751    1.405   .     A
C749   I775    2.146   .     S
C750   C752    1.405   .     A
C750   I776    2.146   .     S
C751   C757    1.401   .     A
C751   C753    1.418   .     A
C752   C754    1.418   .     A
C752   C758    1.401   .     A
C753   C755    1.423   .     A
C753   C800    1.412   .     S
C754   C756    1.423   .     A
C754   C799    1.412   1_455 S
C757   H761    1.079   .     S
C757   C785    1.388   .     S
C758   H762    1.079   .     S
C758   C786    1.388   1_455 S
Cu759  Cu760   2.711   .     S
Cu759  O768    1.958   .     S
Cu759  N764    2.037   .     S
Cu759  O765    1.962   .     S
Cu759  O772    1.952   .     S
Cu759  O769    1.964   .     S
Cu760  N763    2.037   .     S
Cu760  O767    1.958   .     S
Cu760  O766    1.962   .     S
Cu760  O771    1.952   .     S
Cu760  O770    1.964   .     S
N764   N211    1.298   1_556 S
N764   I230    2.078   1_556 S
I777   C555    2.138   1_565 S
F779   C557    1.363   1_565 S
I781   N211    2.078   1_556 S
C783   O813    1.296   .     A
C783   O811    1.295   .     A
C783   C787    1.428   .     S
C784   O812    1.295   .     A
C784   C788    1.428   .     S
C784   O814    1.296   .     A
C785   C802    1.414   .     A
C786   C801    1.414   .     A
C786   C758    1.388   1_655 S
C786   I640    2.138   1_565 S
C788   C603    1.341   1_565 S
C788   F642    1.363   1_565 S
C789   O815    1.299   .     A
C789   C794    1.446   .     S
C789   O817    1.299   .     A
C790   C793    1.446   .     S
C790   O818    1.299   .     A
C790   O816    1.299   .     A
C791   F819    1.357   .     S
C791   C793    1.394   .     A
C791   C801    1.402   .     A
C792   F820    1.357   .     S
C792   C794    1.394   .     A
C792   C802    1.402   .     A
C793   C795    1.400   .     A
C794   C796    1.400   .     A
C795   C797    1.405   .     A
C795   I821    2.146   .     S
C796   C798    1.405   .     A
C796   I822    2.146   .     S
C797   C803    1.401   .     A
C797   C799    1.418   .     A
C798   C800    1.418   .     A
C798   C804    1.401   .     A
C799   C801    1.423   .     A
C799   C754    1.412   1_655 S
C800   C802    1.423   .     A
C803   H807    1.079   .     S
C803   C739    1.388   1_655 S
C804   H808    1.079   .     S
Cu805  Cu806   2.711   .     S
Cu805  O814    1.958   .     S
Cu805  N810    2.037   .     S
Cu805  O811    1.962   .     S
Cu805  O818    1.952   .     S
Cu805  O815    1.964   .     S
Cu806  N809    2.037   .     S
Cu806  O813    1.958   .     S
Cu806  O812    1.962   .     S
Cu806  O817    1.952   .     S
Cu806  O816    1.964   .     S
N810   N257    1.298   1_556 S
N810   I276    2.078   1_556 S
I823   C601    2.138   1_565 S
F825   C603    1.363   1_565 S
I827   N257    2.078   1_556 S
