data_str_m2_o10_o18_pcu_sym.25
_audit_creation_date              2020-01-03
_audit_creation_method            'Materials Studio'
_symmetry_space_group_name_H-M    'P1'
_symmetry_Int_Tables_number       1
_symmetry_cell_setting            triclinic
loop_
_symmetry_equiv_pos_as_xyz
  x,y,z
_cell_length_a                    22.4248
_cell_length_b                    26.0571
_cell_length_c                    31.3396
_cell_angle_alpha                 94.2359
_cell_angle_beta                  74.9821
_cell_angle_gamma                 103.2617
loop_
_atom_site_label
_atom_site_type_symbol
_atom_site_fract_x
_atom_site_fract_y
_atom_site_fract_z
_atom_site_U_iso_or_equiv
_atom_site_adp_type
_atom_site_occupancy
C1     C     0.18170   0.26668   0.25130   0.00000  Uiso   1.00
C2     C     0.20531   0.17104   0.16681   0.00000  Uiso   1.00
C3     C     0.10365   0.14763   0.37964   0.00000  Uiso   1.00
C4     C     0.22865   0.17909   0.11908   0.00000  Uiso   1.00
C5     C     0.04082   0.08445   0.43551   0.00000  Uiso   1.00
C6     C     0.29970   0.22781   0.05663   0.00000  Uiso   1.00
C7     C     0.05773   0.10132   0.39196   0.00000  Uiso   1.00
C8     C     0.28361   0.21648   0.10145   0.00000  Uiso   1.00
C9     C     0.13590   0.17402   0.41019   0.00000  Uiso   1.00
C10    C     0.19014   0.15393   0.09175   0.00000  Uiso   1.00
C11    C     0.12964   0.15020   0.45032   0.00000  Uiso   1.00
C12    C     0.15163   0.06665   0.24871   0.00000  Uiso   1.00
C13    C     0.19961   0.17071   0.04845   0.00000  Uiso   1.00
C14    C     0.07619   0.10947   0.46504   0.00000  Uiso   1.00
C15    C     0.25835   0.20506   0.03005   0.00000  Uiso   1.00
C16    C     0.17455   0.16544   0.47610   0.00000  Uiso   1.00
C17    C     0.15476   0.15281   0.02224   0.00000  Uiso   1.00
C18    C     0.05225   0.12302   0.08667   0.00000  Uiso   1.00
C19    C     0.03577   0.06890   0.10821   0.00000  Uiso   1.00
C20    C     0.27342   0.18464   0.40813   0.00000  Uiso   1.00
C21    C     0.26101   0.12799   0.38990   0.00000  Uiso   1.00
C22    C     0.09121   0.12259   0.03912   0.00000  Uiso   1.00
C23    C     0.23944   0.18959   0.45693   0.00000  Uiso   1.00
C24    C     0.05718   0.09627   0.00927   0.00000  Uiso   1.00
C25    C     0.27777   0.21330   0.48482   0.00000  Uiso   1.00
C26    C     0.19010   0.32271   0.25191   0.00000  Uiso   1.00
C27    C     0.14324   0.01063   0.24810   0.00000  Uiso   1.00
C28    C     0.12791   0.16146   0.33307   0.00000  Uiso   1.00
Cu29   Cu    0.10737   0.16108   0.24517   0.00000  Uiso   1.00
Cu30   Cu    0.22596   0.17225   0.25484   0.00000  Uiso   1.00
H31    H     0.01178   0.06963   0.02137   0.00000  Uiso   1.00
H32    H     0.09812   0.32009   0.24452   0.00000  Uiso   1.00
H33    H     0.00101   0.20511   0.28471   0.00000  Uiso   1.00
H34    H     0.33225   0.12816   0.21538   0.00000  Uiso   1.00
H35    H     0.33130   0.04178   0.09554   0.00000  Uiso   1.00
H36    H     0.07733   0.05049   0.10128   0.00000  Uiso   1.00
H37    H     0.01804   0.07324   0.14450   0.00000  Uiso   1.00
H38    H     0.07353   0.15477   0.10720   0.00000  Uiso   1.00
H39    H     0.00690   0.13327   0.08670   0.00000  Uiso   1.00
H40    H     0.26506   0.10006   0.41348   0.00000  Uiso   1.00
H41    H     0.21382   0.11498   0.38336   0.00000  Uiso   1.00
H42    H     0.32543   0.23531   0.47075   0.00000  Uiso   1.00
H43    H     0.29556   0.12547   0.35772   0.00000  Uiso   1.00
H44    H     0.26398   0.21224   0.38688   0.00000  Uiso   1.00
H45    H     0.32547   0.19677   0.40395   0.00000  Uiso   1.00
H46    H     0.15353   0.12089   0.10525   0.00000  Uiso   1.00
H47    H     0.16778   0.21155   0.40144   0.00000  Uiso   1.00
H48    H     0.31401   0.23649   0.12214   0.00000  Uiso   1.00
H49    H     0.03502   0.07837   0.36802   0.00000  Uiso   1.00
H50    H     0.00176   0.05100   0.44566   0.00000  Uiso   1.00
H51    H     0.01077   0.25485   0.04283   0.00000  Uiso   1.00
H52    H     0.23522   0.01325   0.25549   0.00000  Uiso   1.00
N53    N     0.31506   0.18068   0.26212   0.00000  Uiso   1.00
N54    N     0.01827   0.15265   0.23788   0.00000  Uiso   1.00
O55    O     0.12815   0.23809   0.24686   0.00000  Uiso   1.00
O56    O     0.20518   0.09524   0.25314   0.00000  Uiso   1.00
O57    O     0.22829   0.24753   0.25503   0.00000  Uiso   1.00
O58    O     0.10504   0.08580   0.24498   0.00000  Uiso   1.00
O59    O     0.08851   0.15930   0.30855   0.00000  Uiso   1.00
O60    O     0.24482   0.17403   0.19146   0.00000  Uiso   1.00
O61    O     0.18866   0.16874   0.31671   0.00000  Uiso   1.00
O62    O     0.14468   0.16460   0.18329   0.00000  Uiso   1.00
C63    C     0.51503   0.26668   0.25130   0.00000  Uiso   1.00
C64    C     0.53864   0.17104   0.16681   0.00000  Uiso   1.00
C65    C     0.43698   0.14763   0.37964   0.00000  Uiso   1.00
C66    C     0.56198   0.17909   0.11908   0.00000  Uiso   1.00
C67    C     0.37415   0.08445   0.43551   0.00000  Uiso   1.00
C68    C     0.63304   0.22781   0.05663   0.00000  Uiso   1.00
C69    C     0.39107   0.10132   0.39196   0.00000  Uiso   1.00
C70    C     0.61694   0.21648   0.10145   0.00000  Uiso   1.00
C71    C     0.46923   0.17402   0.41019   0.00000  Uiso   1.00
C72    C     0.52348   0.15393   0.09175   0.00000  Uiso   1.00
C73    C     0.46297   0.15020   0.45032   0.00000  Uiso   1.00
C74    C     0.48497   0.06665   0.24871   0.00000  Uiso   1.00
C75    C     0.53295   0.17071   0.04845   0.00000  Uiso   1.00
C76    C     0.40952   0.10947   0.46504   0.00000  Uiso   1.00
C77    C     0.59168   0.20506   0.03005   0.00000  Uiso   1.00
C78    C     0.50788   0.16544   0.47610   0.00000  Uiso   1.00
C79    C     0.48810   0.15281   0.02224   0.00000  Uiso   1.00
C80    C     0.38558   0.12302   0.08667   0.00000  Uiso   1.00
C81    C     0.36910   0.06890   0.10821   0.00000  Uiso   1.00
C82    C     0.60675   0.18464   0.40813   0.00000  Uiso   1.00
C83    C     0.59434   0.12799   0.38990   0.00000  Uiso   1.00
C84    C     0.42454   0.12259   0.03912   0.00000  Uiso   1.00
C85    C     0.57277   0.18959   0.45693   0.00000  Uiso   1.00
C86    C     0.39051   0.09627   0.00927   0.00000  Uiso   1.00
C87    C     0.61110   0.21330   0.48482   0.00000  Uiso   1.00
C88    C     0.52344   0.32271   0.25191   0.00000  Uiso   1.00
C89    C     0.47657   0.01063   0.24810   0.00000  Uiso   1.00
C90    C     0.46125   0.16146   0.33307   0.00000  Uiso   1.00
Cu91   Cu    0.44071   0.16108   0.24517   0.00000  Uiso   1.00
Cu92   Cu    0.55929   0.17225   0.25484   0.00000  Uiso   1.00
H93    H     0.34511   0.06963   0.02137   0.00000  Uiso   1.00
H94    H     0.43145   0.32009   0.24452   0.00000  Uiso   1.00
H95    H     0.33434   0.20511   0.28471   0.00000  Uiso   1.00
H96    H     0.66558   0.12816   0.21538   0.00000  Uiso   1.00
H97    H     0.66464   0.04178   0.09554   0.00000  Uiso   1.00
H98    H     0.41067   0.05049   0.10128   0.00000  Uiso   1.00
H99    H     0.35138   0.07324   0.14450   0.00000  Uiso   1.00
H100   H     0.40687   0.15477   0.10720   0.00000  Uiso   1.00
H101   H     0.34023   0.13327   0.08670   0.00000  Uiso   1.00
H102   H     0.59839   0.10006   0.41348   0.00000  Uiso   1.00
H103   H     0.54715   0.11498   0.38336   0.00000  Uiso   1.00
H104   H     0.65877   0.23531   0.47075   0.00000  Uiso   1.00
H105   H     0.62890   0.12547   0.35772   0.00000  Uiso   1.00
H106   H     0.59731   0.21224   0.38688   0.00000  Uiso   1.00
H107   H     0.65880   0.19677   0.40395   0.00000  Uiso   1.00
H108   H     0.48687   0.12089   0.10525   0.00000  Uiso   1.00
H109   H     0.50111   0.21155   0.40144   0.00000  Uiso   1.00
H110   H     0.64735   0.23649   0.12214   0.00000  Uiso   1.00
H111   H     0.36835   0.07837   0.36802   0.00000  Uiso   1.00
H112   H     0.33510   0.05100   0.44566   0.00000  Uiso   1.00
H113   H     0.34411   0.25485   0.04283   0.00000  Uiso   1.00
H114   H     0.56855   0.01325   0.25549   0.00000  Uiso   1.00
N115   N     0.64839   0.18068   0.26212   0.00000  Uiso   1.00
N116   N     0.35161   0.15265   0.23788   0.00000  Uiso   1.00
O117   O     0.46148   0.23809   0.24686   0.00000  Uiso   1.00
O118   O     0.53852   0.09524   0.25314   0.00000  Uiso   1.00
O119   O     0.56163   0.24753   0.25503   0.00000  Uiso   1.00
O120   O     0.43837   0.08580   0.24498   0.00000  Uiso   1.00
O121   O     0.42185   0.15930   0.30855   0.00000  Uiso   1.00
O122   O     0.57815   0.17403   0.19146   0.00000  Uiso   1.00
O123   O     0.52199   0.16874   0.31671   0.00000  Uiso   1.00
O124   O     0.47801   0.16460   0.18329   0.00000  Uiso   1.00
C125   C     0.84837   0.26668   0.25130   0.00000  Uiso   1.00
C126   C     0.87197   0.17104   0.16681   0.00000  Uiso   1.00
C127   C     0.77031   0.14763   0.37964   0.00000  Uiso   1.00
C128   C     0.89531   0.17909   0.11908   0.00000  Uiso   1.00
C129   C     0.70749   0.08445   0.43551   0.00000  Uiso   1.00
C130   C     0.96637   0.22781   0.05663   0.00000  Uiso   1.00
C131   C     0.72440   0.10132   0.39196   0.00000  Uiso   1.00
C132   C     0.95027   0.21648   0.10145   0.00000  Uiso   1.00
C133   C     0.80256   0.17402   0.41019   0.00000  Uiso   1.00
C134   C     0.85681   0.15393   0.09175   0.00000  Uiso   1.00
C135   C     0.79630   0.15020   0.45032   0.00000  Uiso   1.00
C136   C     0.81830   0.06665   0.24871   0.00000  Uiso   1.00
C137   C     0.86628   0.17071   0.04845   0.00000  Uiso   1.00
C138   C     0.74286   0.10947   0.46504   0.00000  Uiso   1.00
C139   C     0.92502   0.20506   0.03005   0.00000  Uiso   1.00
C140   C     0.84122   0.16544   0.47610   0.00000  Uiso   1.00
C141   C     0.82143   0.15281   0.02224   0.00000  Uiso   1.00
C142   C     0.71891   0.12302   0.08667   0.00000  Uiso   1.00
C143   C     0.70244   0.06890   0.10821   0.00000  Uiso   1.00
C144   C     0.94009   0.18464   0.40813   0.00000  Uiso   1.00
C145   C     0.92767   0.12799   0.38990   0.00000  Uiso   1.00
C146   C     0.75788   0.12259   0.03912   0.00000  Uiso   1.00
C147   C     0.90611   0.18959   0.45693   0.00000  Uiso   1.00
C148   C     0.72385   0.09627   0.00927   0.00000  Uiso   1.00
C149   C     0.94443   0.21330   0.48482   0.00000  Uiso   1.00
C150   C     0.85677   0.32271   0.25191   0.00000  Uiso   1.00
C151   C     0.80990   0.01063   0.24810   0.00000  Uiso   1.00
C152   C     0.79458   0.16146   0.33307   0.00000  Uiso   1.00
Cu153  Cu    0.77404   0.16108   0.24517   0.00000  Uiso   1.00
Cu154  Cu    0.89263   0.17225   0.25484   0.00000  Uiso   1.00
H155   H     0.67845   0.06963   0.02137   0.00000  Uiso   1.00
H156   H     0.76479   0.32009   0.24452   0.00000  Uiso   1.00
H157   H     0.66767   0.20511   0.28471   0.00000  Uiso   1.00
H158   H     0.99891   0.12816   0.21538   0.00000  Uiso   1.00
H159   H     0.99797   0.04178   0.09554   0.00000  Uiso   1.00
H160   H     0.74400   0.05049   0.10128   0.00000  Uiso   1.00
H161   H     0.68471   0.07324   0.14450   0.00000  Uiso   1.00
H162   H     0.74020   0.15477   0.10720   0.00000  Uiso   1.00
H163   H     0.67357   0.13327   0.08670   0.00000  Uiso   1.00
H164   H     0.93172   0.10006   0.41348   0.00000  Uiso   1.00
H165   H     0.88048   0.11498   0.38336   0.00000  Uiso   1.00
H166   H     0.99210   0.23531   0.47075   0.00000  Uiso   1.00
H167   H     0.96223   0.12547   0.35772   0.00000  Uiso   1.00
H168   H     0.93065   0.21224   0.38688   0.00000  Uiso   1.00
H169   H     0.99213   0.19677   0.40395   0.00000  Uiso   1.00
H170   H     0.82020   0.12089   0.10525   0.00000  Uiso   1.00
H171   H     0.83445   0.21155   0.40144   0.00000  Uiso   1.00
H172   H     0.98068   0.23649   0.12214   0.00000  Uiso   1.00
H173   H     0.70169   0.07837   0.36802   0.00000  Uiso   1.00
H174   H     0.66843   0.05100   0.44566   0.00000  Uiso   1.00
H175   H     0.67744   0.25485   0.04283   0.00000  Uiso   1.00
H176   H     0.90189   0.01325   0.25549   0.00000  Uiso   1.00
N177   N     0.98173   0.18068   0.26212   0.00000  Uiso   1.00
N178   N     0.68494   0.15265   0.23788   0.00000  Uiso   1.00
O179   O     0.79482   0.23809   0.24686   0.00000  Uiso   1.00
O180   O     0.87185   0.09524   0.25314   0.00000  Uiso   1.00
O181   O     0.89496   0.24753   0.25503   0.00000  Uiso   1.00
O182   O     0.77171   0.08580   0.24498   0.00000  Uiso   1.00
O183   O     0.75518   0.15930   0.30855   0.00000  Uiso   1.00
O184   O     0.91149   0.17403   0.19146   0.00000  Uiso   1.00
O185   O     0.85532   0.16874   0.31671   0.00000  Uiso   1.00
O186   O     0.81134   0.16460   0.18329   0.00000  Uiso   1.00
C187   C     0.18170   0.60001   0.25130   0.00000  Uiso   1.00
C188   C     0.20531   0.50437   0.16681   0.00000  Uiso   1.00
C189   C     0.10365   0.48096   0.37964   0.00000  Uiso   1.00
C190   C     0.22865   0.51243   0.11908   0.00000  Uiso   1.00
C191   C     0.04082   0.41779   0.43551   0.00000  Uiso   1.00
C192   C     0.29970   0.56115   0.05663   0.00000  Uiso   1.00
C193   C     0.05773   0.43465   0.39196   0.00000  Uiso   1.00
C194   C     0.28361   0.54981   0.10145   0.00000  Uiso   1.00
C195   C     0.13590   0.50736   0.41019   0.00000  Uiso   1.00
C196   C     0.19014   0.48727   0.09175   0.00000  Uiso   1.00
C197   C     0.12964   0.48353   0.45032   0.00000  Uiso   1.00
C198   C     0.15163   0.39999   0.24871   0.00000  Uiso   1.00
C199   C     0.19961   0.50404   0.04845   0.00000  Uiso   1.00
C200   C     0.07619   0.44281   0.46504   0.00000  Uiso   1.00
C201   C     0.25835   0.53839   0.03005   0.00000  Uiso   1.00
C202   C     0.17455   0.49877   0.47610   0.00000  Uiso   1.00
C203   C     0.15476   0.48614   0.02224   0.00000  Uiso   1.00
C204   C     0.05225   0.45635   0.08667   0.00000  Uiso   1.00
C205   C     0.03577   0.40224   0.10821   0.00000  Uiso   1.00
C206   C     0.27342   0.51797   0.40813   0.00000  Uiso   1.00
C207   C     0.26101   0.46133   0.38990   0.00000  Uiso   1.00
C208   C     0.09121   0.45592   0.03912   0.00000  Uiso   1.00
C209   C     0.23944   0.52292   0.45693   0.00000  Uiso   1.00
C210   C     0.05718   0.42961   0.00927   0.00000  Uiso   1.00
C211   C     0.27777   0.54663   0.48482   0.00000  Uiso   1.00
C212   C     0.19010   0.65605   0.25191   0.00000  Uiso   1.00
C213   C     0.14324   0.34396   0.24810   0.00000  Uiso   1.00
C214   C     0.12791   0.49480   0.33307   0.00000  Uiso   1.00
Cu215  Cu    0.10737   0.49441   0.24517   0.00000  Uiso   1.00
Cu216  Cu    0.22596   0.50559   0.25484   0.00000  Uiso   1.00
H217   H     0.01178   0.40296   0.02137   0.00000  Uiso   1.00
H218   H     0.09812   0.65343   0.24452   0.00000  Uiso   1.00
H219   H     0.00101   0.53844   0.28471   0.00000  Uiso   1.00
H220   H     0.33225   0.46149   0.21538   0.00000  Uiso   1.00
H221   H     0.33130   0.37512   0.09554   0.00000  Uiso   1.00
H222   H     0.07733   0.38382   0.10128   0.00000  Uiso   1.00
H223   H     0.01804   0.40658   0.14450   0.00000  Uiso   1.00
H224   H     0.07353   0.48811   0.10720   0.00000  Uiso   1.00
H225   H     0.00690   0.46660   0.08670   0.00000  Uiso   1.00
H226   H     0.26506   0.43340   0.41348   0.00000  Uiso   1.00
H227   H     0.21382   0.44831   0.38336   0.00000  Uiso   1.00
H228   H     0.32543   0.56865   0.47075   0.00000  Uiso   1.00
H229   H     0.29556   0.45880   0.35772   0.00000  Uiso   1.00
H230   H     0.26398   0.54557   0.38688   0.00000  Uiso   1.00
H231   H     0.32547   0.53010   0.40395   0.00000  Uiso   1.00
H232   H     0.15353   0.45423   0.10525   0.00000  Uiso   1.00
H233   H     0.16778   0.54489   0.40144   0.00000  Uiso   1.00
H234   H     0.31401   0.56982   0.12214   0.00000  Uiso   1.00
H235   H     0.03502   0.41171   0.36802   0.00000  Uiso   1.00
H236   H     0.00176   0.38433   0.44566   0.00000  Uiso   1.00
H237   H     0.01077   0.58819   0.04283   0.00000  Uiso   1.00
H238   H     0.23522   0.34659   0.25549   0.00000  Uiso   1.00
N239   N     0.31506   0.51401   0.26212   0.00000  Uiso   1.00
N240   N     0.01827   0.48599   0.23788   0.00000  Uiso   1.00
O241   O     0.12815   0.57142   0.24686   0.00000  Uiso   1.00
O242   O     0.20518   0.42858   0.25314   0.00000  Uiso   1.00
O243   O     0.22829   0.58086   0.25503   0.00000  Uiso   1.00
O244   O     0.10504   0.41914   0.24498   0.00000  Uiso   1.00
O245   O     0.08851   0.49263   0.30855   0.00000  Uiso   1.00
O246   O     0.24482   0.50737   0.19146   0.00000  Uiso   1.00
O247   O     0.18866   0.50207   0.31671   0.00000  Uiso   1.00
O248   O     0.14468   0.49793   0.18329   0.00000  Uiso   1.00
C249   C     0.51503   0.60001   0.25130   0.00000  Uiso   1.00
C250   C     0.53864   0.50437   0.16681   0.00000  Uiso   1.00
C251   C     0.43698   0.48096   0.37964   0.00000  Uiso   1.00
C252   C     0.56198   0.51243   0.11908   0.00000  Uiso   1.00
C253   C     0.37415   0.41779   0.43551   0.00000  Uiso   1.00
C254   C     0.63304   0.56115   0.05663   0.00000  Uiso   1.00
C255   C     0.39107   0.43465   0.39196   0.00000  Uiso   1.00
C256   C     0.61694   0.54981   0.10145   0.00000  Uiso   1.00
C257   C     0.46923   0.50736   0.41019   0.00000  Uiso   1.00
C258   C     0.52348   0.48727   0.09175   0.00000  Uiso   1.00
C259   C     0.46297   0.48353   0.45032   0.00000  Uiso   1.00
C260   C     0.48497   0.39999   0.24871   0.00000  Uiso   1.00
C261   C     0.53295   0.50404   0.04845   0.00000  Uiso   1.00
C262   C     0.40952   0.44281   0.46504   0.00000  Uiso   1.00
C263   C     0.59168   0.53839   0.03005   0.00000  Uiso   1.00
C264   C     0.50788   0.49877   0.47610   0.00000  Uiso   1.00
C265   C     0.48810   0.48614   0.02224   0.00000  Uiso   1.00
C266   C     0.38558   0.45635   0.08667   0.00000  Uiso   1.00
C267   C     0.36910   0.40224   0.10821   0.00000  Uiso   1.00
C268   C     0.60675   0.51797   0.40813   0.00000  Uiso   1.00
C269   C     0.59434   0.46133   0.38990   0.00000  Uiso   1.00
C270   C     0.42454   0.45592   0.03912   0.00000  Uiso   1.00
C271   C     0.57277   0.52292   0.45693   0.00000  Uiso   1.00
C272   C     0.39051   0.42961   0.00927   0.00000  Uiso   1.00
C273   C     0.61110   0.54663   0.48482   0.00000  Uiso   1.00
C274   C     0.52344   0.65605   0.25191   0.00000  Uiso   1.00
C275   C     0.47657   0.34396   0.24810   0.00000  Uiso   1.00
C276   C     0.46125   0.49480   0.33307   0.00000  Uiso   1.00
Cu277  Cu    0.44071   0.49441   0.24517   0.00000  Uiso   1.00
Cu278  Cu    0.55929   0.50559   0.25484   0.00000  Uiso   1.00
H279   H     0.34511   0.40296   0.02137   0.00000  Uiso   1.00
H280   H     0.43145   0.65343   0.24452   0.00000  Uiso   1.00
H281   H     0.33434   0.53844   0.28471   0.00000  Uiso   1.00
H282   H     0.66558   0.46149   0.21538   0.00000  Uiso   1.00
H283   H     0.66464   0.37512   0.09554   0.00000  Uiso   1.00
H284   H     0.41067   0.38382   0.10128   0.00000  Uiso   1.00
H285   H     0.35138   0.40658   0.14450   0.00000  Uiso   1.00
H286   H     0.40687   0.48811   0.10720   0.00000  Uiso   1.00
H287   H     0.34023   0.46660   0.08670   0.00000  Uiso   1.00
H288   H     0.59839   0.43340   0.41348   0.00000  Uiso   1.00
H289   H     0.54715   0.44831   0.38336   0.00000  Uiso   1.00
H290   H     0.65877   0.56865   0.47075   0.00000  Uiso   1.00
H291   H     0.62890   0.45880   0.35772   0.00000  Uiso   1.00
H292   H     0.59731   0.54557   0.38688   0.00000  Uiso   1.00
H293   H     0.65880   0.53010   0.40395   0.00000  Uiso   1.00
H294   H     0.48687   0.45423   0.10525   0.00000  Uiso   1.00
H295   H     0.50111   0.54489   0.40144   0.00000  Uiso   1.00
H296   H     0.64735   0.56982   0.12214   0.00000  Uiso   1.00
H297   H     0.36835   0.41171   0.36802   0.00000  Uiso   1.00
H298   H     0.33510   0.38433   0.44566   0.00000  Uiso   1.00
H299   H     0.34411   0.58819   0.04283   0.00000  Uiso   1.00
H300   H     0.56855   0.34659   0.25549   0.00000  Uiso   1.00
N301   N     0.64839   0.51401   0.26212   0.00000  Uiso   1.00
N302   N     0.35161   0.48599   0.23788   0.00000  Uiso   1.00
O303   O     0.46148   0.57142   0.24686   0.00000  Uiso   1.00
O304   O     0.53852   0.42858   0.25314   0.00000  Uiso   1.00
O305   O     0.56163   0.58086   0.25503   0.00000  Uiso   1.00
O306   O     0.43837   0.41914   0.24498   0.00000  Uiso   1.00
O307   O     0.42185   0.49263   0.30855   0.00000  Uiso   1.00
O308   O     0.57815   0.50737   0.19146   0.00000  Uiso   1.00
O309   O     0.52199   0.50207   0.31671   0.00000  Uiso   1.00
O310   O     0.47801   0.49793   0.18329   0.00000  Uiso   1.00
C311   C     0.84837   0.60001   0.25130   0.00000  Uiso   1.00
C312   C     0.87197   0.50437   0.16681   0.00000  Uiso   1.00
C313   C     0.77031   0.48096   0.37964   0.00000  Uiso   1.00
C314   C     0.89531   0.51243   0.11908   0.00000  Uiso   1.00
C315   C     0.70749   0.41779   0.43551   0.00000  Uiso   1.00
C316   C     0.96637   0.56115   0.05663   0.00000  Uiso   1.00
C317   C     0.72440   0.43465   0.39196   0.00000  Uiso   1.00
C318   C     0.95027   0.54981   0.10145   0.00000  Uiso   1.00
C319   C     0.80256   0.50736   0.41019   0.00000  Uiso   1.00
C320   C     0.85681   0.48727   0.09175   0.00000  Uiso   1.00
C321   C     0.79630   0.48353   0.45032   0.00000  Uiso   1.00
C322   C     0.81830   0.39999   0.24871   0.00000  Uiso   1.00
C323   C     0.86628   0.50404   0.04845   0.00000  Uiso   1.00
C324   C     0.74286   0.44281   0.46504   0.00000  Uiso   1.00
C325   C     0.92502   0.53839   0.03005   0.00000  Uiso   1.00
C326   C     0.84122   0.49877   0.47610   0.00000  Uiso   1.00
C327   C     0.82143   0.48614   0.02224   0.00000  Uiso   1.00
C328   C     0.71891   0.45635   0.08667   0.00000  Uiso   1.00
C329   C     0.70244   0.40224   0.10821   0.00000  Uiso   1.00
C330   C     0.94009   0.51797   0.40813   0.00000  Uiso   1.00
C331   C     0.92767   0.46133   0.38990   0.00000  Uiso   1.00
C332   C     0.75788   0.45592   0.03912   0.00000  Uiso   1.00
C333   C     0.90611   0.52292   0.45693   0.00000  Uiso   1.00
C334   C     0.72385   0.42961   0.00927   0.00000  Uiso   1.00
C335   C     0.94443   0.54663   0.48482   0.00000  Uiso   1.00
C336   C     0.85677   0.65605   0.25191   0.00000  Uiso   1.00
C337   C     0.80990   0.34396   0.24810   0.00000  Uiso   1.00
C338   C     0.79458   0.49480   0.33307   0.00000  Uiso   1.00
Cu339  Cu    0.77404   0.49441   0.24517   0.00000  Uiso   1.00
Cu340  Cu    0.89263   0.50559   0.25484   0.00000  Uiso   1.00
H341   H     0.67845   0.40296   0.02137   0.00000  Uiso   1.00
H342   H     0.76479   0.65343   0.24452   0.00000  Uiso   1.00
H343   H     0.66767   0.53844   0.28471   0.00000  Uiso   1.00
H344   H     0.99891   0.46149   0.21538   0.00000  Uiso   1.00
H345   H     0.99797   0.37512   0.09554   0.00000  Uiso   1.00
H346   H     0.74400   0.38382   0.10128   0.00000  Uiso   1.00
H347   H     0.68471   0.40658   0.14450   0.00000  Uiso   1.00
H348   H     0.74020   0.48811   0.10720   0.00000  Uiso   1.00
H349   H     0.67357   0.46660   0.08670   0.00000  Uiso   1.00
H350   H     0.93172   0.43340   0.41348   0.00000  Uiso   1.00
H351   H     0.88048   0.44831   0.38336   0.00000  Uiso   1.00
H352   H     0.99210   0.56865   0.47075   0.00000  Uiso   1.00
H353   H     0.96223   0.45880   0.35772   0.00000  Uiso   1.00
H354   H     0.93065   0.54557   0.38688   0.00000  Uiso   1.00
H355   H     0.99213   0.53010   0.40395   0.00000  Uiso   1.00
H356   H     0.82020   0.45423   0.10525   0.00000  Uiso   1.00
H357   H     0.83445   0.54489   0.40144   0.00000  Uiso   1.00
H358   H     0.98068   0.56982   0.12214   0.00000  Uiso   1.00
H359   H     0.70169   0.41171   0.36802   0.00000  Uiso   1.00
H360   H     0.66843   0.38433   0.44566   0.00000  Uiso   1.00
H361   H     0.67744   0.58819   0.04283   0.00000  Uiso   1.00
H362   H     0.90189   0.34659   0.25549   0.00000  Uiso   1.00
N363   N     0.98173   0.51401   0.26212   0.00000  Uiso   1.00
N364   N     0.68494   0.48599   0.23788   0.00000  Uiso   1.00
O365   O     0.79482   0.57142   0.24686   0.00000  Uiso   1.00
O366   O     0.87185   0.42858   0.25314   0.00000  Uiso   1.00
O367   O     0.89496   0.58086   0.25503   0.00000  Uiso   1.00
O368   O     0.77171   0.41914   0.24498   0.00000  Uiso   1.00
O369   O     0.75518   0.49263   0.30855   0.00000  Uiso   1.00
O370   O     0.91149   0.50737   0.19146   0.00000  Uiso   1.00
O371   O     0.85532   0.50207   0.31671   0.00000  Uiso   1.00
O372   O     0.81134   0.49793   0.18329   0.00000  Uiso   1.00
C373   C     0.18170   0.93335   0.25130   0.00000  Uiso   1.00
C374   C     0.20531   0.83770   0.16681   0.00000  Uiso   1.00
C375   C     0.10365   0.81429   0.37964   0.00000  Uiso   1.00
C376   C     0.22865   0.84576   0.11908   0.00000  Uiso   1.00
C377   C     0.04082   0.75112   0.43551   0.00000  Uiso   1.00
C378   C     0.29970   0.89448   0.05663   0.00000  Uiso   1.00
C379   C     0.05773   0.76799   0.39196   0.00000  Uiso   1.00
C380   C     0.28361   0.88314   0.10145   0.00000  Uiso   1.00
C381   C     0.13590   0.84069   0.41019   0.00000  Uiso   1.00
C382   C     0.19014   0.82060   0.09175   0.00000  Uiso   1.00
C383   C     0.12964   0.81686   0.45032   0.00000  Uiso   1.00
C384   C     0.15163   0.73332   0.24871   0.00000  Uiso   1.00
C385   C     0.19961   0.83737   0.04845   0.00000  Uiso   1.00
C386   C     0.07619   0.77614   0.46504   0.00000  Uiso   1.00
C387   C     0.25835   0.87172   0.03005   0.00000  Uiso   1.00
C388   C     0.17455   0.83211   0.47610   0.00000  Uiso   1.00
C389   C     0.15476   0.81948   0.02224   0.00000  Uiso   1.00
C390   C     0.05225   0.78968   0.08667   0.00000  Uiso   1.00
C391   C     0.03577   0.73557   0.10821   0.00000  Uiso   1.00
C392   C     0.27342   0.85130   0.40813   0.00000  Uiso   1.00
C393   C     0.26101   0.79466   0.38990   0.00000  Uiso   1.00
C394   C     0.09121   0.78925   0.03912   0.00000  Uiso   1.00
C395   C     0.23944   0.85625   0.45693   0.00000  Uiso   1.00
C396   C     0.05718   0.76294   0.00927   0.00000  Uiso   1.00
C397   C     0.27777   0.87996   0.48482   0.00000  Uiso   1.00
C398   C     0.19010   0.98938   0.25191   0.00000  Uiso   1.00
C399   C     0.14324   0.67729   0.24810   0.00000  Uiso   1.00
C400   C     0.12791   0.82813   0.33307   0.00000  Uiso   1.00
Cu401  Cu    0.10737   0.82775   0.24517   0.00000  Uiso   1.00
Cu402  Cu    0.22596   0.83892   0.25484   0.00000  Uiso   1.00
H403   H     0.01178   0.73629   0.02137   0.00000  Uiso   1.00
H404   H     0.09812   0.98676   0.24452   0.00000  Uiso   1.00
H405   H     0.00101   0.87178   0.28471   0.00000  Uiso   1.00
H406   H     0.33225   0.79482   0.21538   0.00000  Uiso   1.00
H407   H     0.33130   0.70845   0.09554   0.00000  Uiso   1.00
H408   H     0.07733   0.71715   0.10128   0.00000  Uiso   1.00
H409   H     0.01804   0.73991   0.14450   0.00000  Uiso   1.00
H410   H     0.07353   0.82144   0.10720   0.00000  Uiso   1.00
H411   H     0.00690   0.79994   0.08670   0.00000  Uiso   1.00
H412   H     0.26506   0.76673   0.41348   0.00000  Uiso   1.00
H413   H     0.21382   0.78165   0.38336   0.00000  Uiso   1.00
H414   H     0.32543   0.90198   0.47075   0.00000  Uiso   1.00
H415   H     0.29556   0.79213   0.35772   0.00000  Uiso   1.00
H416   H     0.26398   0.87890   0.38688   0.00000  Uiso   1.00
H417   H     0.32547   0.86343   0.40395   0.00000  Uiso   1.00
H418   H     0.15353   0.78756   0.10525   0.00000  Uiso   1.00
H419   H     0.16778   0.87822   0.40144   0.00000  Uiso   1.00
H420   H     0.31401   0.90315   0.12214   0.00000  Uiso   1.00
H421   H     0.03502   0.74504   0.36802   0.00000  Uiso   1.00
H422   H     0.00176   0.71766   0.44566   0.00000  Uiso   1.00
H423   H     0.01077   0.92152   0.04283   0.00000  Uiso   1.00
H424   H     0.23522   0.67992   0.25549   0.00000  Uiso   1.00
N425   N     0.31506   0.84735   0.26212   0.00000  Uiso   1.00
N426   N     0.01827   0.81932   0.23788   0.00000  Uiso   1.00
O427   O     0.12815   0.90476   0.24686   0.00000  Uiso   1.00
O428   O     0.20518   0.76191   0.25314   0.00000  Uiso   1.00
O429   O     0.22829   0.91420   0.25503   0.00000  Uiso   1.00
O430   O     0.10504   0.75247   0.24498   0.00000  Uiso   1.00
O431   O     0.08851   0.82597   0.30855   0.00000  Uiso   1.00
O432   O     0.24482   0.84070   0.19146   0.00000  Uiso   1.00
O433   O     0.18866   0.83540   0.31671   0.00000  Uiso   1.00
O434   O     0.14468   0.83126   0.18329   0.00000  Uiso   1.00
C435   C     0.51503   0.93335   0.25130   0.00000  Uiso   1.00
C436   C     0.53864   0.83770   0.16681   0.00000  Uiso   1.00
C437   C     0.43698   0.81429   0.37964   0.00000  Uiso   1.00
C438   C     0.56198   0.84576   0.11908   0.00000  Uiso   1.00
C439   C     0.37415   0.75112   0.43551   0.00000  Uiso   1.00
C440   C     0.63304   0.89448   0.05663   0.00000  Uiso   1.00
C441   C     0.39107   0.76799   0.39196   0.00000  Uiso   1.00
C442   C     0.61694   0.88314   0.10145   0.00000  Uiso   1.00
C443   C     0.46923   0.84069   0.41019   0.00000  Uiso   1.00
C444   C     0.52348   0.82060   0.09175   0.00000  Uiso   1.00
C445   C     0.46297   0.81686   0.45032   0.00000  Uiso   1.00
C446   C     0.48497   0.73332   0.24871   0.00000  Uiso   1.00
C447   C     0.53295   0.83737   0.04845   0.00000  Uiso   1.00
C448   C     0.40952   0.77614   0.46504   0.00000  Uiso   1.00
C449   C     0.59168   0.87172   0.03005   0.00000  Uiso   1.00
C450   C     0.50788   0.83211   0.47610   0.00000  Uiso   1.00
C451   C     0.48810   0.81948   0.02224   0.00000  Uiso   1.00
C452   C     0.38558   0.78968   0.08667   0.00000  Uiso   1.00
C453   C     0.36910   0.73557   0.10821   0.00000  Uiso   1.00
C454   C     0.60675   0.85130   0.40813   0.00000  Uiso   1.00
C455   C     0.59434   0.79466   0.38990   0.00000  Uiso   1.00
C456   C     0.42454   0.78925   0.03912   0.00000  Uiso   1.00
C457   C     0.57277   0.85625   0.45693   0.00000  Uiso   1.00
C458   C     0.39051   0.76294   0.00927   0.00000  Uiso   1.00
C459   C     0.61110   0.87996   0.48482   0.00000  Uiso   1.00
C460   C     0.52344   0.98938   0.25191   0.00000  Uiso   1.00
C461   C     0.47657   0.67729   0.24810   0.00000  Uiso   1.00
C462   C     0.46125   0.82813   0.33307   0.00000  Uiso   1.00
Cu463  Cu    0.44071   0.82775   0.24517   0.00000  Uiso   1.00
Cu464  Cu    0.55929   0.83892   0.25484   0.00000  Uiso   1.00
H465   H     0.34511   0.73629   0.02137   0.00000  Uiso   1.00
H466   H     0.43145   0.98676   0.24452   0.00000  Uiso   1.00
H467   H     0.33434   0.87178   0.28471   0.00000  Uiso   1.00
H468   H     0.66558   0.79482   0.21538   0.00000  Uiso   1.00
H469   H     0.66464   0.70845   0.09554   0.00000  Uiso   1.00
H470   H     0.41067   0.71715   0.10128   0.00000  Uiso   1.00
H471   H     0.35138   0.73991   0.14450   0.00000  Uiso   1.00
H472   H     0.40687   0.82144   0.10720   0.00000  Uiso   1.00
H473   H     0.34023   0.79994   0.08670   0.00000  Uiso   1.00
H474   H     0.59839   0.76673   0.41348   0.00000  Uiso   1.00
H475   H     0.54715   0.78165   0.38336   0.00000  Uiso   1.00
H476   H     0.65877   0.90198   0.47075   0.00000  Uiso   1.00
H477   H     0.62890   0.79213   0.35772   0.00000  Uiso   1.00
H478   H     0.59731   0.87890   0.38688   0.00000  Uiso   1.00
H479   H     0.65880   0.86343   0.40395   0.00000  Uiso   1.00
H480   H     0.48687   0.78756   0.10525   0.00000  Uiso   1.00
H481   H     0.50111   0.87822   0.40144   0.00000  Uiso   1.00
H482   H     0.64735   0.90315   0.12214   0.00000  Uiso   1.00
H483   H     0.36835   0.74504   0.36802   0.00000  Uiso   1.00
H484   H     0.33510   0.71766   0.44566   0.00000  Uiso   1.00
H485   H     0.34411   0.92152   0.04283   0.00000  Uiso   1.00
H486   H     0.56855   0.67992   0.25549   0.00000  Uiso   1.00
N487   N     0.64839   0.84735   0.26212   0.00000  Uiso   1.00
N488   N     0.35161   0.81932   0.23788   0.00000  Uiso   1.00
O489   O     0.46148   0.90476   0.24686   0.00000  Uiso   1.00
O490   O     0.53852   0.76191   0.25314   0.00000  Uiso   1.00
O491   O     0.56163   0.91420   0.25503   0.00000  Uiso   1.00
O492   O     0.43837   0.75247   0.24498   0.00000  Uiso   1.00
O493   O     0.42185   0.82597   0.30855   0.00000  Uiso   1.00
O494   O     0.57815   0.84070   0.19146   0.00000  Uiso   1.00
O495   O     0.52199   0.83540   0.31671   0.00000  Uiso   1.00
O496   O     0.47801   0.83126   0.18329   0.00000  Uiso   1.00
C497   C     0.84837   0.93335   0.25130   0.00000  Uiso   1.00
C498   C     0.87197   0.83770   0.16681   0.00000  Uiso   1.00
C499   C     0.77031   0.81429   0.37964   0.00000  Uiso   1.00
C500   C     0.89531   0.84576   0.11908   0.00000  Uiso   1.00
C501   C     0.70749   0.75112   0.43551   0.00000  Uiso   1.00
C502   C     0.96637   0.89448   0.05663   0.00000  Uiso   1.00
C503   C     0.72440   0.76799   0.39196   0.00000  Uiso   1.00
C504   C     0.95027   0.88314   0.10145   0.00000  Uiso   1.00
C505   C     0.80256   0.84069   0.41019   0.00000  Uiso   1.00
C506   C     0.85681   0.82060   0.09175   0.00000  Uiso   1.00
C507   C     0.79630   0.81686   0.45032   0.00000  Uiso   1.00
C508   C     0.81830   0.73332   0.24871   0.00000  Uiso   1.00
C509   C     0.86628   0.83737   0.04845   0.00000  Uiso   1.00
C510   C     0.74286   0.77614   0.46504   0.00000  Uiso   1.00
C511   C     0.92502   0.87172   0.03005   0.00000  Uiso   1.00
C512   C     0.84122   0.83211   0.47610   0.00000  Uiso   1.00
C513   C     0.82143   0.81948   0.02224   0.00000  Uiso   1.00
C514   C     0.71891   0.78968   0.08667   0.00000  Uiso   1.00
C515   C     0.70244   0.73557   0.10821   0.00000  Uiso   1.00
C516   C     0.94009   0.85130   0.40813   0.00000  Uiso   1.00
C517   C     0.92767   0.79466   0.38990   0.00000  Uiso   1.00
C518   C     0.75788   0.78925   0.03912   0.00000  Uiso   1.00
C519   C     0.90611   0.85625   0.45693   0.00000  Uiso   1.00
C520   C     0.72385   0.76294   0.00927   0.00000  Uiso   1.00
C521   C     0.94443   0.87996   0.48482   0.00000  Uiso   1.00
C522   C     0.85677   0.98938   0.25191   0.00000  Uiso   1.00
C523   C     0.80990   0.67729   0.24810   0.00000  Uiso   1.00
C524   C     0.79458   0.82813   0.33307   0.00000  Uiso   1.00
Cu525  Cu    0.77404   0.82775   0.24517   0.00000  Uiso   1.00
Cu526  Cu    0.89263   0.83892   0.25484   0.00000  Uiso   1.00
H527   H     0.67845   0.73629   0.02137   0.00000  Uiso   1.00
H528   H     0.76479   0.98676   0.24452   0.00000  Uiso   1.00
H529   H     0.66767   0.87178   0.28471   0.00000  Uiso   1.00
H530   H     0.99891   0.79482   0.21538   0.00000  Uiso   1.00
H531   H     0.99797   0.70845   0.09554   0.00000  Uiso   1.00
H532   H     0.74400   0.71715   0.10128   0.00000  Uiso   1.00
H533   H     0.68471   0.73991   0.14450   0.00000  Uiso   1.00
H534   H     0.74020   0.82144   0.10720   0.00000  Uiso   1.00
H535   H     0.67357   0.79994   0.08670   0.00000  Uiso   1.00
H536   H     0.93172   0.76673   0.41348   0.00000  Uiso   1.00
H537   H     0.88048   0.78165   0.38336   0.00000  Uiso   1.00
H538   H     0.99210   0.90198   0.47075   0.00000  Uiso   1.00
H539   H     0.96223   0.79213   0.35772   0.00000  Uiso   1.00
H540   H     0.93065   0.87890   0.38688   0.00000  Uiso   1.00
H541   H     0.99213   0.86343   0.40395   0.00000  Uiso   1.00
H542   H     0.82020   0.78756   0.10525   0.00000  Uiso   1.00
H543   H     0.83445   0.87822   0.40144   0.00000  Uiso   1.00
H544   H     0.98068   0.90315   0.12214   0.00000  Uiso   1.00
H545   H     0.70169   0.74504   0.36802   0.00000  Uiso   1.00
H546   H     0.66843   0.71766   0.44566   0.00000  Uiso   1.00
H547   H     0.67744   0.92152   0.04283   0.00000  Uiso   1.00
H548   H     0.90189   0.67992   0.25549   0.00000  Uiso   1.00
N549   N     0.98173   0.84735   0.26212   0.00000  Uiso   1.00
N550   N     0.68494   0.81932   0.23788   0.00000  Uiso   1.00
O551   O     0.79482   0.90476   0.24686   0.00000  Uiso   1.00
O552   O     0.87185   0.76191   0.25314   0.00000  Uiso   1.00
O553   O     0.89496   0.91420   0.25503   0.00000  Uiso   1.00
O554   O     0.77171   0.75247   0.24498   0.00000  Uiso   1.00
O555   O     0.75518   0.82597   0.30855   0.00000  Uiso   1.00
O556   O     0.91149   0.84070   0.19146   0.00000  Uiso   1.00
O557   O     0.85532   0.83540   0.31671   0.00000  Uiso   1.00
O558   O     0.81134   0.83126   0.18329   0.00000  Uiso   1.00
C559   C     0.18170   0.26668   0.75130   0.00000  Uiso   1.00
C560   C     0.20531   0.17104   0.66681   0.00000  Uiso   1.00
C561   C     0.10365   0.14763   0.87964   0.00000  Uiso   1.00
C562   C     0.22865   0.17909   0.61908   0.00000  Uiso   1.00
C563   C     0.04082   0.08445   0.93551   0.00000  Uiso   1.00
C564   C     0.29970   0.22781   0.55663   0.00000  Uiso   1.00
C565   C     0.05773   0.10132   0.89196   0.00000  Uiso   1.00
C566   C     0.28361   0.21648   0.60145   0.00000  Uiso   1.00
C567   C     0.13590   0.17402   0.91019   0.00000  Uiso   1.00
C568   C     0.19014   0.15393   0.59175   0.00000  Uiso   1.00
C569   C     0.12964   0.15020   0.95032   0.00000  Uiso   1.00
C570   C     0.15163   0.06665   0.74871   0.00000  Uiso   1.00
C571   C     0.19961   0.17071   0.54845   0.00000  Uiso   1.00
C572   C     0.07619   0.10947   0.96504   0.00000  Uiso   1.00
C573   C     0.25835   0.20506   0.53005   0.00000  Uiso   1.00
C574   C     0.17455   0.16544   0.97610   0.00000  Uiso   1.00
C575   C     0.15476   0.15281   0.52224   0.00000  Uiso   1.00
C576   C     0.05225   0.12302   0.58667   0.00000  Uiso   1.00
C577   C     0.03577   0.06890   0.60821   0.00000  Uiso   1.00
C578   C     0.27342   0.18464   0.90813   0.00000  Uiso   1.00
C579   C     0.26101   0.12799   0.88990   0.00000  Uiso   1.00
C580   C     0.09121   0.12259   0.53912   0.00000  Uiso   1.00
C581   C     0.23944   0.18959   0.95693   0.00000  Uiso   1.00
C582   C     0.05718   0.09627   0.50927   0.00000  Uiso   1.00
C583   C     0.27777   0.21330   0.98482   0.00000  Uiso   1.00
C584   C     0.19010   0.32271   0.75191   0.00000  Uiso   1.00
C585   C     0.14324   0.01063   0.74810   0.00000  Uiso   1.00
C586   C     0.12791   0.16146   0.83307   0.00000  Uiso   1.00
Cu587  Cu    0.10737   0.16108   0.74517   0.00000  Uiso   1.00
Cu588  Cu    0.22596   0.17225   0.75484   0.00000  Uiso   1.00
H589   H     0.01178   0.06963   0.52137   0.00000  Uiso   1.00
H590   H     0.09812   0.32009   0.74452   0.00000  Uiso   1.00
H591   H     0.00101   0.20511   0.78471   0.00000  Uiso   1.00
H592   H     0.33225   0.12816   0.71538   0.00000  Uiso   1.00
H593   H     0.33130   0.04178   0.59554   0.00000  Uiso   1.00
H594   H     0.07733   0.05049   0.60128   0.00000  Uiso   1.00
H595   H     0.01804   0.07324   0.64450   0.00000  Uiso   1.00
H596   H     0.07353   0.15477   0.60720   0.00000  Uiso   1.00
H597   H     0.00690   0.13327   0.58670   0.00000  Uiso   1.00
H598   H     0.26506   0.10006   0.91348   0.00000  Uiso   1.00
H599   H     0.21382   0.11498   0.88336   0.00000  Uiso   1.00
H600   H     0.32543   0.23531   0.97075   0.00000  Uiso   1.00
H601   H     0.29556   0.12547   0.85772   0.00000  Uiso   1.00
H602   H     0.26398   0.21224   0.88688   0.00000  Uiso   1.00
H603   H     0.32547   0.19677   0.90395   0.00000  Uiso   1.00
H604   H     0.15353   0.12089   0.60525   0.00000  Uiso   1.00
H605   H     0.16778   0.21155   0.90144   0.00000  Uiso   1.00
H606   H     0.31401   0.23649   0.62214   0.00000  Uiso   1.00
H607   H     0.03502   0.07837   0.86802   0.00000  Uiso   1.00
H608   H     0.00176   0.05100   0.94566   0.00000  Uiso   1.00
H609   H     0.01077   0.25485   0.54283   0.00000  Uiso   1.00
H610   H     0.23522   0.01325   0.75549   0.00000  Uiso   1.00
N611   N     0.31506   0.18068   0.76212   0.00000  Uiso   1.00
N612   N     0.01827   0.15265   0.73788   0.00000  Uiso   1.00
O613   O     0.12815   0.23809   0.74686   0.00000  Uiso   1.00
O614   O     0.20518   0.09524   0.75314   0.00000  Uiso   1.00
O615   O     0.22829   0.24753   0.75503   0.00000  Uiso   1.00
O616   O     0.10504   0.08580   0.74498   0.00000  Uiso   1.00
O617   O     0.08851   0.15930   0.80855   0.00000  Uiso   1.00
O618   O     0.24482   0.17403   0.69146   0.00000  Uiso   1.00
O619   O     0.18866   0.16874   0.81671   0.00000  Uiso   1.00
O620   O     0.14468   0.16460   0.68329   0.00000  Uiso   1.00
C621   C     0.51503   0.26668   0.75130   0.00000  Uiso   1.00
C622   C     0.53864   0.17104   0.66681   0.00000  Uiso   1.00
C623   C     0.43698   0.14763   0.87964   0.00000  Uiso   1.00
C624   C     0.56198   0.17909   0.61908   0.00000  Uiso   1.00
C625   C     0.37415   0.08445   0.93551   0.00000  Uiso   1.00
C626   C     0.63304   0.22781   0.55663   0.00000  Uiso   1.00
C627   C     0.39107   0.10132   0.89196   0.00000  Uiso   1.00
C628   C     0.61694   0.21648   0.60145   0.00000  Uiso   1.00
C629   C     0.46923   0.17402   0.91019   0.00000  Uiso   1.00
C630   C     0.52348   0.15393   0.59175   0.00000  Uiso   1.00
C631   C     0.46297   0.15020   0.95032   0.00000  Uiso   1.00
C632   C     0.48497   0.06665   0.74871   0.00000  Uiso   1.00
C633   C     0.53295   0.17071   0.54845   0.00000  Uiso   1.00
C634   C     0.40952   0.10947   0.96504   0.00000  Uiso   1.00
C635   C     0.59168   0.20506   0.53005   0.00000  Uiso   1.00
C636   C     0.50788   0.16544   0.97610   0.00000  Uiso   1.00
C637   C     0.48810   0.15281   0.52224   0.00000  Uiso   1.00
C638   C     0.38558   0.12302   0.58667   0.00000  Uiso   1.00
C639   C     0.36910   0.06890   0.60821   0.00000  Uiso   1.00
C640   C     0.60675   0.18464   0.90813   0.00000  Uiso   1.00
C641   C     0.59434   0.12799   0.88990   0.00000  Uiso   1.00
C642   C     0.42454   0.12259   0.53912   0.00000  Uiso   1.00
C643   C     0.57277   0.18959   0.95693   0.00000  Uiso   1.00
C644   C     0.39051   0.09627   0.50927   0.00000  Uiso   1.00
C645   C     0.61110   0.21330   0.98482   0.00000  Uiso   1.00
C646   C     0.52344   0.32271   0.75191   0.00000  Uiso   1.00
C647   C     0.47657   0.01063   0.74810   0.00000  Uiso   1.00
C648   C     0.46125   0.16146   0.83307   0.00000  Uiso   1.00
Cu649  Cu    0.44071   0.16108   0.74517   0.00000  Uiso   1.00
Cu650  Cu    0.55929   0.17225   0.75484   0.00000  Uiso   1.00
H651   H     0.34511   0.06963   0.52137   0.00000  Uiso   1.00
H652   H     0.43145   0.32009   0.74452   0.00000  Uiso   1.00
H653   H     0.33434   0.20511   0.78471   0.00000  Uiso   1.00
H654   H     0.66558   0.12816   0.71538   0.00000  Uiso   1.00
H655   H     0.66464   0.04178   0.59554   0.00000  Uiso   1.00
H656   H     0.41067   0.05049   0.60128   0.00000  Uiso   1.00
H657   H     0.35138   0.07324   0.64450   0.00000  Uiso   1.00
H658   H     0.40687   0.15477   0.60720   0.00000  Uiso   1.00
H659   H     0.34023   0.13327   0.58670   0.00000  Uiso   1.00
H660   H     0.59839   0.10006   0.91348   0.00000  Uiso   1.00
H661   H     0.54715   0.11498   0.88336   0.00000  Uiso   1.00
H662   H     0.65877   0.23531   0.97075   0.00000  Uiso   1.00
H663   H     0.62890   0.12547   0.85772   0.00000  Uiso   1.00
H664   H     0.59731   0.21224   0.88688   0.00000  Uiso   1.00
H665   H     0.65880   0.19677   0.90395   0.00000  Uiso   1.00
H666   H     0.48687   0.12089   0.60525   0.00000  Uiso   1.00
H667   H     0.50111   0.21155   0.90144   0.00000  Uiso   1.00
H668   H     0.64735   0.23649   0.62214   0.00000  Uiso   1.00
H669   H     0.36835   0.07837   0.86802   0.00000  Uiso   1.00
H670   H     0.33510   0.05100   0.94566   0.00000  Uiso   1.00
H671   H     0.34411   0.25485   0.54283   0.00000  Uiso   1.00
H672   H     0.56855   0.01325   0.75549   0.00000  Uiso   1.00
N673   N     0.64839   0.18068   0.76212   0.00000  Uiso   1.00
N674   N     0.35161   0.15265   0.73788   0.00000  Uiso   1.00
O675   O     0.46148   0.23809   0.74686   0.00000  Uiso   1.00
O676   O     0.53852   0.09524   0.75314   0.00000  Uiso   1.00
O677   O     0.56163   0.24753   0.75503   0.00000  Uiso   1.00
O678   O     0.43837   0.08580   0.74498   0.00000  Uiso   1.00
O679   O     0.42185   0.15930   0.80855   0.00000  Uiso   1.00
O680   O     0.57815   0.17403   0.69146   0.00000  Uiso   1.00
O681   O     0.52199   0.16874   0.81671   0.00000  Uiso   1.00
O682   O     0.47801   0.16460   0.68329   0.00000  Uiso   1.00
C683   C     0.84837   0.26668   0.75130   0.00000  Uiso   1.00
C684   C     0.87197   0.17104   0.66681   0.00000  Uiso   1.00
C685   C     0.77031   0.14763   0.87964   0.00000  Uiso   1.00
C686   C     0.89531   0.17909   0.61908   0.00000  Uiso   1.00
C687   C     0.70749   0.08445   0.93551   0.00000  Uiso   1.00
C688   C     0.96637   0.22781   0.55663   0.00000  Uiso   1.00
C689   C     0.72440   0.10132   0.89196   0.00000  Uiso   1.00
C690   C     0.95027   0.21648   0.60145   0.00000  Uiso   1.00
C691   C     0.80256   0.17402   0.91019   0.00000  Uiso   1.00
C692   C     0.85681   0.15393   0.59175   0.00000  Uiso   1.00
C693   C     0.79630   0.15020   0.95032   0.00000  Uiso   1.00
C694   C     0.81830   0.06665   0.74871   0.00000  Uiso   1.00
C695   C     0.86628   0.17071   0.54845   0.00000  Uiso   1.00
C696   C     0.74286   0.10947   0.96504   0.00000  Uiso   1.00
C697   C     0.92502   0.20506   0.53005   0.00000  Uiso   1.00
C698   C     0.84122   0.16544   0.97610   0.00000  Uiso   1.00
C699   C     0.82143   0.15281   0.52224   0.00000  Uiso   1.00
C700   C     0.71891   0.12302   0.58667   0.00000  Uiso   1.00
C701   C     0.70244   0.06890   0.60821   0.00000  Uiso   1.00
C702   C     0.94009   0.18464   0.90813   0.00000  Uiso   1.00
C703   C     0.92767   0.12799   0.88990   0.00000  Uiso   1.00
C704   C     0.75788   0.12259   0.53912   0.00000  Uiso   1.00
C705   C     0.90611   0.18959   0.95693   0.00000  Uiso   1.00
C706   C     0.72385   0.09627   0.50927   0.00000  Uiso   1.00
C707   C     0.94443   0.21330   0.98482   0.00000  Uiso   1.00
C708   C     0.85677   0.32271   0.75191   0.00000  Uiso   1.00
C709   C     0.80990   0.01063   0.74810   0.00000  Uiso   1.00
C710   C     0.79458   0.16146   0.83307   0.00000  Uiso   1.00
Cu711  Cu    0.77404   0.16108   0.74517   0.00000  Uiso   1.00
Cu712  Cu    0.89263   0.17225   0.75484   0.00000  Uiso   1.00
H713   H     0.67845   0.06963   0.52137   0.00000  Uiso   1.00
H714   H     0.76479   0.32009   0.74452   0.00000  Uiso   1.00
H715   H     0.66767   0.20511   0.78471   0.00000  Uiso   1.00
H716   H     0.99891   0.12816   0.71538   0.00000  Uiso   1.00
H717   H     0.99797   0.04178   0.59554   0.00000  Uiso   1.00
H718   H     0.74400   0.05049   0.60128   0.00000  Uiso   1.00
H719   H     0.68471   0.07324   0.64450   0.00000  Uiso   1.00
H720   H     0.74020   0.15477   0.60720   0.00000  Uiso   1.00
H721   H     0.67357   0.13327   0.58670   0.00000  Uiso   1.00
H722   H     0.93172   0.10006   0.91348   0.00000  Uiso   1.00
H723   H     0.88048   0.11498   0.88336   0.00000  Uiso   1.00
H724   H     0.99210   0.23531   0.97075   0.00000  Uiso   1.00
H725   H     0.96223   0.12547   0.85772   0.00000  Uiso   1.00
H726   H     0.93065   0.21224   0.88688   0.00000  Uiso   1.00
H727   H     0.99213   0.19677   0.90395   0.00000  Uiso   1.00
H728   H     0.82020   0.12089   0.60525   0.00000  Uiso   1.00
H729   H     0.83445   0.21155   0.90144   0.00000  Uiso   1.00
H730   H     0.98068   0.23649   0.62214   0.00000  Uiso   1.00
H731   H     0.70169   0.07837   0.86802   0.00000  Uiso   1.00
H732   H     0.66843   0.05100   0.94566   0.00000  Uiso   1.00
H733   H     0.67744   0.25485   0.54283   0.00000  Uiso   1.00
H734   H     0.90189   0.01325   0.75549   0.00000  Uiso   1.00
N735   N     0.98173   0.18068   0.76212   0.00000  Uiso   1.00
N736   N     0.68494   0.15265   0.73788   0.00000  Uiso   1.00
O737   O     0.79482   0.23809   0.74686   0.00000  Uiso   1.00
O738   O     0.87185   0.09524   0.75314   0.00000  Uiso   1.00
O739   O     0.89496   0.24753   0.75503   0.00000  Uiso   1.00
O740   O     0.77171   0.08580   0.74498   0.00000  Uiso   1.00
O741   O     0.75518   0.15930   0.80855   0.00000  Uiso   1.00
O742   O     0.91149   0.17403   0.69146   0.00000  Uiso   1.00
O743   O     0.85532   0.16874   0.81671   0.00000  Uiso   1.00
O744   O     0.81134   0.16460   0.68329   0.00000  Uiso   1.00
C745   C     0.18170   0.60001   0.75130   0.00000  Uiso   1.00
C746   C     0.20531   0.50437   0.66681   0.00000  Uiso   1.00
C747   C     0.10365   0.48096   0.87964   0.00000  Uiso   1.00
C748   C     0.22865   0.51243   0.61908   0.00000  Uiso   1.00
C749   C     0.04082   0.41779   0.93551   0.00000  Uiso   1.00
C750   C     0.29970   0.56115   0.55663   0.00000  Uiso   1.00
C751   C     0.05773   0.43465   0.89196   0.00000  Uiso   1.00
C752   C     0.28361   0.54981   0.60145   0.00000  Uiso   1.00
C753   C     0.13590   0.50736   0.91019   0.00000  Uiso   1.00
C754   C     0.19014   0.48727   0.59175   0.00000  Uiso   1.00
C755   C     0.12964   0.48353   0.95032   0.00000  Uiso   1.00
C756   C     0.15163   0.39999   0.74871   0.00000  Uiso   1.00
C757   C     0.19961   0.50404   0.54845   0.00000  Uiso   1.00
C758   C     0.07619   0.44281   0.96504   0.00000  Uiso   1.00
C759   C     0.25835   0.53839   0.53005   0.00000  Uiso   1.00
C760   C     0.17455   0.49877   0.97610   0.00000  Uiso   1.00
C761   C     0.15476   0.48614   0.52224   0.00000  Uiso   1.00
C762   C     0.05225   0.45635   0.58667   0.00000  Uiso   1.00
C763   C     0.03577   0.40224   0.60821   0.00000  Uiso   1.00
C764   C     0.27342   0.51797   0.90813   0.00000  Uiso   1.00
C765   C     0.26101   0.46133   0.88990   0.00000  Uiso   1.00
C766   C     0.09121   0.45592   0.53912   0.00000  Uiso   1.00
C767   C     0.23944   0.52292   0.95693   0.00000  Uiso   1.00
C768   C     0.05718   0.42961   0.50927   0.00000  Uiso   1.00
C769   C     0.27777   0.54663   0.98482   0.00000  Uiso   1.00
C770   C     0.19010   0.65605   0.75191   0.00000  Uiso   1.00
C771   C     0.14324   0.34396   0.74810   0.00000  Uiso   1.00
C772   C     0.12791   0.49480   0.83307   0.00000  Uiso   1.00
Cu773  Cu    0.10737   0.49441   0.74517   0.00000  Uiso   1.00
Cu774  Cu    0.22596   0.50559   0.75484   0.00000  Uiso   1.00
H775   H     0.01178   0.40296   0.52137   0.00000  Uiso   1.00
H776   H     0.09812   0.65343   0.74452   0.00000  Uiso   1.00
H777   H     0.00101   0.53844   0.78471   0.00000  Uiso   1.00
H778   H     0.33225   0.46149   0.71538   0.00000  Uiso   1.00
H779   H     0.33130   0.37512   0.59554   0.00000  Uiso   1.00
H780   H     0.07733   0.38382   0.60128   0.00000  Uiso   1.00
H781   H     0.01804   0.40658   0.64450   0.00000  Uiso   1.00
H782   H     0.07353   0.48811   0.60720   0.00000  Uiso   1.00
H783   H     0.00690   0.46660   0.58670   0.00000  Uiso   1.00
H784   H     0.26506   0.43340   0.91348   0.00000  Uiso   1.00
H785   H     0.21382   0.44831   0.88336   0.00000  Uiso   1.00
H786   H     0.32543   0.56865   0.97075   0.00000  Uiso   1.00
H787   H     0.29556   0.45880   0.85772   0.00000  Uiso   1.00
H788   H     0.26398   0.54557   0.88688   0.00000  Uiso   1.00
H789   H     0.32547   0.53010   0.90395   0.00000  Uiso   1.00
H790   H     0.15353   0.45423   0.60525   0.00000  Uiso   1.00
H791   H     0.16778   0.54489   0.90144   0.00000  Uiso   1.00
H792   H     0.31401   0.56982   0.62214   0.00000  Uiso   1.00
H793   H     0.03502   0.41171   0.86802   0.00000  Uiso   1.00
H794   H     0.00176   0.38433   0.94566   0.00000  Uiso   1.00
H795   H     0.01077   0.58819   0.54283   0.00000  Uiso   1.00
H796   H     0.23522   0.34659   0.75549   0.00000  Uiso   1.00
N797   N     0.31506   0.51401   0.76212   0.00000  Uiso   1.00
N798   N     0.01827   0.48599   0.73788   0.00000  Uiso   1.00
O799   O     0.12815   0.57142   0.74686   0.00000  Uiso   1.00
O800   O     0.20518   0.42858   0.75314   0.00000  Uiso   1.00
O801   O     0.22829   0.58086   0.75503   0.00000  Uiso   1.00
O802   O     0.10504   0.41914   0.74498   0.00000  Uiso   1.00
O803   O     0.08851   0.49263   0.80855   0.00000  Uiso   1.00
O804   O     0.24482   0.50737   0.69146   0.00000  Uiso   1.00
O805   O     0.18866   0.50207   0.81671   0.00000  Uiso   1.00
O806   O     0.14468   0.49793   0.68329   0.00000  Uiso   1.00
C807   C     0.51503   0.60001   0.75130   0.00000  Uiso   1.00
C808   C     0.53864   0.50437   0.66681   0.00000  Uiso   1.00
C809   C     0.43698   0.48096   0.87964   0.00000  Uiso   1.00
C810   C     0.56198   0.51243   0.61908   0.00000  Uiso   1.00
C811   C     0.37415   0.41779   0.93551   0.00000  Uiso   1.00
C812   C     0.63304   0.56115   0.55663   0.00000  Uiso   1.00
C813   C     0.39107   0.43465   0.89196   0.00000  Uiso   1.00
C814   C     0.61694   0.54981   0.60145   0.00000  Uiso   1.00
C815   C     0.46923   0.50736   0.91019   0.00000  Uiso   1.00
C816   C     0.52348   0.48727   0.59175   0.00000  Uiso   1.00
C817   C     0.46297   0.48353   0.95032   0.00000  Uiso   1.00
C818   C     0.48497   0.39999   0.74871   0.00000  Uiso   1.00
C819   C     0.53295   0.50404   0.54845   0.00000  Uiso   1.00
C820   C     0.40952   0.44281   0.96504   0.00000  Uiso   1.00
C821   C     0.59168   0.53839   0.53005   0.00000  Uiso   1.00
C822   C     0.50788   0.49877   0.97610   0.00000  Uiso   1.00
C823   C     0.48810   0.48614   0.52224   0.00000  Uiso   1.00
C824   C     0.38558   0.45635   0.58667   0.00000  Uiso   1.00
C825   C     0.36910   0.40224   0.60821   0.00000  Uiso   1.00
C826   C     0.60675   0.51797   0.90813   0.00000  Uiso   1.00
C827   C     0.59434   0.46133   0.88990   0.00000  Uiso   1.00
C828   C     0.42454   0.45592   0.53912   0.00000  Uiso   1.00
C829   C     0.57277   0.52292   0.95693   0.00000  Uiso   1.00
C830   C     0.39051   0.42961   0.50927   0.00000  Uiso   1.00
C831   C     0.61110   0.54663   0.98482   0.00000  Uiso   1.00
C832   C     0.52344   0.65605   0.75191   0.00000  Uiso   1.00
C833   C     0.47657   0.34396   0.74810   0.00000  Uiso   1.00
C834   C     0.46125   0.49480   0.83307   0.00000  Uiso   1.00
Cu835  Cu    0.44071   0.49441   0.74517   0.00000  Uiso   1.00
Cu836  Cu    0.55929   0.50559   0.75484   0.00000  Uiso   1.00
H837   H     0.34511   0.40296   0.52137   0.00000  Uiso   1.00
H838   H     0.43145   0.65343   0.74452   0.00000  Uiso   1.00
H839   H     0.33434   0.53844   0.78471   0.00000  Uiso   1.00
H840   H     0.66558   0.46149   0.71538   0.00000  Uiso   1.00
H841   H     0.66464   0.37512   0.59554   0.00000  Uiso   1.00
H842   H     0.41067   0.38382   0.60128   0.00000  Uiso   1.00
H843   H     0.35138   0.40658   0.64450   0.00000  Uiso   1.00
H844   H     0.40687   0.48811   0.60720   0.00000  Uiso   1.00
H845   H     0.34023   0.46660   0.58670   0.00000  Uiso   1.00
H846   H     0.59839   0.43340   0.91348   0.00000  Uiso   1.00
H847   H     0.54715   0.44831   0.88336   0.00000  Uiso   1.00
H848   H     0.65877   0.56865   0.97075   0.00000  Uiso   1.00
H849   H     0.62890   0.45880   0.85772   0.00000  Uiso   1.00
H850   H     0.59731   0.54557   0.88688   0.00000  Uiso   1.00
H851   H     0.65880   0.53010   0.90395   0.00000  Uiso   1.00
H852   H     0.48687   0.45423   0.60525   0.00000  Uiso   1.00
H853   H     0.50111   0.54489   0.90144   0.00000  Uiso   1.00
H854   H     0.64735   0.56982   0.62214   0.00000  Uiso   1.00
H855   H     0.36835   0.41171   0.86802   0.00000  Uiso   1.00
H856   H     0.33510   0.38433   0.94566   0.00000  Uiso   1.00
H857   H     0.34411   0.58819   0.54283   0.00000  Uiso   1.00
H858   H     0.56855   0.34659   0.75549   0.00000  Uiso   1.00
N859   N     0.64839   0.51401   0.76212   0.00000  Uiso   1.00
N860   N     0.35161   0.48599   0.73788   0.00000  Uiso   1.00
O861   O     0.46148   0.57142   0.74686   0.00000  Uiso   1.00
O862   O     0.53852   0.42858   0.75314   0.00000  Uiso   1.00
O863   O     0.56163   0.58086   0.75503   0.00000  Uiso   1.00
O864   O     0.43837   0.41914   0.74498   0.00000  Uiso   1.00
O865   O     0.42185   0.49263   0.80855   0.00000  Uiso   1.00
O866   O     0.57815   0.50737   0.69146   0.00000  Uiso   1.00
O867   O     0.52199   0.50207   0.81671   0.00000  Uiso   1.00
O868   O     0.47801   0.49793   0.68329   0.00000  Uiso   1.00
C869   C     0.84837   0.60001   0.75130   0.00000  Uiso   1.00
C870   C     0.87197   0.50437   0.66681   0.00000  Uiso   1.00
C871   C     0.77031   0.48096   0.87964   0.00000  Uiso   1.00
C872   C     0.89531   0.51243   0.61908   0.00000  Uiso   1.00
C873   C     0.70749   0.41779   0.93551   0.00000  Uiso   1.00
C874   C     0.96637   0.56115   0.55663   0.00000  Uiso   1.00
C875   C     0.72440   0.43465   0.89196   0.00000  Uiso   1.00
C876   C     0.95027   0.54981   0.60145   0.00000  Uiso   1.00
C877   C     0.80256   0.50736   0.91019   0.00000  Uiso   1.00
C878   C     0.85681   0.48727   0.59175   0.00000  Uiso   1.00
C879   C     0.79630   0.48353   0.95032   0.00000  Uiso   1.00
C880   C     0.81830   0.39999   0.74871   0.00000  Uiso   1.00
C881   C     0.86628   0.50404   0.54845   0.00000  Uiso   1.00
C882   C     0.74286   0.44281   0.96504   0.00000  Uiso   1.00
C883   C     0.92502   0.53839   0.53005   0.00000  Uiso   1.00
C884   C     0.84122   0.49877   0.97610   0.00000  Uiso   1.00
C885   C     0.82143   0.48614   0.52224   0.00000  Uiso   1.00
C886   C     0.71891   0.45635   0.58667   0.00000  Uiso   1.00
C887   C     0.70244   0.40224   0.60821   0.00000  Uiso   1.00
C888   C     0.94009   0.51797   0.90813   0.00000  Uiso   1.00
C889   C     0.92767   0.46133   0.88990   0.00000  Uiso   1.00
C890   C     0.75788   0.45592   0.53912   0.00000  Uiso   1.00
C891   C     0.90611   0.52292   0.95693   0.00000  Uiso   1.00
C892   C     0.72385   0.42961   0.50927   0.00000  Uiso   1.00
C893   C     0.94443   0.54663   0.98482   0.00000  Uiso   1.00
C894   C     0.85677   0.65605   0.75191   0.00000  Uiso   1.00
C895   C     0.80990   0.34396   0.74810   0.00000  Uiso   1.00
C896   C     0.79458   0.49480   0.83307   0.00000  Uiso   1.00
Cu897  Cu    0.77404   0.49441   0.74517   0.00000  Uiso   1.00
Cu898  Cu    0.89263   0.50559   0.75484   0.00000  Uiso   1.00
H899   H     0.67845   0.40296   0.52137   0.00000  Uiso   1.00
H900   H     0.76479   0.65343   0.74452   0.00000  Uiso   1.00
H901   H     0.66767   0.53844   0.78471   0.00000  Uiso   1.00
H902   H     0.99891   0.46149   0.71538   0.00000  Uiso   1.00
H903   H     0.99797   0.37512   0.59554   0.00000  Uiso   1.00
H904   H     0.74400   0.38382   0.60128   0.00000  Uiso   1.00
H905   H     0.68471   0.40658   0.64450   0.00000  Uiso   1.00
H906   H     0.74020   0.48811   0.60720   0.00000  Uiso   1.00
H907   H     0.67357   0.46660   0.58670   0.00000  Uiso   1.00
H908   H     0.93172   0.43340   0.91348   0.00000  Uiso   1.00
H909   H     0.88048   0.44831   0.88336   0.00000  Uiso   1.00
H910   H     0.99210   0.56865   0.97075   0.00000  Uiso   1.00
H911   H     0.96223   0.45880   0.85772   0.00000  Uiso   1.00
H912   H     0.93065   0.54557   0.88688   0.00000  Uiso   1.00
H913   H     0.99213   0.53010   0.90395   0.00000  Uiso   1.00
H914   H     0.82020   0.45423   0.60525   0.00000  Uiso   1.00
H915   H     0.83445   0.54489   0.90144   0.00000  Uiso   1.00
H916   H     0.98068   0.56982   0.62214   0.00000  Uiso   1.00
H917   H     0.70169   0.41171   0.86802   0.00000  Uiso   1.00
H918   H     0.66843   0.38433   0.94566   0.00000  Uiso   1.00
H919   H     0.67744   0.58819   0.54283   0.00000  Uiso   1.00
H920   H     0.90189   0.34659   0.75549   0.00000  Uiso   1.00
N921   N     0.98173   0.51401   0.76212   0.00000  Uiso   1.00
N922   N     0.68494   0.48599   0.73788   0.00000  Uiso   1.00
O923   O     0.79482   0.57142   0.74686   0.00000  Uiso   1.00
O924   O     0.87185   0.42858   0.75314   0.00000  Uiso   1.00
O925   O     0.89496   0.58086   0.75503   0.00000  Uiso   1.00
O926   O     0.77171   0.41914   0.74498   0.00000  Uiso   1.00
O927   O     0.75518   0.49263   0.80855   0.00000  Uiso   1.00
O928   O     0.91149   0.50737   0.69146   0.00000  Uiso   1.00
O929   O     0.85532   0.50207   0.81671   0.00000  Uiso   1.00
O930   O     0.81134   0.49793   0.68329   0.00000  Uiso   1.00
C931   C     0.18170   0.93335   0.75130   0.00000  Uiso   1.00
C932   C     0.20531   0.83770   0.66681   0.00000  Uiso   1.00
C933   C     0.10365   0.81429   0.87964   0.00000  Uiso   1.00
C934   C     0.22865   0.84576   0.61908   0.00000  Uiso   1.00
C935   C     0.04082   0.75112   0.93551   0.00000  Uiso   1.00
C936   C     0.29970   0.89448   0.55663   0.00000  Uiso   1.00
C937   C     0.05773   0.76799   0.89196   0.00000  Uiso   1.00
C938   C     0.28361   0.88314   0.60145   0.00000  Uiso   1.00
C939   C     0.13590   0.84069   0.91019   0.00000  Uiso   1.00
C940   C     0.19014   0.82060   0.59175   0.00000  Uiso   1.00
C941   C     0.12964   0.81686   0.95032   0.00000  Uiso   1.00
C942   C     0.15163   0.73332   0.74871   0.00000  Uiso   1.00
C943   C     0.19961   0.83737   0.54845   0.00000  Uiso   1.00
C944   C     0.07619   0.77614   0.96504   0.00000  Uiso   1.00
C945   C     0.25835   0.87172   0.53005   0.00000  Uiso   1.00
C946   C     0.17455   0.83211   0.97610   0.00000  Uiso   1.00
C947   C     0.15476   0.81948   0.52224   0.00000  Uiso   1.00
C948   C     0.05225   0.78968   0.58667   0.00000  Uiso   1.00
C949   C     0.03577   0.73557   0.60821   0.00000  Uiso   1.00
C950   C     0.27342   0.85130   0.90813   0.00000  Uiso   1.00
C951   C     0.26101   0.79466   0.88990   0.00000  Uiso   1.00
C952   C     0.09121   0.78925   0.53912   0.00000  Uiso   1.00
C953   C     0.23944   0.85625   0.95693   0.00000  Uiso   1.00
C954   C     0.05718   0.76294   0.50927   0.00000  Uiso   1.00
C955   C     0.27777   0.87996   0.98482   0.00000  Uiso   1.00
C956   C     0.19010   0.98938   0.75191   0.00000  Uiso   1.00
C957   C     0.14324   0.67729   0.74810   0.00000  Uiso   1.00
C958   C     0.12791   0.82813   0.83307   0.00000  Uiso   1.00
Cu959  Cu    0.10737   0.82775   0.74517   0.00000  Uiso   1.00
Cu960  Cu    0.22596   0.83892   0.75484   0.00000  Uiso   1.00
H961   H     0.01178   0.73629   0.52137   0.00000  Uiso   1.00
H962   H     0.09812   0.98676   0.74452   0.00000  Uiso   1.00
H963   H     0.00101   0.87178   0.78471   0.00000  Uiso   1.00
H964   H     0.33225   0.79482   0.71538   0.00000  Uiso   1.00
H965   H     0.33130   0.70845   0.59554   0.00000  Uiso   1.00
H966   H     0.07733   0.71715   0.60128   0.00000  Uiso   1.00
H967   H     0.01804   0.73991   0.64450   0.00000  Uiso   1.00
H968   H     0.07353   0.82144   0.60720   0.00000  Uiso   1.00
H969   H     0.00690   0.79994   0.58670   0.00000  Uiso   1.00
H970   H     0.26506   0.76673   0.91348   0.00000  Uiso   1.00
H971   H     0.21382   0.78165   0.88336   0.00000  Uiso   1.00
H972   H     0.32543   0.90198   0.97075   0.00000  Uiso   1.00
H973   H     0.29556   0.79213   0.85772   0.00000  Uiso   1.00
H974   H     0.26398   0.87890   0.88688   0.00000  Uiso   1.00
H975   H     0.32547   0.86343   0.90395   0.00000  Uiso   1.00
H976   H     0.15353   0.78756   0.60525   0.00000  Uiso   1.00
H977   H     0.16778   0.87822   0.90144   0.00000  Uiso   1.00
H978   H     0.31401   0.90315   0.62214   0.00000  Uiso   1.00
H979   H     0.03502   0.74504   0.86802   0.00000  Uiso   1.00
H980   H     0.00176   0.71766   0.94566   0.00000  Uiso   1.00
H981   H     0.01077   0.92152   0.54283   0.00000  Uiso   1.00
H982   H     0.23522   0.67992   0.75549   0.00000  Uiso   1.00
N983   N     0.31506   0.84735   0.76212   0.00000  Uiso   1.00
N984   N     0.01827   0.81932   0.73788   0.00000  Uiso   1.00
O985   O     0.12815   0.90476   0.74686   0.00000  Uiso   1.00
O986   O     0.20518   0.76191   0.75314   0.00000  Uiso   1.00
O987   O     0.22829   0.91420   0.75503   0.00000  Uiso   1.00
O988   O     0.10504   0.75247   0.74498   0.00000  Uiso   1.00
O989   O     0.08851   0.82597   0.80855   0.00000  Uiso   1.00
O990   O     0.24482   0.84070   0.69146   0.00000  Uiso   1.00
O991   O     0.18866   0.83540   0.81671   0.00000  Uiso   1.00
O992   O     0.14468   0.83126   0.68329   0.00000  Uiso   1.00
C993   C     0.51503   0.93335   0.75130   0.00000  Uiso   1.00
C994   C     0.53864   0.83770   0.66681   0.00000  Uiso   1.00
C995   C     0.43698   0.81429   0.87964   0.00000  Uiso   1.00
C996   C     0.56198   0.84576   0.61908   0.00000  Uiso   1.00
C997   C     0.37415   0.75112   0.93551   0.00000  Uiso   1.00
C998   C     0.63304   0.89448   0.55663   0.00000  Uiso   1.00
C999   C     0.39107   0.76799   0.89196   0.00000  Uiso   1.00
C1000  C     0.61694   0.88314   0.60145   0.00000  Uiso   1.00
C1001  C     0.46923   0.84069   0.91019   0.00000  Uiso   1.00
C1002  C     0.52348   0.82060   0.59175   0.00000  Uiso   1.00
C1003  C     0.46297   0.81686   0.95032   0.00000  Uiso   1.00
C1004  C     0.48497   0.73332   0.74871   0.00000  Uiso   1.00
C1005  C     0.53295   0.83737   0.54845   0.00000  Uiso   1.00
C1006  C     0.40952   0.77614   0.96504   0.00000  Uiso   1.00
C1007  C     0.59168   0.87172   0.53005   0.00000  Uiso   1.00
C1008  C     0.50788   0.83211   0.97610   0.00000  Uiso   1.00
C1009  C     0.48810   0.81948   0.52224   0.00000  Uiso   1.00
C1010  C     0.38558   0.78968   0.58667   0.00000  Uiso   1.00
C1011  C     0.36910   0.73557   0.60821   0.00000  Uiso   1.00
C1012  C     0.60675   0.85130   0.90813   0.00000  Uiso   1.00
C1013  C     0.59434   0.79466   0.88990   0.00000  Uiso   1.00
C1014  C     0.42454   0.78925   0.53912   0.00000  Uiso   1.00
C1015  C     0.57277   0.85625   0.95693   0.00000  Uiso   1.00
C1016  C     0.39051   0.76294   0.50927   0.00000  Uiso   1.00
C1017  C     0.61110   0.87996   0.98482   0.00000  Uiso   1.00
C1018  C     0.52344   0.98938   0.75191   0.00000  Uiso   1.00
C1019  C     0.47657   0.67729   0.74810   0.00000  Uiso   1.00
C1020  C     0.46125   0.82813   0.83307   0.00000  Uiso   1.00
Cu1021 Cu    0.44071   0.82775   0.74517   0.00000  Uiso   1.00
Cu1022 Cu    0.55929   0.83892   0.75484   0.00000  Uiso   1.00
H1023  H     0.34511   0.73629   0.52137   0.00000  Uiso   1.00
H1024  H     0.43145   0.98676   0.74452   0.00000  Uiso   1.00
H1025  H     0.33434   0.87178   0.78471   0.00000  Uiso   1.00
H1026  H     0.66558   0.79482   0.71538   0.00000  Uiso   1.00
H1027  H     0.66464   0.70845   0.59554   0.00000  Uiso   1.00
H1028  H     0.41067   0.71715   0.60128   0.00000  Uiso   1.00
H1029  H     0.35138   0.73991   0.64450   0.00000  Uiso   1.00
H1030  H     0.40687   0.82144   0.60720   0.00000  Uiso   1.00
H1031  H     0.34023   0.79994   0.58670   0.00000  Uiso   1.00
H1032  H     0.59839   0.76673   0.91348   0.00000  Uiso   1.00
H1033  H     0.54715   0.78165   0.88336   0.00000  Uiso   1.00
H1034  H     0.65877   0.90198   0.97075   0.00000  Uiso   1.00
H1035  H     0.62890   0.79213   0.85772   0.00000  Uiso   1.00
H1036  H     0.59731   0.87890   0.88688   0.00000  Uiso   1.00
H1037  H     0.65880   0.86343   0.90395   0.00000  Uiso   1.00
H1038  H     0.48687   0.78756   0.60525   0.00000  Uiso   1.00
H1039  H     0.50111   0.87822   0.90144   0.00000  Uiso   1.00
H1040  H     0.64735   0.90315   0.62214   0.00000  Uiso   1.00
H1041  H     0.36835   0.74504   0.86802   0.00000  Uiso   1.00
H1042  H     0.33510   0.71766   0.94566   0.00000  Uiso   1.00
H1043  H     0.34411   0.92152   0.54283   0.00000  Uiso   1.00
H1044  H     0.56855   0.67992   0.75549   0.00000  Uiso   1.00
N1045  N     0.64839   0.84735   0.76212   0.00000  Uiso   1.00
N1046  N     0.35161   0.81932   0.73788   0.00000  Uiso   1.00
O1047  O     0.46148   0.90476   0.74686   0.00000  Uiso   1.00
O1048  O     0.53852   0.76191   0.75314   0.00000  Uiso   1.00
O1049  O     0.56163   0.91420   0.75503   0.00000  Uiso   1.00
O1050  O     0.43837   0.75247   0.74498   0.00000  Uiso   1.00
O1051  O     0.42185   0.82597   0.80855   0.00000  Uiso   1.00
O1052  O     0.57815   0.84070   0.69146   0.00000  Uiso   1.00
O1053  O     0.52199   0.83540   0.81671   0.00000  Uiso   1.00
O1054  O     0.47801   0.83126   0.68329   0.00000  Uiso   1.00
C1055  C     0.84837   0.93335   0.75130   0.00000  Uiso   1.00
C1056  C     0.87197   0.83770   0.66681   0.00000  Uiso   1.00
C1057  C     0.77031   0.81429   0.87964   0.00000  Uiso   1.00
C1058  C     0.89531   0.84576   0.61908   0.00000  Uiso   1.00
C1059  C     0.70749   0.75112   0.93551   0.00000  Uiso   1.00
C1060  C     0.96637   0.89448   0.55663   0.00000  Uiso   1.00
C1061  C     0.72440   0.76799   0.89196   0.00000  Uiso   1.00
C1062  C     0.95027   0.88314   0.60145   0.00000  Uiso   1.00
C1063  C     0.80256   0.84069   0.91019   0.00000  Uiso   1.00
C1064  C     0.85681   0.82060   0.59175   0.00000  Uiso   1.00
C1065  C     0.79630   0.81686   0.95032   0.00000  Uiso   1.00
C1066  C     0.81830   0.73332   0.74871   0.00000  Uiso   1.00
C1067  C     0.86628   0.83737   0.54845   0.00000  Uiso   1.00
C1068  C     0.74286   0.77614   0.96504   0.00000  Uiso   1.00
C1069  C     0.92502   0.87172   0.53005   0.00000  Uiso   1.00
C1070  C     0.84122   0.83211   0.97610   0.00000  Uiso   1.00
C1071  C     0.82143   0.81948   0.52224   0.00000  Uiso   1.00
C1072  C     0.71891   0.78968   0.58667   0.00000  Uiso   1.00
C1073  C     0.70244   0.73557   0.60821   0.00000  Uiso   1.00
C1074  C     0.94009   0.85130   0.90813   0.00000  Uiso   1.00
C1075  C     0.92767   0.79466   0.88990   0.00000  Uiso   1.00
C1076  C     0.75788   0.78925   0.53912   0.00000  Uiso   1.00
C1077  C     0.90611   0.85625   0.95693   0.00000  Uiso   1.00
C1078  C     0.72385   0.76294   0.50927   0.00000  Uiso   1.00
C1079  C     0.94443   0.87996   0.98482   0.00000  Uiso   1.00
C1080  C     0.85677   0.98938   0.75191   0.00000  Uiso   1.00
C1081  C     0.80990   0.67729   0.74810   0.00000  Uiso   1.00
C1082  C     0.79458   0.82813   0.83307   0.00000  Uiso   1.00
Cu1083 Cu    0.77404   0.82775   0.74517   0.00000  Uiso   1.00
Cu1084 Cu    0.89263   0.83892   0.75484   0.00000  Uiso   1.00
H1085  H     0.67845   0.73629   0.52137   0.00000  Uiso   1.00
H1086  H     0.76479   0.98676   0.74452   0.00000  Uiso   1.00
H1087  H     0.66767   0.87178   0.78471   0.00000  Uiso   1.00
H1088  H     0.99891   0.79482   0.71538   0.00000  Uiso   1.00
H1089  H     0.99797   0.70845   0.59554   0.00000  Uiso   1.00
H1090  H     0.74400   0.71715   0.60128   0.00000  Uiso   1.00
H1091  H     0.68471   0.73991   0.64450   0.00000  Uiso   1.00
H1092  H     0.74020   0.82144   0.60720   0.00000  Uiso   1.00
H1093  H     0.67357   0.79994   0.58670   0.00000  Uiso   1.00
H1094  H     0.93172   0.76673   0.91348   0.00000  Uiso   1.00
H1095  H     0.88048   0.78165   0.88336   0.00000  Uiso   1.00
H1096  H     0.99210   0.90198   0.97075   0.00000  Uiso   1.00
H1097  H     0.96223   0.79213   0.85772   0.00000  Uiso   1.00
H1098  H     0.93065   0.87890   0.88688   0.00000  Uiso   1.00
H1099  H     0.99213   0.86343   0.90395   0.00000  Uiso   1.00
H1100  H     0.82020   0.78756   0.60525   0.00000  Uiso   1.00
H1101  H     0.83445   0.87822   0.90144   0.00000  Uiso   1.00
H1102  H     0.98068   0.90315   0.62214   0.00000  Uiso   1.00
H1103  H     0.70169   0.74504   0.86802   0.00000  Uiso   1.00
H1104  H     0.66843   0.71766   0.94566   0.00000  Uiso   1.00
H1105  H     0.67744   0.92152   0.54283   0.00000  Uiso   1.00
H1106  H     0.90189   0.67992   0.75549   0.00000  Uiso   1.00
N1107  N     0.98173   0.84735   0.76212   0.00000  Uiso   1.00
N1108  N     0.68494   0.81932   0.73788   0.00000  Uiso   1.00
O1109  O     0.79482   0.90476   0.74686   0.00000  Uiso   1.00
O1110  O     0.87185   0.76191   0.75314   0.00000  Uiso   1.00
O1111  O     0.89496   0.91420   0.75503   0.00000  Uiso   1.00
O1112  O     0.77171   0.75247   0.74498   0.00000  Uiso   1.00
O1113  O     0.75518   0.82597   0.80855   0.00000  Uiso   1.00
O1114  O     0.91149   0.84070   0.69146   0.00000  Uiso   1.00
O1115  O     0.85532   0.83540   0.81671   0.00000  Uiso   1.00
O1116  O     0.81134   0.83126   0.68329   0.00000  Uiso   1.00
loop_
_geom_bond_atom_site_label_1
_geom_bond_atom_site_label_2
_geom_bond_distance
_geom_bond_site_symmetry_2
_ccdc_geom_bond_type
C1     O57     1.291   .     A
C1     C26     1.428   .     S
C1     O55     1.295   .     A
C2     C4      1.465   .     S
C2     O62     1.299   .     A
C2     O60     1.305   .     A
C3     C9      1.395   .     A
C3     C28     1.460   .     S
C3     C7      1.399   .     A
C4     C8      1.396   .     A
C4     C10     1.396   .     A
C5     C14     1.402   .     A
C5     H50     1.084   .     S
C5     C7      1.394   .     A
C6     C8      1.393   .     A
C6     C15     1.407   .     A
C6     H113    1.084   .     S
C7     H49     1.083   .     S
C8     H48     1.083   .     S
C9     C11     1.404   .     A
C9     H47     1.077   .     S
C10    H46     1.069   .     S
C10    C13     1.405   .     A
C11    C16     1.420   .     A
C11    C14     1.406   .     A
C12    O58     1.291   .     A
C12    O56     1.295   .     A
C12    C27     1.428   .     S
C13    C17     1.435   .     A
C13    C15     1.418   .     A
C14    C582    1.385   .     S
C15    C583    1.388   1_554 S
C16    C23     1.434   .     A
C16    C575    1.438   .     S
C17    C22     1.445   .     A
C17    C574    1.438   1_554 S
C18    H39     1.109   .     S
C18    H38     1.107   .     S
C18    C19     1.534   .     S
C18    C22     1.521   .     S
C19    H36     1.110   .     S
C19    H37     1.110   .     S
C19    H159    1.111   1_455 S
C20    C23     1.532   .     S
C20    C21     1.534   .     S
C20    H44     1.104   .     S
C20    H45     1.112   .     S
C21    H40     1.108   .     S
C21    H41     1.102   .     S
C21    H43     1.109   .     S
C22    C24     1.401   .     A
C23    C25     1.396   .     A
C24    H31     1.085   .     S
C24    C572    1.385   1_554 S
C25    H42     1.085   .     S
C25    C573    1.388   .     S
C26    C213    1.329   .     S
C26    H238    1.088   .     S
C27    C398    1.329   1_545 S
C27    H404    1.088   1_545 S
C28    O61     1.299   .     A
C28    O59     1.303   .     A
Cu29   Cu30    2.701   .     S
Cu29   O55     1.953   .     S
Cu29   O58     1.950   .     S
Cu29   N54     2.030   .     S
Cu29   O59     1.922   .     S
Cu29   O62     1.902   .     S
Cu30   N53     2.030   .     S
Cu30   O57     1.950   .     S
Cu30   O61     1.902   .     S
Cu30   O56     1.953   .     S
Cu30   O60     1.922   .     S
H32    C213    1.088   .     S
H33    N177    1.029   1_455 S
H34    N116    1.029   .     S
H35    C81     1.111   .     S
H51    C130    1.084   1_455 S
H52    C398    1.088   1_545 S
N53    H95     1.029   .     S
N53    N116    1.285   .     S
N54    H158    1.029   1_455 S
N54    N177    1.285   1_455 S
C63    O119    1.291   .     A
C63    C88     1.428   .     S
C63    O117    1.295   .     A
C64    C66     1.465   .     S
C64    O124    1.299   .     A
C64    O122    1.305   .     A
C65    C71     1.395   .     A
C65    C90     1.460   .     S
C65    C69     1.399   .     A
C66    C70     1.396   .     A
C66    C72     1.396   .     A
C67    C76     1.402   .     A
C67    H112    1.084   .     S
C67    C69     1.394   .     A
C68    C70     1.393   .     A
C68    C77     1.407   .     A
C68    H175    1.084   .     S
C69    H111    1.083   .     S
C70    H110    1.083   .     S
C71    C73     1.404   .     A
C71    H109    1.077   .     S
C72    H108    1.069   .     S
C72    C75     1.405   .     A
C73    C78     1.420   .     A
C73    C76     1.406   .     A
C74    O120    1.291   .     A
C74    O118    1.295   .     A
C74    C89     1.428   .     S
C75    C79     1.435   .     A
C75    C77     1.418   .     A
C76    C644    1.385   .     S
C77    C645    1.388   1_554 S
C78    C85     1.434   .     A
C78    C637    1.438   .     S
C79    C84     1.445   .     A
C79    C636    1.438   1_554 S
C80    H101    1.109   .     S
C80    H100    1.107   .     S
C80    C81     1.534   .     S
C80    C84     1.521   .     S
C81    H98     1.110   .     S
C81    H99     1.110   .     S
C82    C85     1.532   .     S
C82    C83     1.534   .     S
C82    H106    1.104   .     S
C82    H107    1.112   .     S
C83    H102    1.108   .     S
C83    H103    1.102   .     S
C83    H105    1.109   .     S
C84    C86     1.401   .     A
C85    C87     1.396   .     A
C86    H93     1.085   .     S
C86    C634    1.385   1_554 S
C87    H104    1.085   .     S
C87    C635    1.388   .     S
C88    C275    1.329   .     S
C88    H300    1.088   .     S
C89    C460    1.329   1_545 S
C89    H466    1.088   1_545 S
C90    O123    1.299   .     A
C90    O121    1.303   .     A
Cu91   Cu92    2.701   .     S
Cu91   O117    1.953   .     S
Cu91   O120    1.950   .     S
Cu91   N116    2.030   .     S
Cu91   O121    1.922   .     S
Cu91   O124    1.902   .     S
Cu92   N115    2.030   .     S
Cu92   O119    1.950   .     S
Cu92   O123    1.902   .     S
Cu92   O118    1.953   .     S
Cu92   O122    1.922   .     S
H94    C275    1.088   .     S
H96    N178    1.029   .     S
H97    C143    1.111   .     S
H114   C460    1.088   1_545 S
N115   H157    1.029   .     S
N115   N178    1.285   .     S
C125   O181    1.291   .     A
C125   C150    1.428   .     S
C125   O179    1.295   .     A
C126   C128    1.465   .     S
C126   O186    1.299   .     A
C126   O184    1.305   .     A
C127   C133    1.395   .     A
C127   C152    1.460   .     S
C127   C131    1.399   .     A
C128   C132    1.396   .     A
C128   C134    1.396   .     A
C129   C138    1.402   .     A
C129   H174    1.084   .     S
C129   C131    1.394   .     A
C130   C132    1.393   .     A
C130   C139    1.407   .     A
C130   H51     1.084   1_655 S
C131   H173    1.083   .     S
C132   H172    1.083   .     S
C133   C135    1.404   .     A
C133   H171    1.077   .     S
C134   H170    1.069   .     S
C134   C137    1.405   .     A
C135   C140    1.420   .     A
C135   C138    1.406   .     A
C136   O182    1.291   .     A
C136   O180    1.295   .     A
C136   C151    1.428   .     S
C137   C141    1.435   .     A
C137   C139    1.418   .     A
C138   C706    1.385   .     S
C139   C707    1.388   1_554 S
C140   C147    1.434   .     A
C140   C699    1.438   .     S
C141   C146    1.445   .     A
C141   C698    1.438   1_554 S
C142   H163    1.109   .     S
C142   H162    1.107   .     S
C142   C143    1.534   .     S
C142   C146    1.521   .     S
C143   H160    1.110   .     S
C143   H161    1.110   .     S
C144   C147    1.532   .     S
C144   C145    1.534   .     S
C144   H168    1.104   .     S
C144   H169    1.112   .     S
C145   H164    1.108   .     S
C145   H165    1.102   .     S
C145   H167    1.109   .     S
C146   C148    1.401   .     A
C147   C149    1.396   .     A
C148   H155    1.085   .     S
C148   C696    1.385   1_554 S
C149   H166    1.085   .     S
C149   C697    1.388   .     S
C150   C337    1.329   .     S
C150   H362    1.088   .     S
C151   C522    1.329   1_545 S
C151   H528    1.088   1_545 S
C152   O185    1.299   .     A
C152   O183    1.303   .     A
Cu153  Cu154   2.701   .     S
Cu153  O179    1.953   .     S
Cu153  O182    1.950   .     S
Cu153  N178    2.030   .     S
Cu153  O183    1.922   .     S
Cu153  O186    1.902   .     S
Cu154  N177    2.030   .     S
Cu154  O181    1.950   .     S
Cu154  O185    1.902   .     S
Cu154  O180    1.953   .     S
Cu154  O184    1.922   .     S
H156   C337    1.088   .     S
H158   N54     1.029   1_655 S
H159   C19     1.111   1_655 S
H176   C522    1.088   1_545 S
N177   H33     1.029   1_655 S
N177   N54     1.285   1_655 S
C187   O243    1.291   .     A
C187   C212    1.428   .     S
C187   O241    1.295   .     A
C188   C190    1.465   .     S
C188   O248    1.299   .     A
C188   O246    1.305   .     A
C189   C195    1.395   .     A
C189   C214    1.460   .     S
C189   C193    1.399   .     A
C190   C194    1.396   .     A
C190   C196    1.396   .     A
C191   C200    1.402   .     A
C191   H236    1.084   .     S
C191   C193    1.394   .     A
C192   C194    1.393   .     A
C192   C201    1.407   .     A
C192   H299    1.084   .     S
C193   H235    1.083   .     S
C194   H234    1.083   .     S
C195   C197    1.404   .     A
C195   H233    1.077   .     S
C196   H232    1.069   .     S
C196   C199    1.405   .     A
C197   C202    1.420   .     A
C197   C200    1.406   .     A
C198   O244    1.291   .     A
C198   O242    1.295   .     A
C198   C213    1.428   .     S
C199   C203    1.435   .     A
C199   C201    1.418   .     A
C200   C768    1.385   .     S
C201   C769    1.388   1_554 S
C202   C209    1.434   .     A
C202   C761    1.438   .     S
C203   C208    1.445   .     A
C203   C760    1.438   1_554 S
C204   H225    1.109   .     S
C204   H224    1.107   .     S
C204   C205    1.534   .     S
C204   C208    1.521   .     S
C205   H222    1.110   .     S
C205   H223    1.110   .     S
C205   H345    1.111   1_455 S
C206   C209    1.532   .     S
C206   C207    1.534   .     S
C206   H230    1.104   .     S
C206   H231    1.112   .     S
C207   H226    1.108   .     S
C207   H227    1.102   .     S
C207   H229    1.109   .     S
C208   C210    1.401   .     A
C209   C211    1.396   .     A
C210   H217    1.085   .     S
C210   C758    1.385   1_554 S
C211   H228    1.085   .     S
C211   C759    1.388   .     S
C212   C399    1.329   .     S
C212   H424    1.088   .     S
C214   O247    1.299   .     A
C214   O245    1.303   .     A
Cu215  Cu216   2.701   .     S
Cu215  O241    1.953   .     S
Cu215  O244    1.950   .     S
Cu215  N240    2.030   .     S
Cu215  O245    1.922   .     S
Cu215  O248    1.902   .     S
Cu216  N239    2.030   .     S
Cu216  O243    1.950   .     S
Cu216  O247    1.902   .     S
Cu216  O242    1.953   .     S
Cu216  O246    1.922   .     S
H218   C399    1.088   .     S
H219   N363    1.029   1_455 S
H220   N302    1.029   .     S
H221   C267    1.111   .     S
H237   C316    1.084   1_455 S
N239   H281    1.029   .     S
N239   N302    1.285   .     S
N240   H344    1.029   1_455 S
N240   N363    1.285   1_455 S
C249   O305    1.291   .     A
C249   C274    1.428   .     S
C249   O303    1.295   .     A
C250   C252    1.465   .     S
C250   O310    1.299   .     A
C250   O308    1.305   .     A
C251   C257    1.395   .     A
C251   C276    1.460   .     S
C251   C255    1.399   .     A
C252   C256    1.396   .     A
C252   C258    1.396   .     A
C253   C262    1.402   .     A
C253   H298    1.084   .     S
C253   C255    1.394   .     A
C254   C256    1.393   .     A
C254   C263    1.407   .     A
C254   H361    1.084   .     S
C255   H297    1.083   .     S
C256   H296    1.083   .     S
C257   C259    1.404   .     A
C257   H295    1.077   .     S
C258   H294    1.069   .     S
C258   C261    1.405   .     A
C259   C264    1.420   .     A
C259   C262    1.406   .     A
C260   O306    1.291   .     A
C260   O304    1.295   .     A
C260   C275    1.428   .     S
C261   C265    1.435   .     A
C261   C263    1.418   .     A
C262   C830    1.385   .     S
C263   C831    1.388   1_554 S
C264   C271    1.434   .     A
C264   C823    1.438   .     S
C265   C270    1.445   .     A
C265   C822    1.438   1_554 S
C266   H287    1.109   .     S
C266   H286    1.107   .     S
C266   C267    1.534   .     S
C266   C270    1.521   .     S
C267   H284    1.110   .     S
C267   H285    1.110   .     S
C268   C271    1.532   .     S
C268   C269    1.534   .     S
C268   H292    1.104   .     S
C268   H293    1.112   .     S
C269   H288    1.108   .     S
C269   H289    1.102   .     S
C269   H291    1.109   .     S
C270   C272    1.401   .     A
C271   C273    1.396   .     A
C272   H279    1.085   .     S
C272   C820    1.385   1_554 S
C273   H290    1.085   .     S
C273   C821    1.388   .     S
C274   C461    1.329   .     S
C274   H486    1.088   .     S
C276   O309    1.299   .     A
C276   O307    1.303   .     A
Cu277  Cu278   2.701   .     S
Cu277  O303    1.953   .     S
Cu277  O306    1.950   .     S
Cu277  N302    2.030   .     S
Cu277  O307    1.922   .     S
Cu277  O310    1.902   .     S
Cu278  N301    2.030   .     S
Cu278  O305    1.950   .     S
Cu278  O309    1.902   .     S
Cu278  O304    1.953   .     S
Cu278  O308    1.922   .     S
H280   C461    1.088   .     S
H282   N364    1.029   .     S
H283   C329    1.111   .     S
N301   H343    1.029   .     S
N301   N364    1.285   .     S
C311   O367    1.291   .     A
C311   C336    1.428   .     S
C311   O365    1.295   .     A
C312   C314    1.465   .     S
C312   O372    1.299   .     A
C312   O370    1.305   .     A
C313   C319    1.395   .     A
C313   C338    1.460   .     S
C313   C317    1.399   .     A
C314   C318    1.396   .     A
C314   C320    1.396   .     A
C315   C324    1.402   .     A
C315   H360    1.084   .     S
C315   C317    1.394   .     A
C316   C318    1.393   .     A
C316   C325    1.407   .     A
C316   H237    1.084   1_655 S
C317   H359    1.083   .     S
C318   H358    1.083   .     S
C319   C321    1.404   .     A
C319   H357    1.077   .     S
C320   H356    1.069   .     S
C320   C323    1.405   .     A
C321   C326    1.420   .     A
C321   C324    1.406   .     A
C322   O368    1.291   .     A
C322   O366    1.295   .     A
C322   C337    1.428   .     S
C323   C327    1.435   .     A
C323   C325    1.418   .     A
C324   C892    1.385   .     S
C325   C893    1.388   1_554 S
C326   C333    1.434   .     A
C326   C885    1.438   .     S
C327   C332    1.445   .     A
C327   C884    1.438   1_554 S
C328   H349    1.109   .     S
C328   H348    1.107   .     S
C328   C329    1.534   .     S
C328   C332    1.521   .     S
C329   H346    1.110   .     S
C329   H347    1.110   .     S
C330   C333    1.532   .     S
C330   C331    1.534   .     S
C330   H354    1.104   .     S
C330   H355    1.112   .     S
C331   H350    1.108   .     S
C331   H351    1.102   .     S
C331   H353    1.109   .     S
C332   C334    1.401   .     A
C333   C335    1.396   .     A
C334   H341    1.085   .     S
C334   C882    1.385   1_554 S
C335   H352    1.085   .     S
C335   C883    1.388   .     S
C336   C523    1.329   .     S
C336   H548    1.088   .     S
C338   O371    1.299   .     A
C338   O369    1.303   .     A
Cu339  Cu340   2.701   .     S
Cu339  O365    1.953   .     S
Cu339  O368    1.950   .     S
Cu339  N364    2.030   .     S
Cu339  O369    1.922   .     S
Cu339  O372    1.902   .     S
Cu340  N363    2.030   .     S
Cu340  O367    1.950   .     S
Cu340  O371    1.902   .     S
Cu340  O366    1.953   .     S
Cu340  O370    1.922   .     S
H342   C523    1.088   .     S
H344   N240    1.029   1_655 S
H345   C205    1.111   1_655 S
N363   H219    1.029   1_655 S
N363   N240    1.285   1_655 S
C373   O429    1.291   .     A
C373   C398    1.428   .     S
C373   O427    1.295   .     A
C374   C376    1.465   .     S
C374   O434    1.299   .     A
C374   O432    1.305   .     A
C375   C381    1.395   .     A
C375   C400    1.460   .     S
C375   C379    1.399   .     A
C376   C380    1.396   .     A
C376   C382    1.396   .     A
C377   C386    1.402   .     A
C377   H422    1.084   .     S
C377   C379    1.394   .     A
C378   C380    1.393   .     A
C378   C387    1.407   .     A
C378   H485    1.084   .     S
C379   H421    1.083   .     S
C380   H420    1.083   .     S
C381   C383    1.404   .     A
C381   H419    1.077   .     S
C382   H418    1.069   .     S
C382   C385    1.405   .     A
C383   C388    1.420   .     A
C383   C386    1.406   .     A
C384   O430    1.291   .     A
C384   O428    1.295   .     A
C384   C399    1.428   .     S
C385   C389    1.435   .     A
C385   C387    1.418   .     A
C386   C954    1.385   .     S
C387   C955    1.388   1_554 S
C388   C395    1.434   .     A
C388   C947    1.438   .     S
C389   C394    1.445   .     A
C389   C946    1.438   1_554 S
C390   H411    1.109   .     S
C390   H410    1.107   .     S
C390   C391    1.534   .     S
C390   C394    1.521   .     S
C391   H408    1.110   .     S
C391   H409    1.110   .     S
C391   H531    1.111   1_455 S
C392   C395    1.532   .     S
C392   C393    1.534   .     S
C392   H416    1.104   .     S
C392   H417    1.112   .     S
C393   H412    1.108   .     S
C393   H413    1.102   .     S
C393   H415    1.109   .     S
C394   C396    1.401   .     A
C395   C397    1.396   .     A
C396   H403    1.085   .     S
C396   C944    1.385   1_554 S
C397   H414    1.085   .     S
C397   C945    1.388   .     S
C398   C27     1.329   1_565 S
C398   H52     1.088   1_565 S
C400   O433    1.299   .     A
C400   O431    1.303   .     A
Cu401  Cu402   2.701   .     S
Cu401  O427    1.953   .     S
Cu401  O430    1.950   .     S
Cu401  N426    2.030   .     S
Cu401  O431    1.922   .     S
Cu401  O434    1.902   .     S
Cu402  N425    2.030   .     S
Cu402  O429    1.950   .     S
Cu402  O433    1.902   .     S
Cu402  O428    1.953   .     S
Cu402  O432    1.922   .     S
H404   C27     1.088   1_565 S
H405   N549    1.029   1_455 S
H406   N488    1.029   .     S
H407   C453    1.111   .     S
H423   C502    1.084   1_455 S
N425   H467    1.029   .     S
N425   N488    1.285   .     S
N426   H530    1.029   1_455 S
N426   N549    1.285   1_455 S
C435   O491    1.291   .     A
C435   C460    1.428   .     S
C435   O489    1.295   .     A
C436   C438    1.465   .     S
C436   O496    1.299   .     A
C436   O494    1.305   .     A
C437   C443    1.395   .     A
C437   C462    1.460   .     S
C437   C441    1.399   .     A
C438   C442    1.396   .     A
C438   C444    1.396   .     A
C439   C448    1.402   .     A
C439   H484    1.084   .     S
C439   C441    1.394   .     A
C440   C442    1.393   .     A
C440   C449    1.407   .     A
C440   H547    1.084   .     S
C441   H483    1.083   .     S
C442   H482    1.083   .     S
C443   C445    1.404   .     A
C443   H481    1.077   .     S
C444   H480    1.069   .     S
C444   C447    1.405   .     A
C445   C450    1.420   .     A
C445   C448    1.406   .     A
C446   O492    1.291   .     A
C446   O490    1.295   .     A
C446   C461    1.428   .     S
C447   C451    1.435   .     A
C447   C449    1.418   .     A
C448   C1016   1.385   .     S
C449   C1017   1.388   1_554 S
C450   C457    1.434   .     A
C450   C1009   1.438   .     S
C451   C456    1.445   .     A
C451   C1008   1.438   1_554 S
C452   H473    1.109   .     S
C452   H472    1.107   .     S
C452   C453    1.534   .     S
C452   C456    1.521   .     S
C453   H470    1.110   .     S
C453   H471    1.110   .     S
C454   C457    1.532   .     S
C454   C455    1.534   .     S
C454   H478    1.104   .     S
C454   H479    1.112   .     S
C455   H474    1.108   .     S
C455   H475    1.102   .     S
C455   H477    1.109   .     S
C456   C458    1.401   .     A
C457   C459    1.396   .     A
C458   H465    1.085   .     S
C458   C1006   1.385   1_554 S
C459   H476    1.085   .     S
C459   C1007   1.388   .     S
C460   C89     1.329   1_565 S
C460   H114    1.088   1_565 S
C462   O495    1.299   .     A
C462   O493    1.303   .     A
Cu463  Cu464   2.701   .     S
Cu463  O489    1.953   .     S
Cu463  O492    1.950   .     S
Cu463  N488    2.030   .     S
Cu463  O493    1.922   .     S
Cu463  O496    1.902   .     S
Cu464  N487    2.030   .     S
Cu464  O491    1.950   .     S
Cu464  O495    1.902   .     S
Cu464  O490    1.953   .     S
Cu464  O494    1.922   .     S
H466   C89     1.088   1_565 S
H468   N550    1.029   .     S
H469   C515    1.111   .     S
N487   H529    1.029   .     S
N487   N550    1.285   .     S
C497   O553    1.291   .     A
C497   C522    1.428   .     S
C497   O551    1.295   .     A
C498   C500    1.465   .     S
C498   O558    1.299   .     A
C498   O556    1.305   .     A
C499   C505    1.395   .     A
C499   C524    1.460   .     S
C499   C503    1.399   .     A
C500   C504    1.396   .     A
C500   C506    1.396   .     A
C501   C510    1.402   .     A
C501   H546    1.084   .     S
C501   C503    1.394   .     A
C502   C504    1.393   .     A
C502   C511    1.407   .     A
C502   H423    1.084   1_655 S
C503   H545    1.083   .     S
C504   H544    1.083   .     S
C505   C507    1.404   .     A
C505   H543    1.077   .     S
C506   H542    1.069   .     S
C506   C509    1.405   .     A
C507   C512    1.420   .     A
C507   C510    1.406   .     A
C508   O554    1.291   .     A
C508   O552    1.295   .     A
C508   C523    1.428   .     S
C509   C513    1.435   .     A
C509   C511    1.418   .     A
C510   C1078   1.385   .     S
C511   C1079   1.388   1_554 S
C512   C519    1.434   .     A
C512   C1071   1.438   .     S
C513   C518    1.445   .     A
C513   C1070   1.438   1_554 S
C514   H535    1.109   .     S
C514   H534    1.107   .     S
C514   C515    1.534   .     S
C514   C518    1.521   .     S
C515   H532    1.110   .     S
C515   H533    1.110   .     S
C516   C519    1.532   .     S
C516   C517    1.534   .     S
C516   H540    1.104   .     S
C516   H541    1.112   .     S
C517   H536    1.108   .     S
C517   H537    1.102   .     S
C517   H539    1.109   .     S
C518   C520    1.401   .     A
C519   C521    1.396   .     A
C520   H527    1.085   .     S
C520   C1068   1.385   1_554 S
C521   H538    1.085   .     S
C521   C1069   1.388   .     S
C522   C151    1.329   1_565 S
C522   H176    1.088   1_565 S
C524   O557    1.299   .     A
C524   O555    1.303   .     A
Cu525  Cu526   2.701   .     S
Cu525  O551    1.953   .     S
Cu525  O554    1.950   .     S
Cu525  N550    2.030   .     S
Cu525  O555    1.922   .     S
Cu525  O558    1.902   .     S
Cu526  N549    2.030   .     S
Cu526  O553    1.950   .     S
Cu526  O557    1.902   .     S
Cu526  O552    1.953   .     S
Cu526  O556    1.922   .     S
H528   C151    1.088   1_565 S
H530   N426    1.029   1_655 S
H531   C391    1.111   1_655 S
N549   H405    1.029   1_655 S
N549   N426    1.285   1_655 S
C559   O615    1.291   .     A
C559   C584    1.428   .     S
C559   O613    1.295   .     A
C560   C562    1.465   .     S
C560   O620    1.299   .     A
C560   O618    1.305   .     A
C561   C567    1.395   .     A
C561   C586    1.460   .     S
C561   C565    1.399   .     A
C562   C566    1.396   .     A
C562   C568    1.396   .     A
C563   C572    1.402   .     A
C563   H608    1.084   .     S
C563   C565    1.394   .     A
C564   C566    1.393   .     A
C564   C573    1.407   .     A
C564   H671    1.084   .     S
C565   H607    1.083   .     S
C566   H606    1.083   .     S
C567   C569    1.404   .     A
C567   H605    1.077   .     S
C568   H604    1.069   .     S
C568   C571    1.405   .     A
C569   C574    1.420   .     A
C569   C572    1.406   .     A
C570   O616    1.291   .     A
C570   O614    1.295   .     A
C570   C585    1.428   .     S
C571   C575    1.435   .     A
C571   C573    1.418   .     A
C572   C24     1.385   1_556 S
C574   C581    1.434   .     A
C574   C17     1.438   1_556 S
C575   C580    1.445   .     A
C576   H597    1.109   .     S
C576   H596    1.107   .     S
C576   C577    1.534   .     S
C576   C580    1.521   .     S
C577   H594    1.110   .     S
C577   H595    1.110   .     S
C577   H717    1.111   1_455 S
C578   C581    1.532   .     S
C578   C579    1.534   .     S
C578   H602    1.104   .     S
C578   H603    1.112   .     S
C579   H598    1.108   .     S
C579   H599    1.102   .     S
C579   H601    1.109   .     S
C580   C582    1.401   .     A
C581   C583    1.396   .     A
C582   H589    1.085   .     S
C583   H600    1.085   .     S
C583   C15     1.388   1_556 S
C584   C771    1.329   .     S
C584   H796    1.088   .     S
C585   C956    1.329   1_545 S
C585   H962    1.088   1_545 S
C586   O619    1.299   .     A
C586   O617    1.303   .     A
Cu587  Cu588   2.701   .     S
Cu587  O613    1.953   .     S
Cu587  O616    1.950   .     S
Cu587  N612    2.030   .     S
Cu587  O617    1.922   .     S
Cu587  O620    1.902   .     S
Cu588  N611    2.030   .     S
Cu588  O615    1.950   .     S
Cu588  O619    1.902   .     S
Cu588  O614    1.953   .     S
Cu588  O618    1.922   .     S
H590   C771    1.088   .     S
H591   N735    1.029   1_455 S
H592   N674    1.029   .     S
H593   C639    1.111   .     S
H609   C688    1.084   1_455 S
H610   C956    1.088   1_545 S
N611   H653    1.029   .     S
N611   N674    1.285   .     S
N612   H716    1.029   1_455 S
N612   N735    1.285   1_455 S
C621   O677    1.291   .     A
C621   C646    1.428   .     S
C621   O675    1.295   .     A
C622   C624    1.465   .     S
C622   O682    1.299   .     A
C622   O680    1.305   .     A
C623   C629    1.395   .     A
C623   C648    1.460   .     S
C623   C627    1.399   .     A
C624   C628    1.396   .     A
C624   C630    1.396   .     A
C625   C634    1.402   .     A
C625   H670    1.084   .     S
C625   C627    1.394   .     A
C626   C628    1.393   .     A
C626   C635    1.407   .     A
C626   H733    1.084   .     S
C627   H669    1.083   .     S
C628   H668    1.083   .     S
C629   C631    1.404   .     A
C629   H667    1.077   .     S
C630   H666    1.069   .     S
C630   C633    1.405   .     A
C631   C636    1.420   .     A
C631   C634    1.406   .     A
C632   O678    1.291   .     A
C632   O676    1.295   .     A
C632   C647    1.428   .     S
C633   C637    1.435   .     A
C633   C635    1.418   .     A
C634   C86     1.385   1_556 S
C636   C643    1.434   .     A
C636   C79     1.438   1_556 S
C637   C642    1.445   .     A
C638   H659    1.109   .     S
C638   H658    1.107   .     S
C638   C639    1.534   .     S
C638   C642    1.521   .     S
C639   H656    1.110   .     S
C639   H657    1.110   .     S
C640   C643    1.532   .     S
C640   C641    1.534   .     S
C640   H664    1.104   .     S
C640   H665    1.112   .     S
C641   H660    1.108   .     S
C641   H661    1.102   .     S
C641   H663    1.109   .     S
C642   C644    1.401   .     A
C643   C645    1.396   .     A
C644   H651    1.085   .     S
C645   H662    1.085   .     S
C645   C77     1.388   1_556 S
C646   C833    1.329   .     S
C646   H858    1.088   .     S
C647   C1018   1.329   1_545 S
C647   H1024   1.088   1_545 S
C648   O681    1.299   .     A
C648   O679    1.303   .     A
Cu649  Cu650   2.701   .     S
Cu649  O675    1.953   .     S
Cu649  O678    1.950   .     S
Cu649  N674    2.030   .     S
Cu649  O679    1.922   .     S
Cu649  O682    1.902   .     S
Cu650  N673    2.030   .     S
Cu650  O677    1.950   .     S
Cu650  O681    1.902   .     S
Cu650  O676    1.953   .     S
Cu650  O680    1.922   .     S
H652   C833    1.088   .     S
H654   N736    1.029   .     S
H655   C701    1.111   .     S
H672   C1018   1.088   1_545 S
N673   H715    1.029   .     S
N673   N736    1.285   .     S
C683   O739    1.291   .     A
C683   C708    1.428   .     S
C683   O737    1.295   .     A
C684   C686    1.465   .     S
C684   O744    1.299   .     A
C684   O742    1.305   .     A
C685   C691    1.395   .     A
C685   C710    1.460   .     S
C685   C689    1.399   .     A
C686   C690    1.396   .     A
C686   C692    1.396   .     A
C687   C696    1.402   .     A
C687   H732    1.084   .     S
C687   C689    1.394   .     A
C688   C690    1.393   .     A
C688   C697    1.407   .     A
C688   H609    1.084   1_655 S
C689   H731    1.083   .     S
C690   H730    1.083   .     S
C691   C693    1.404   .     A
C691   H729    1.077   .     S
C692   H728    1.069   .     S
C692   C695    1.405   .     A
C693   C698    1.420   .     A
C693   C696    1.406   .     A
C694   O740    1.291   .     A
C694   O738    1.295   .     A
C694   C709    1.428   .     S
C695   C699    1.435   .     A
C695   C697    1.418   .     A
C696   C148    1.385   1_556 S
C698   C705    1.434   .     A
C698   C141    1.438   1_556 S
C699   C704    1.445   .     A
C700   H721    1.109   .     S
C700   H720    1.107   .     S
C700   C701    1.534   .     S
C700   C704    1.521   .     S
C701   H718    1.110   .     S
C701   H719    1.110   .     S
C702   C705    1.532   .     S
C702   C703    1.534   .     S
C702   H726    1.104   .     S
C702   H727    1.112   .     S
C703   H722    1.108   .     S
C703   H723    1.102   .     S
C703   H725    1.109   .     S
C704   C706    1.401   .     A
C705   C707    1.396   .     A
C706   H713    1.085   .     S
C707   H724    1.085   .     S
C707   C139    1.388   1_556 S
C708   C895    1.329   .     S
C708   H920    1.088   .     S
C709   C1080   1.329   1_545 S
C709   H1086   1.088   1_545 S
C710   O743    1.299   .     A
C710   O741    1.303   .     A
Cu711  Cu712   2.701   .     S
Cu711  O737    1.953   .     S
Cu711  O740    1.950   .     S
Cu711  N736    2.030   .     S
Cu711  O741    1.922   .     S
Cu711  O744    1.902   .     S
Cu712  N735    2.030   .     S
Cu712  O739    1.950   .     S
Cu712  O743    1.902   .     S
Cu712  O738    1.953   .     S
Cu712  O742    1.922   .     S
H714   C895    1.088   .     S
H716   N612    1.029   1_655 S
H717   C577    1.111   1_655 S
H734   C1080   1.088   1_545 S
N735   H591    1.029   1_655 S
N735   N612    1.285   1_655 S
C745   O801    1.291   .     A
C745   C770    1.428   .     S
C745   O799    1.295   .     A
C746   C748    1.465   .     S
C746   O806    1.299   .     A
C746   O804    1.305   .     A
C747   C753    1.395   .     A
C747   C772    1.460   .     S
C747   C751    1.399   .     A
C748   C752    1.396   .     A
C748   C754    1.396   .     A
C749   C758    1.402   .     A
C749   H794    1.084   .     S
C749   C751    1.394   .     A
C750   C752    1.393   .     A
C750   C759    1.407   .     A
C750   H857    1.084   .     S
C751   H793    1.083   .     S
C752   H792    1.083   .     S
C753   C755    1.404   .     A
C753   H791    1.077   .     S
C754   H790    1.069   .     S
C754   C757    1.405   .     A
C755   C760    1.420   .     A
C755   C758    1.406   .     A
C756   O802    1.291   .     A
C756   O800    1.295   .     A
C756   C771    1.428   .     S
C757   C761    1.435   .     A
C757   C759    1.418   .     A
C758   C210    1.385   1_556 S
C760   C767    1.434   .     A
C760   C203    1.438   1_556 S
C761   C766    1.445   .     A
C762   H783    1.109   .     S
C762   H782    1.107   .     S
C762   C763    1.534   .     S
C762   C766    1.521   .     S
C763   H780    1.110   .     S
C763   H781    1.110   .     S
C763   H903    1.111   1_455 S
C764   C767    1.532   .     S
C764   C765    1.534   .     S
C764   H788    1.104   .     S
C764   H789    1.112   .     S
C765   H784    1.108   .     S
C765   H785    1.102   .     S
C765   H787    1.109   .     S
C766   C768    1.401   .     A
C767   C769    1.396   .     A
C768   H775    1.085   .     S
C769   H786    1.085   .     S
C769   C201    1.388   1_556 S
C770   C957    1.329   .     S
C770   H982    1.088   .     S
C772   O805    1.299   .     A
C772   O803    1.303   .     A
Cu773  Cu774   2.701   .     S
Cu773  O799    1.953   .     S
Cu773  O802    1.950   .     S
Cu773  N798    2.030   .     S
Cu773  O803    1.922   .     S
Cu773  O806    1.902   .     S
Cu774  N797    2.030   .     S
Cu774  O801    1.950   .     S
Cu774  O805    1.902   .     S
Cu774  O800    1.953   .     S
Cu774  O804    1.922   .     S
H776   C957    1.088   .     S
H777   N921    1.029   1_455 S
H778   N860    1.029   .     S
H779   C825    1.111   .     S
H795   C874    1.084   1_455 S
N797   H839    1.029   .     S
N797   N860    1.285   .     S
N798   H902    1.029   1_455 S
N798   N921    1.285   1_455 S
C807   O863    1.291   .     A
C807   C832    1.428   .     S
C807   O861    1.295   .     A
C808   C810    1.465   .     S
C808   O868    1.299   .     A
C808   O866    1.305   .     A
C809   C815    1.395   .     A
C809   C834    1.460   .     S
C809   C813    1.399   .     A
C810   C814    1.396   .     A
C810   C816    1.396   .     A
C811   C820    1.402   .     A
C811   H856    1.084   .     S
C811   C813    1.394   .     A
C812   C814    1.393   .     A
C812   C821    1.407   .     A
C812   H919    1.084   .     S
C813   H855    1.083   .     S
C814   H854    1.083   .     S
C815   C817    1.404   .     A
C815   H853    1.077   .     S
C816   H852    1.069   .     S
C816   C819    1.405   .     A
C817   C822    1.420   .     A
C817   C820    1.406   .     A
C818   O864    1.291   .     A
C818   O862    1.295   .     A
C818   C833    1.428   .     S
C819   C823    1.435   .     A
C819   C821    1.418   .     A
C820   C272    1.385   1_556 S
C822   C829    1.434   .     A
C822   C265    1.438   1_556 S
C823   C828    1.445   .     A
C824   H845    1.109   .     S
C824   H844    1.107   .     S
C824   C825    1.534   .     S
C824   C828    1.521   .     S
C825   H842    1.110   .     S
C825   H843    1.110   .     S
C826   C829    1.532   .     S
C826   C827    1.534   .     S
C826   H850    1.104   .     S
C826   H851    1.112   .     S
C827   H846    1.108   .     S
C827   H847    1.102   .     S
C827   H849    1.109   .     S
C828   C830    1.401   .     A
C829   C831    1.396   .     A
C830   H837    1.085   .     S
C831   H848    1.085   .     S
C831   C263    1.388   1_556 S
C832   C1019   1.329   .     S
C832   H1044   1.088   .     S
C834   O867    1.299   .     A
C834   O865    1.303   .     A
Cu835  Cu836   2.701   .     S
Cu835  O861    1.953   .     S
Cu835  O864    1.950   .     S
Cu835  N860    2.030   .     S
Cu835  O865    1.922   .     S
Cu835  O868    1.902   .     S
Cu836  N859    2.030   .     S
Cu836  O863    1.950   .     S
Cu836  O867    1.902   .     S
Cu836  O862    1.953   .     S
Cu836  O866    1.922   .     S
H838   C1019   1.088   .     S
H840   N922    1.029   .     S
H841   C887    1.111   .     S
N859   H901    1.029   .     S
N859   N922    1.285   .     S
C869   O925    1.291   .     A
C869   C894    1.428   .     S
C869   O923    1.295   .     A
C870   C872    1.465   .     S
C870   O930    1.299   .     A
C870   O928    1.305   .     A
C871   C877    1.395   .     A
C871   C896    1.460   .     S
C871   C875    1.399   .     A
C872   C876    1.396   .     A
C872   C878    1.396   .     A
C873   C882    1.402   .     A
C873   H918    1.084   .     S
C873   C875    1.394   .     A
C874   C876    1.393   .     A
C874   C883    1.407   .     A
C874   H795    1.084   1_655 S
C875   H917    1.083   .     S
C876   H916    1.083   .     S
C877   C879    1.404   .     A
C877   H915    1.077   .     S
C878   H914    1.069   .     S
C878   C881    1.405   .     A
C879   C884    1.420   .     A
C879   C882    1.406   .     A
C880   O926    1.291   .     A
C880   O924    1.295   .     A
C880   C895    1.428   .     S
C881   C885    1.435   .     A
C881   C883    1.418   .     A
C882   C334    1.385   1_556 S
C884   C891    1.434   .     A
C884   C327    1.438   1_556 S
C885   C890    1.445   .     A
C886   H907    1.109   .     S
C886   H906    1.107   .     S
C886   C887    1.534   .     S
C886   C890    1.521   .     S
C887   H904    1.110   .     S
C887   H905    1.110   .     S
C888   C891    1.532   .     S
C888   C889    1.534   .     S
C888   H912    1.104   .     S
C888   H913    1.112   .     S
C889   H908    1.108   .     S
C889   H909    1.102   .     S
C889   H911    1.109   .     S
C890   C892    1.401   .     A
C891   C893    1.396   .     A
C892   H899    1.085   .     S
C893   H910    1.085   .     S
C893   C325    1.388   1_556 S
C894   C1081   1.329   .     S
C894   H1106   1.088   .     S
C896   O929    1.299   .     A
C896   O927    1.303   .     A
Cu897  Cu898   2.701   .     S
Cu897  O923    1.953   .     S
Cu897  O926    1.950   .     S
Cu897  N922    2.030   .     S
Cu897  O927    1.922   .     S
Cu897  O930    1.902   .     S
Cu898  N921    2.030   .     S
Cu898  O925    1.950   .     S
Cu898  O929    1.902   .     S
Cu898  O924    1.953   .     S
Cu898  O928    1.922   .     S
H900   C1081   1.088   .     S
H902   N798    1.029   1_655 S
H903   C763    1.111   1_655 S
N921   H777    1.029   1_655 S
N921   N798    1.285   1_655 S
C931   O987    1.291   .     A
C931   C956    1.428   .     S
C931   O985    1.295   .     A
C932   C934    1.465   .     S
C932   O992    1.299   .     A
C932   O990    1.305   .     A
C933   C939    1.395   .     A
C933   C958    1.460   .     S
C933   C937    1.399   .     A
C934   C938    1.396   .     A
C934   C940    1.396   .     A
C935   C944    1.402   .     A
C935   H980    1.084   .     S
C935   C937    1.394   .     A
C936   C938    1.393   .     A
C936   C945    1.407   .     A
C936   H1043   1.084   .     S
C937   H979    1.083   .     S
C938   H978    1.083   .     S
C939   C941    1.404   .     A
C939   H977    1.077   .     S
C940   H976    1.069   .     S
C940   C943    1.405   .     A
C941   C946    1.420   .     A
C941   C944    1.406   .     A
C942   O988    1.291   .     A
C942   O986    1.295   .     A
C942   C957    1.428   .     S
C943   C947    1.435   .     A
C943   C945    1.418   .     A
C944   C396    1.385   1_556 S
C946   C953    1.434   .     A
C946   C389    1.438   1_556 S
C947   C952    1.445   .     A
C948   H969    1.109   .     S
C948   H968    1.107   .     S
C948   C949    1.534   .     S
C948   C952    1.521   .     S
C949   H966    1.110   .     S
C949   H967    1.110   .     S
C949   H1089   1.111   1_455 S
C950   C953    1.532   .     S
C950   C951    1.534   .     S
C950   H974    1.104   .     S
C950   H975    1.112   .     S
C951   H970    1.108   .     S
C951   H971    1.102   .     S
C951   H973    1.109   .     S
C952   C954    1.401   .     A
C953   C955    1.396   .     A
C954   H961    1.085   .     S
C955   H972    1.085   .     S
C955   C387    1.388   1_556 S
C956   C585    1.329   1_565 S
C956   H610    1.088   1_565 S
C958   O991    1.299   .     A
C958   O989    1.303   .     A
Cu959  Cu960   2.701   .     S
Cu959  O985    1.953   .     S
Cu959  O988    1.950   .     S
Cu959  N984    2.030   .     S
Cu959  O989    1.922   .     S
Cu959  O992    1.902   .     S
Cu960  N983    2.030   .     S
Cu960  O987    1.950   .     S
Cu960  O991    1.902   .     S
Cu960  O986    1.953   .     S
Cu960  O990    1.922   .     S
H962   C585    1.088   1_565 S
H963   N1107   1.029   1_455 S
H964   N1046   1.029   .     S
H965   C1011   1.111   .     S
H981   C1060   1.084   1_455 S
N983   H1025   1.029   .     S
N983   N1046   1.285   .     S
N984   H1088   1.029   1_455 S
N984   N1107   1.285   1_455 S
C993   O1049   1.291   .     A
C993   C1018   1.428   .     S
C993   O1047   1.295   .     A
C994   C996    1.465   .     S
C994   O1054   1.299   .     A
C994   O1052   1.305   .     A
C995   C1001   1.395   .     A
C995   C1020   1.460   .     S
C995   C999    1.399   .     A
C996   C1000   1.396   .     A
C996   C1002   1.396   .     A
C997   C1006   1.402   .     A
C997   H1042   1.084   .     S
C997   C999    1.394   .     A
C998   C1000   1.393   .     A
C998   C1007   1.407   .     A
C998   H1105   1.084   .     S
C999   H1041   1.083   .     S
C1000  H1040   1.083   .     S
C1001  C1003   1.404   .     A
C1001  H1039   1.077   .     S
C1002  H1038   1.069   .     S
C1002  C1005   1.405   .     A
C1003  C1008   1.420   .     A
C1003  C1006   1.406   .     A
C1004  O1050   1.291   .     A
C1004  O1048   1.295   .     A
C1004  C1019   1.428   .     S
C1005  C1009   1.435   .     A
C1005  C1007   1.418   .     A
C1006  C458    1.385   1_556 S
C1008  C1015   1.434   .     A
C1008  C451    1.438   1_556 S
C1009  C1014   1.445   .     A
C1010  H1031   1.109   .     S
C1010  H1030   1.107   .     S
C1010  C1011   1.534   .     S
C1010  C1014   1.521   .     S
C1011  H1028   1.110   .     S
C1011  H1029   1.110   .     S
C1012  C1015   1.532   .     S
C1012  C1013   1.534   .     S
C1012  H1036   1.104   .     S
C1012  H1037   1.112   .     S
C1013  H1032   1.108   .     S
C1013  H1033   1.102   .     S
C1013  H1035   1.109   .     S
C1014  C1016   1.401   .     A
C1015  C1017   1.396   .     A
C1016  H1023   1.085   .     S
C1017  H1034   1.085   .     S
C1017  C449    1.388   1_556 S
C1018  C647    1.329   1_565 S
C1018  H672    1.088   1_565 S
C1020  O1053   1.299   .     A
C1020  O1051   1.303   .     A
Cu1021 Cu1022  2.701   .     S
Cu1021 O1047   1.953   .     S
Cu1021 O1050   1.950   .     S
Cu1021 N1046   2.030   .     S
Cu1021 O1051   1.922   .     S
Cu1021 O1054   1.902   .     S
Cu1022 N1045   2.030   .     S
Cu1022 O1049   1.950   .     S
Cu1022 O1053   1.902   .     S
Cu1022 O1048   1.953   .     S
Cu1022 O1052   1.922   .     S
H1024  C647    1.088   1_565 S
H1026  N1108   1.029   .     S
H1027  C1073   1.111   .     S
N1045  H1087   1.029   .     S
N1045  N1108   1.285   .     S
C1055  O1111   1.291   .     A
C1055  C1080   1.428   .     S
C1055  O1109   1.295   .     A
C1056  C1058   1.465   .     S
C1056  O1116   1.299   .     A
C1056  O1114   1.305   .     A
C1057  C1063   1.395   .     A
C1057  C1082   1.460   .     S
C1057  C1061   1.399   .     A
C1058  C1062   1.396   .     A
C1058  C1064   1.396   .     A
C1059  C1068   1.402   .     A
C1059  H1104   1.084   .     S
C1059  C1061   1.394   .     A
C1060  C1062   1.393   .     A
C1060  C1069   1.407   .     A
C1060  H981    1.084   1_655 S
C1061  H1103   1.083   .     S
C1062  H1102   1.083   .     S
C1063  C1065   1.404   .     A
C1063  H1101   1.077   .     S
C1064  H1100   1.069   .     S
C1064  C1067   1.405   .     A
C1065  C1070   1.420   .     A
C1065  C1068   1.406   .     A
C1066  O1112   1.291   .     A
C1066  O1110   1.295   .     A
C1066  C1081   1.428   .     S
C1067  C1071   1.435   .     A
C1067  C1069   1.418   .     A
C1068  C520    1.385   1_556 S
C1070  C1077   1.434   .     A
C1070  C513    1.438   1_556 S
C1071  C1076   1.445   .     A
C1072  H1093   1.109   .     S
C1072  H1092   1.107   .     S
C1072  C1073   1.534   .     S
C1072  C1076   1.521   .     S
C1073  H1090   1.110   .     S
C1073  H1091   1.110   .     S
C1074  C1077   1.532   .     S
C1074  C1075   1.534   .     S
C1074  H1098   1.104   .     S
C1074  H1099   1.112   .     S
C1075  H1094   1.108   .     S
C1075  H1095   1.102   .     S
C1075  H1097   1.109   .     S
C1076  C1078   1.401   .     A
C1077  C1079   1.396   .     A
C1078  H1085   1.085   .     S
C1079  H1096   1.085   .     S
C1079  C511    1.388   1_556 S
C1080  C709    1.329   1_565 S
C1080  H734    1.088   1_565 S
C1082  O1115   1.299   .     A
C1082  O1113   1.303   .     A
Cu1083 Cu1084  2.701   .     S
Cu1083 O1109   1.953   .     S
Cu1083 O1112   1.950   .     S
Cu1083 N1108   2.030   .     S
Cu1083 O1113   1.922   .     S
Cu1083 O1116   1.902   .     S
Cu1084 N1107   2.030   .     S
Cu1084 O1111   1.950   .     S
Cu1084 O1115   1.902   .     S
Cu1084 O1110   1.953   .     S
Cu1084 O1114   1.922   .     S
H1086  C709    1.088   1_565 S
H1088  N984    1.029   1_655 S
H1089  C949    1.111   1_655 S
N1107  H963    1.029   1_655 S
N1107  N984    1.285   1_655 S
