data_str_m2_o1_o17_pcu_sym.9
_audit_creation_date              2020-01-03
_audit_creation_method            'Materials Studio'
_symmetry_space_group_name_H-M    'P1'
_symmetry_Int_Tables_number       1
_symmetry_cell_setting            triclinic
loop_
_symmetry_equiv_pos_as_xyz
  x,y,z
_cell_length_a                    32.4615
_cell_length_b                    28.5651
_cell_length_c                    30.0483
_cell_angle_alpha                 90.1145
_cell_angle_beta                  90.4300
_cell_angle_gamma                 89.8638
loop_
_atom_site_label
_atom_site_type_symbol
_atom_site_fract_x
_atom_site_fract_y
_atom_site_fract_z
_atom_site_U_iso_or_equiv
_atom_site_adp_type
_atom_site_occupancy
C1     C     0.08736   0.16670   0.25021   0.00000  Uiso   1.00
C2     C     0.04275   0.16671   0.25022   0.00000  Uiso   1.00
C3     C     0.14030   0.02482   0.22302   0.00000  Uiso   1.00
C4     C     0.19303   0.30851   0.27698   0.00000  Uiso   1.00
C5     C     0.19303   0.02479   0.27697   0.00000  Uiso   1.00
C6     C     0.14030   0.30855   0.22303   0.00000  Uiso   1.00
C7     C     0.16588   0.16661   0.16449   0.00000  Uiso   1.00
C8     C     0.16745   0.16672   0.33551   0.00000  Uiso   1.00
C9     C     0.20368   0.18132   0.40717   0.00000  Uiso   1.00
C10    C     0.12965   0.15202   0.09283   0.00000  Uiso   1.00
C11    C     0.16837   0.16688   0.38367   0.00000  Uiso   1.00
C12    C     0.24597   0.16663   0.24979   0.00000  Uiso   1.00
C13    C     0.16496   0.16645   0.11632   0.00000  Uiso   1.00
C14    C     0.13309   0.15247   0.40577   0.00000  Uiso   1.00
C15    C     0.20025   0.18087   0.09423   0.00000  Uiso   1.00
C16    C     0.13169   0.15261   0.45214   0.00000  Uiso   1.00
C17    C     0.20165   0.18072   0.04786   0.00000  Uiso   1.00
C18    C     0.16705   0.16673   0.47654   0.00000  Uiso   1.00
C19    C     0.16628   0.16661   0.02346   0.00000  Uiso   1.00
C20    C     0.20320   0.18098   0.45405   0.00000  Uiso   1.00
C21    C     0.13013   0.15236   0.04595   0.00000  Uiso   1.00
C22    C     0.09578   0.13910   0.47472   0.00000  Uiso   1.00
C23    C     0.09535   0.13897   0.02100   0.00000  Uiso   1.00
C24    C     0.23755   0.19423   0.02528   0.00000  Uiso   1.00
C25    C     0.23798   0.19436   0.47900   0.00000  Uiso   1.00
C26    C     0.02140   0.12416   0.25122   0.00000  Uiso   1.00
C27    C     0.31193   0.20918   0.24878   0.00000  Uiso   1.00
C28    C     0.31214   0.12411   0.25099   0.00000  Uiso   1.00
C29    C     0.02119   0.20922   0.24901   0.00000  Uiso   1.00
C30    C     0.29059   0.16662   0.24978   0.00000  Uiso   1.00
Cu31   Cu    0.16667   0.21355   0.25000   0.00000  Uiso   1.00
Cu32   Cu    0.16667   0.11978   0.25000   0.00000  Uiso   1.00
H33    H     0.10672   0.14168   0.38609   0.00000  Uiso   1.00
H34    H     0.21415   0.28981   0.29860   0.00000  Uiso   1.00
H35    H     0.21415   0.04347   0.29859   0.00000  Uiso   1.00
H36    H     0.11918   0.28987   0.20141   0.00000  Uiso   1.00
H37    H     0.22662   0.19165   0.11391   0.00000  Uiso   1.00
H38    H     0.06721   0.12829   0.03691   0.00000  Uiso   1.00
H39    H     0.26612   0.20504   0.46309   0.00000  Uiso   1.00
H40    H     0.03751   0.09092   0.25213   0.00000  Uiso   1.00
H41    H     0.29582   0.24242   0.24787   0.00000  Uiso   1.00
H42    H     0.29620   0.09086   0.25184   0.00000  Uiso   1.00
H43    H     0.03714   0.24247   0.24816   0.00000  Uiso   1.00
H44    H     0.11919   0.04352   0.20140   0.00000  Uiso   1.00
I45    I     0.25738   0.20175   0.37075   0.00000  Uiso   1.00
I46    I     0.07596   0.13158   0.12924   0.00000  Uiso   1.00
I47    I     0.04007   0.11893   0.44211   0.00000  Uiso   1.00
I48    I     0.29327   0.21440   0.05789   0.00000  Uiso   1.00
N49    N     0.16667   0.28402   0.25000   0.00000  Uiso   1.00
N50    N     0.16667   0.04931   0.25000   0.00000  Uiso   1.00
O51    O     0.10655   0.20625   0.24999   0.00000  Uiso   1.00
O52    O     0.22679   0.12709   0.25000   0.00000  Uiso   1.00
O53    O     0.22679   0.20625   0.25000   0.00000  Uiso   1.00
O54    O     0.10655   0.12709   0.24999   0.00000  Uiso   1.00
O55    O     0.16666   0.20627   0.18513   0.00000  Uiso   1.00
O56    O     0.16668   0.12707   0.31487   0.00000  Uiso   1.00
O57    O     0.16668   0.20627   0.31487   0.00000  Uiso   1.00
O58    O     0.16666   0.12707   0.18513   0.00000  Uiso   1.00
C59    C     0.42070   0.16670   0.25021   0.00000  Uiso   1.00
C60    C     0.37608   0.16671   0.25022   0.00000  Uiso   1.00
C61    C     0.47364   0.02482   0.22302   0.00000  Uiso   1.00
C62    C     0.52636   0.30851   0.27698   0.00000  Uiso   1.00
C63    C     0.52637   0.02479   0.27697   0.00000  Uiso   1.00
C64    C     0.47363   0.30855   0.22303   0.00000  Uiso   1.00
C65    C     0.49921   0.16661   0.16449   0.00000  Uiso   1.00
C66    C     0.50079   0.16672   0.33551   0.00000  Uiso   1.00
C67    C     0.53702   0.18132   0.40717   0.00000  Uiso   1.00
C68    C     0.46298   0.15202   0.09283   0.00000  Uiso   1.00
C69    C     0.50171   0.16688   0.38367   0.00000  Uiso   1.00
C70    C     0.57930   0.16663   0.24979   0.00000  Uiso   1.00
C71    C     0.49829   0.16645   0.11632   0.00000  Uiso   1.00
C72    C     0.46642   0.15247   0.40577   0.00000  Uiso   1.00
C73    C     0.53358   0.18087   0.09423   0.00000  Uiso   1.00
C74    C     0.46502   0.15261   0.45214   0.00000  Uiso   1.00
C75    C     0.53498   0.18072   0.04786   0.00000  Uiso   1.00
C76    C     0.50039   0.16673   0.47654   0.00000  Uiso   1.00
C77    C     0.49961   0.16661   0.02346   0.00000  Uiso   1.00
C78    C     0.53654   0.18098   0.45405   0.00000  Uiso   1.00
C79    C     0.46346   0.15236   0.04595   0.00000  Uiso   1.00
C80    C     0.42912   0.13910   0.47472   0.00000  Uiso   1.00
C81    C     0.42868   0.13897   0.02100   0.00000  Uiso   1.00
C82    C     0.57088   0.19423   0.02528   0.00000  Uiso   1.00
C83    C     0.57131   0.19436   0.47900   0.00000  Uiso   1.00
C84    C     0.35473   0.12416   0.25122   0.00000  Uiso   1.00
C85    C     0.64527   0.20918   0.24878   0.00000  Uiso   1.00
C86    C     0.64548   0.12411   0.25099   0.00000  Uiso   1.00
C87    C     0.35452   0.20922   0.24901   0.00000  Uiso   1.00
C88    C     0.62392   0.16662   0.24978   0.00000  Uiso   1.00
Cu89   Cu    0.50000   0.21355   0.25000   0.00000  Uiso   1.00
Cu90   Cu    0.50000   0.11978   0.25000   0.00000  Uiso   1.00
H91    H     0.44005   0.14168   0.38609   0.00000  Uiso   1.00
H92    H     0.54748   0.28981   0.29860   0.00000  Uiso   1.00
H93    H     0.54749   0.04347   0.29859   0.00000  Uiso   1.00
H94    H     0.45251   0.28987   0.20141   0.00000  Uiso   1.00
H95    H     0.55995   0.19165   0.11391   0.00000  Uiso   1.00
H96    H     0.40055   0.12829   0.03691   0.00000  Uiso   1.00
H97    H     0.59945   0.20504   0.46309   0.00000  Uiso   1.00
H98    H     0.37085   0.09092   0.25213   0.00000  Uiso   1.00
H99    H     0.62915   0.24242   0.24787   0.00000  Uiso   1.00
H100   H     0.62953   0.09086   0.25184   0.00000  Uiso   1.00
H101   H     0.37047   0.24247   0.24816   0.00000  Uiso   1.00
H102   H     0.45252   0.04352   0.20140   0.00000  Uiso   1.00
I103   I     0.59071   0.20175   0.37075   0.00000  Uiso   1.00
I104   I     0.40929   0.13158   0.12924   0.00000  Uiso   1.00
I105   I     0.37340   0.11893   0.44211   0.00000  Uiso   1.00
I106   I     0.62660   0.21440   0.05789   0.00000  Uiso   1.00
N107   N     0.50000   0.28402   0.25000   0.00000  Uiso   1.00
N108   N     0.50000   0.04931   0.25000   0.00000  Uiso   1.00
O109   O     0.43988   0.20625   0.24999   0.00000  Uiso   1.00
O110   O     0.56012   0.12709   0.25000   0.00000  Uiso   1.00
O111   O     0.56012   0.20625   0.25000   0.00000  Uiso   1.00
O112   O     0.43988   0.12709   0.24999   0.00000  Uiso   1.00
O113   O     0.49999   0.20627   0.18513   0.00000  Uiso   1.00
O114   O     0.50001   0.12707   0.31487   0.00000  Uiso   1.00
O115   O     0.50001   0.20627   0.31487   0.00000  Uiso   1.00
O116   O     0.49999   0.12707   0.18513   0.00000  Uiso   1.00
C117   C     0.75403   0.16670   0.25021   0.00000  Uiso   1.00
C118   C     0.70941   0.16671   0.25022   0.00000  Uiso   1.00
C119   C     0.80697   0.02482   0.22302   0.00000  Uiso   1.00
C120   C     0.85970   0.30851   0.27698   0.00000  Uiso   1.00
C121   C     0.85970   0.02479   0.27697   0.00000  Uiso   1.00
C122   C     0.80697   0.30855   0.22303   0.00000  Uiso   1.00
C123   C     0.83255   0.16661   0.16449   0.00000  Uiso   1.00
C124   C     0.83412   0.16672   0.33551   0.00000  Uiso   1.00
C125   C     0.87035   0.18132   0.40717   0.00000  Uiso   1.00
C126   C     0.79632   0.15202   0.09283   0.00000  Uiso   1.00
C127   C     0.83504   0.16688   0.38367   0.00000  Uiso   1.00
C128   C     0.91264   0.16663   0.24979   0.00000  Uiso   1.00
C129   C     0.83163   0.16645   0.11632   0.00000  Uiso   1.00
C130   C     0.79975   0.15247   0.40577   0.00000  Uiso   1.00
C131   C     0.86691   0.18087   0.09423   0.00000  Uiso   1.00
C132   C     0.79835   0.15261   0.45214   0.00000  Uiso   1.00
C133   C     0.86831   0.18072   0.04786   0.00000  Uiso   1.00
C134   C     0.83372   0.16673   0.47654   0.00000  Uiso   1.00
C135   C     0.83294   0.16661   0.02346   0.00000  Uiso   1.00
C136   C     0.86987   0.18098   0.45405   0.00000  Uiso   1.00
C137   C     0.79680   0.15236   0.04595   0.00000  Uiso   1.00
C138   C     0.76245   0.13910   0.47472   0.00000  Uiso   1.00
C139   C     0.76202   0.13897   0.02100   0.00000  Uiso   1.00
C140   C     0.90422   0.19423   0.02528   0.00000  Uiso   1.00
C141   C     0.90465   0.19436   0.47900   0.00000  Uiso   1.00
C142   C     0.68807   0.12416   0.25122   0.00000  Uiso   1.00
C143   C     0.97860   0.20918   0.24878   0.00000  Uiso   1.00
C144   C     0.97881   0.12411   0.25099   0.00000  Uiso   1.00
C145   C     0.68786   0.20922   0.24901   0.00000  Uiso   1.00
C146   C     0.95725   0.16662   0.24978   0.00000  Uiso   1.00
Cu147  Cu    0.83333   0.21355   0.25000   0.00000  Uiso   1.00
Cu148  Cu    0.83333   0.11978   0.25000   0.00000  Uiso   1.00
H149   H     0.77338   0.14168   0.38609   0.00000  Uiso   1.00
H150   H     0.88081   0.28981   0.29860   0.00000  Uiso   1.00
H151   H     0.88082   0.04347   0.29859   0.00000  Uiso   1.00
H152   H     0.78585   0.28987   0.20141   0.00000  Uiso   1.00
H153   H     0.89328   0.19165   0.11391   0.00000  Uiso   1.00
H154   H     0.73388   0.12829   0.03691   0.00000  Uiso   1.00
H155   H     0.93279   0.20504   0.46309   0.00000  Uiso   1.00
H156   H     0.70418   0.09092   0.25213   0.00000  Uiso   1.00
H157   H     0.96248   0.24242   0.24787   0.00000  Uiso   1.00
H158   H     0.96286   0.09086   0.25184   0.00000  Uiso   1.00
H159   H     0.70380   0.24247   0.24816   0.00000  Uiso   1.00
H160   H     0.78585   0.04352   0.20140   0.00000  Uiso   1.00
I161   I     0.92404   0.20175   0.37075   0.00000  Uiso   1.00
I162   I     0.74262   0.13158   0.12924   0.00000  Uiso   1.00
I163   I     0.70673   0.11893   0.44211   0.00000  Uiso   1.00
I164   I     0.95993   0.21440   0.05789   0.00000  Uiso   1.00
N165   N     0.83333   0.28402   0.25000   0.00000  Uiso   1.00
N166   N     0.83333   0.04931   0.25000   0.00000  Uiso   1.00
O167   O     0.77321   0.20625   0.24999   0.00000  Uiso   1.00
O168   O     0.89345   0.12709   0.25000   0.00000  Uiso   1.00
O169   O     0.89345   0.20625   0.25000   0.00000  Uiso   1.00
O170   O     0.77321   0.12709   0.24999   0.00000  Uiso   1.00
O171   O     0.83332   0.20627   0.18513   0.00000  Uiso   1.00
O172   O     0.83334   0.12707   0.31487   0.00000  Uiso   1.00
O173   O     0.83334   0.20627   0.31487   0.00000  Uiso   1.00
O174   O     0.83332   0.12707   0.18513   0.00000  Uiso   1.00
C175   C     0.08736   0.50004   0.25021   0.00000  Uiso   1.00
C176   C     0.04275   0.50005   0.25022   0.00000  Uiso   1.00
C177   C     0.14030   0.35815   0.22302   0.00000  Uiso   1.00
C178   C     0.19303   0.64185   0.27698   0.00000  Uiso   1.00
C179   C     0.19303   0.35812   0.27697   0.00000  Uiso   1.00
C180   C     0.14030   0.64188   0.22303   0.00000  Uiso   1.00
C181   C     0.16588   0.49995   0.16449   0.00000  Uiso   1.00
C182   C     0.16745   0.50005   0.33551   0.00000  Uiso   1.00
C183   C     0.20368   0.51465   0.40717   0.00000  Uiso   1.00
C184   C     0.12965   0.48535   0.09283   0.00000  Uiso   1.00
C185   C     0.16837   0.50021   0.38367   0.00000  Uiso   1.00
C186   C     0.24597   0.49996   0.24979   0.00000  Uiso   1.00
C187   C     0.16496   0.49979   0.11632   0.00000  Uiso   1.00
C188   C     0.13309   0.48580   0.40577   0.00000  Uiso   1.00
C189   C     0.20025   0.51420   0.09423   0.00000  Uiso   1.00
C190   C     0.13169   0.48594   0.45214   0.00000  Uiso   1.00
C191   C     0.20165   0.51406   0.04786   0.00000  Uiso   1.00
C192   C     0.16705   0.50006   0.47654   0.00000  Uiso   1.00
C193   C     0.16628   0.49994   0.02346   0.00000  Uiso   1.00
C194   C     0.20320   0.51431   0.45405   0.00000  Uiso   1.00
C195   C     0.13013   0.48569   0.04595   0.00000  Uiso   1.00
C196   C     0.09578   0.47244   0.47472   0.00000  Uiso   1.00
C197   C     0.09535   0.47230   0.02100   0.00000  Uiso   1.00
C198   C     0.23755   0.52756   0.02528   0.00000  Uiso   1.00
C199   C     0.23798   0.52770   0.47900   0.00000  Uiso   1.00
C200   C     0.02140   0.45749   0.25122   0.00000  Uiso   1.00
C201   C     0.31193   0.54251   0.24878   0.00000  Uiso   1.00
C202   C     0.31214   0.45744   0.25099   0.00000  Uiso   1.00
C203   C     0.02119   0.54255   0.24901   0.00000  Uiso   1.00
C204   C     0.29059   0.49995   0.24978   0.00000  Uiso   1.00
Cu205  Cu    0.16667   0.54689   0.25000   0.00000  Uiso   1.00
Cu206  Cu    0.16667   0.45311   0.25000   0.00000  Uiso   1.00
H207   H     0.10672   0.47501   0.38609   0.00000  Uiso   1.00
H208   H     0.21415   0.62315   0.29860   0.00000  Uiso   1.00
H209   H     0.21415   0.37680   0.29859   0.00000  Uiso   1.00
H210   H     0.11918   0.62320   0.20141   0.00000  Uiso   1.00
H211   H     0.22662   0.52499   0.11391   0.00000  Uiso   1.00
H212   H     0.06721   0.46162   0.03691   0.00000  Uiso   1.00
H213   H     0.26612   0.53838   0.46309   0.00000  Uiso   1.00
H214   H     0.03751   0.42425   0.25213   0.00000  Uiso   1.00
H215   H     0.29582   0.57575   0.24787   0.00000  Uiso   1.00
H216   H     0.29620   0.42419   0.25184   0.00000  Uiso   1.00
H217   H     0.03714   0.57581   0.24816   0.00000  Uiso   1.00
H218   H     0.11919   0.37685   0.20140   0.00000  Uiso   1.00
I219   I     0.25738   0.53508   0.37075   0.00000  Uiso   1.00
I220   I     0.07596   0.46492   0.12924   0.00000  Uiso   1.00
I221   I     0.04007   0.45227   0.44211   0.00000  Uiso   1.00
I222   I     0.29327   0.54773   0.05789   0.00000  Uiso   1.00
N223   N     0.16667   0.61736   0.25000   0.00000  Uiso   1.00
N224   N     0.16667   0.38264   0.25000   0.00000  Uiso   1.00
O225   O     0.10655   0.53958   0.24999   0.00000  Uiso   1.00
O226   O     0.22679   0.46042   0.25000   0.00000  Uiso   1.00
O227   O     0.22679   0.53958   0.25000   0.00000  Uiso   1.00
O228   O     0.10655   0.46042   0.24999   0.00000  Uiso   1.00
O229   O     0.16666   0.53960   0.18513   0.00000  Uiso   1.00
O230   O     0.16668   0.46040   0.31487   0.00000  Uiso   1.00
O231   O     0.16668   0.53960   0.31487   0.00000  Uiso   1.00
O232   O     0.16666   0.46040   0.18513   0.00000  Uiso   1.00
C233   C     0.42070   0.50004   0.25021   0.00000  Uiso   1.00
C234   C     0.37608   0.50005   0.25022   0.00000  Uiso   1.00
C235   C     0.47364   0.35815   0.22302   0.00000  Uiso   1.00
C236   C     0.52636   0.64185   0.27698   0.00000  Uiso   1.00
C237   C     0.52637   0.35812   0.27697   0.00000  Uiso   1.00
C238   C     0.47363   0.64188   0.22303   0.00000  Uiso   1.00
C239   C     0.49921   0.49995   0.16449   0.00000  Uiso   1.00
C240   C     0.50079   0.50005   0.33551   0.00000  Uiso   1.00
C241   C     0.53702   0.51465   0.40717   0.00000  Uiso   1.00
C242   C     0.46298   0.48535   0.09283   0.00000  Uiso   1.00
C243   C     0.50171   0.50021   0.38367   0.00000  Uiso   1.00
C244   C     0.57930   0.49996   0.24979   0.00000  Uiso   1.00
C245   C     0.49829   0.49979   0.11632   0.00000  Uiso   1.00
C246   C     0.46642   0.48580   0.40577   0.00000  Uiso   1.00
C247   C     0.53358   0.51420   0.09423   0.00000  Uiso   1.00
C248   C     0.46502   0.48594   0.45214   0.00000  Uiso   1.00
C249   C     0.53498   0.51406   0.04786   0.00000  Uiso   1.00
C250   C     0.50039   0.50006   0.47654   0.00000  Uiso   1.00
C251   C     0.49961   0.49994   0.02346   0.00000  Uiso   1.00
C252   C     0.53654   0.51431   0.45405   0.00000  Uiso   1.00
C253   C     0.46346   0.48569   0.04595   0.00000  Uiso   1.00
C254   C     0.42912   0.47244   0.47472   0.00000  Uiso   1.00
C255   C     0.42868   0.47230   0.02100   0.00000  Uiso   1.00
C256   C     0.57088   0.52756   0.02528   0.00000  Uiso   1.00
C257   C     0.57131   0.52770   0.47900   0.00000  Uiso   1.00
C258   C     0.35473   0.45749   0.25122   0.00000  Uiso   1.00
C259   C     0.64527   0.54251   0.24878   0.00000  Uiso   1.00
C260   C     0.64548   0.45744   0.25099   0.00000  Uiso   1.00
C261   C     0.35452   0.54255   0.24901   0.00000  Uiso   1.00
C262   C     0.62392   0.49995   0.24978   0.00000  Uiso   1.00
Cu263  Cu    0.50000   0.54689   0.25000   0.00000  Uiso   1.00
Cu264  Cu    0.50000   0.45311   0.25000   0.00000  Uiso   1.00
H265   H     0.44005   0.47501   0.38609   0.00000  Uiso   1.00
H266   H     0.54748   0.62315   0.29860   0.00000  Uiso   1.00
H267   H     0.54749   0.37680   0.29859   0.00000  Uiso   1.00
H268   H     0.45251   0.62320   0.20141   0.00000  Uiso   1.00
H269   H     0.55995   0.52499   0.11391   0.00000  Uiso   1.00
H270   H     0.40055   0.46162   0.03691   0.00000  Uiso   1.00
H271   H     0.59945   0.53838   0.46309   0.00000  Uiso   1.00
H272   H     0.37085   0.42425   0.25213   0.00000  Uiso   1.00
H273   H     0.62915   0.57575   0.24787   0.00000  Uiso   1.00
H274   H     0.62953   0.42419   0.25184   0.00000  Uiso   1.00
H275   H     0.37047   0.57581   0.24816   0.00000  Uiso   1.00
H276   H     0.45252   0.37685   0.20140   0.00000  Uiso   1.00
I277   I     0.59071   0.53508   0.37075   0.00000  Uiso   1.00
I278   I     0.40929   0.46492   0.12924   0.00000  Uiso   1.00
I279   I     0.37340   0.45227   0.44211   0.00000  Uiso   1.00
I280   I     0.62660   0.54773   0.05789   0.00000  Uiso   1.00
N281   N     0.50000   0.61736   0.25000   0.00000  Uiso   1.00
N282   N     0.50000   0.38264   0.25000   0.00000  Uiso   1.00
O283   O     0.43988   0.53958   0.24999   0.00000  Uiso   1.00
O284   O     0.56012   0.46042   0.25000   0.00000  Uiso   1.00
O285   O     0.56012   0.53958   0.25000   0.00000  Uiso   1.00
O286   O     0.43988   0.46042   0.24999   0.00000  Uiso   1.00
O287   O     0.49999   0.53960   0.18513   0.00000  Uiso   1.00
O288   O     0.50001   0.46040   0.31487   0.00000  Uiso   1.00
O289   O     0.50001   0.53960   0.31487   0.00000  Uiso   1.00
O290   O     0.49999   0.46040   0.18513   0.00000  Uiso   1.00
C291   C     0.75403   0.50004   0.25021   0.00000  Uiso   1.00
C292   C     0.70941   0.50005   0.25022   0.00000  Uiso   1.00
C293   C     0.80697   0.35815   0.22302   0.00000  Uiso   1.00
C294   C     0.85970   0.64185   0.27698   0.00000  Uiso   1.00
C295   C     0.85970   0.35812   0.27697   0.00000  Uiso   1.00
C296   C     0.80697   0.64188   0.22303   0.00000  Uiso   1.00
C297   C     0.83255   0.49995   0.16449   0.00000  Uiso   1.00
C298   C     0.83412   0.50005   0.33551   0.00000  Uiso   1.00
C299   C     0.87035   0.51465   0.40717   0.00000  Uiso   1.00
C300   C     0.79632   0.48535   0.09283   0.00000  Uiso   1.00
C301   C     0.83504   0.50021   0.38367   0.00000  Uiso   1.00
C302   C     0.91264   0.49996   0.24979   0.00000  Uiso   1.00
C303   C     0.83163   0.49979   0.11632   0.00000  Uiso   1.00
C304   C     0.79975   0.48580   0.40577   0.00000  Uiso   1.00
C305   C     0.86691   0.51420   0.09423   0.00000  Uiso   1.00
C306   C     0.79835   0.48594   0.45214   0.00000  Uiso   1.00
C307   C     0.86831   0.51406   0.04786   0.00000  Uiso   1.00
C308   C     0.83372   0.50006   0.47654   0.00000  Uiso   1.00
C309   C     0.83294   0.49994   0.02346   0.00000  Uiso   1.00
C310   C     0.86987   0.51431   0.45405   0.00000  Uiso   1.00
C311   C     0.79680   0.48569   0.04595   0.00000  Uiso   1.00
C312   C     0.76245   0.47244   0.47472   0.00000  Uiso   1.00
C313   C     0.76202   0.47230   0.02100   0.00000  Uiso   1.00
C314   C     0.90422   0.52756   0.02528   0.00000  Uiso   1.00
C315   C     0.90465   0.52770   0.47900   0.00000  Uiso   1.00
C316   C     0.68807   0.45749   0.25122   0.00000  Uiso   1.00
C317   C     0.97860   0.54251   0.24878   0.00000  Uiso   1.00
C318   C     0.97881   0.45744   0.25099   0.00000  Uiso   1.00
C319   C     0.68786   0.54255   0.24901   0.00000  Uiso   1.00
C320   C     0.95725   0.49995   0.24978   0.00000  Uiso   1.00
Cu321  Cu    0.83333   0.54689   0.25000   0.00000  Uiso   1.00
Cu322  Cu    0.83333   0.45311   0.25000   0.00000  Uiso   1.00
H323   H     0.77338   0.47501   0.38609   0.00000  Uiso   1.00
H324   H     0.88081   0.62315   0.29860   0.00000  Uiso   1.00
H325   H     0.88082   0.37680   0.29859   0.00000  Uiso   1.00
H326   H     0.78585   0.62320   0.20141   0.00000  Uiso   1.00
H327   H     0.89328   0.52499   0.11391   0.00000  Uiso   1.00
H328   H     0.73388   0.46162   0.03691   0.00000  Uiso   1.00
H329   H     0.93279   0.53838   0.46309   0.00000  Uiso   1.00
H330   H     0.70418   0.42425   0.25213   0.00000  Uiso   1.00
H331   H     0.96248   0.57575   0.24787   0.00000  Uiso   1.00
H332   H     0.96286   0.42419   0.25184   0.00000  Uiso   1.00
H333   H     0.70380   0.57581   0.24816   0.00000  Uiso   1.00
H334   H     0.78585   0.37685   0.20140   0.00000  Uiso   1.00
I335   I     0.92404   0.53508   0.37075   0.00000  Uiso   1.00
I336   I     0.74262   0.46492   0.12924   0.00000  Uiso   1.00
I337   I     0.70673   0.45227   0.44211   0.00000  Uiso   1.00
I338   I     0.95993   0.54773   0.05789   0.00000  Uiso   1.00
N339   N     0.83333   0.61736   0.25000   0.00000  Uiso   1.00
N340   N     0.83333   0.38264   0.25000   0.00000  Uiso   1.00
O341   O     0.77321   0.53958   0.24999   0.00000  Uiso   1.00
O342   O     0.89345   0.46042   0.25000   0.00000  Uiso   1.00
O343   O     0.89345   0.53958   0.25000   0.00000  Uiso   1.00
O344   O     0.77321   0.46042   0.24999   0.00000  Uiso   1.00
O345   O     0.83332   0.53960   0.18513   0.00000  Uiso   1.00
O346   O     0.83334   0.46040   0.31487   0.00000  Uiso   1.00
O347   O     0.83334   0.53960   0.31487   0.00000  Uiso   1.00
O348   O     0.83332   0.46040   0.18513   0.00000  Uiso   1.00
C349   C     0.08736   0.83337   0.25021   0.00000  Uiso   1.00
C350   C     0.04275   0.83338   0.25022   0.00000  Uiso   1.00
C351   C     0.14030   0.69149   0.22302   0.00000  Uiso   1.00
C352   C     0.19303   0.97518   0.27698   0.00000  Uiso   1.00
C353   C     0.19303   0.69145   0.27697   0.00000  Uiso   1.00
C354   C     0.14030   0.97521   0.22303   0.00000  Uiso   1.00
C355   C     0.16588   0.83328   0.16449   0.00000  Uiso   1.00
C356   C     0.16745   0.83339   0.33551   0.00000  Uiso   1.00
C357   C     0.20368   0.84798   0.40717   0.00000  Uiso   1.00
C358   C     0.12965   0.81868   0.09283   0.00000  Uiso   1.00
C359   C     0.16837   0.83355   0.38367   0.00000  Uiso   1.00
C360   C     0.24597   0.83330   0.24979   0.00000  Uiso   1.00
C361   C     0.16496   0.83312   0.11632   0.00000  Uiso   1.00
C362   C     0.13309   0.81913   0.40577   0.00000  Uiso   1.00
C363   C     0.20025   0.84753   0.09423   0.00000  Uiso   1.00
C364   C     0.13169   0.81928   0.45214   0.00000  Uiso   1.00
C365   C     0.20165   0.84739   0.04786   0.00000  Uiso   1.00
C366   C     0.16705   0.83339   0.47654   0.00000  Uiso   1.00
C367   C     0.16628   0.83327   0.02346   0.00000  Uiso   1.00
C368   C     0.20320   0.84764   0.45405   0.00000  Uiso   1.00
C369   C     0.13013   0.81902   0.04595   0.00000  Uiso   1.00
C370   C     0.09578   0.80577   0.47472   0.00000  Uiso   1.00
C371   C     0.09535   0.80564   0.02100   0.00000  Uiso   1.00
C372   C     0.23755   0.86090   0.02528   0.00000  Uiso   1.00
C373   C     0.23798   0.86103   0.47900   0.00000  Uiso   1.00
C374   C     0.02140   0.79082   0.25122   0.00000  Uiso   1.00
C375   C     0.31193   0.87584   0.24878   0.00000  Uiso   1.00
C376   C     0.31214   0.79078   0.25099   0.00000  Uiso   1.00
C377   C     0.02119   0.87589   0.24901   0.00000  Uiso   1.00
C378   C     0.29059   0.83329   0.24978   0.00000  Uiso   1.00
Cu379  Cu    0.16667   0.88022   0.25000   0.00000  Uiso   1.00
Cu380  Cu    0.16667   0.78645   0.25000   0.00000  Uiso   1.00
H381   H     0.10672   0.80835   0.38609   0.00000  Uiso   1.00
H382   H     0.21415   0.95648   0.29860   0.00000  Uiso   1.00
H383   H     0.21415   0.71013   0.29859   0.00000  Uiso   1.00
H384   H     0.11918   0.95653   0.20141   0.00000  Uiso   1.00
H385   H     0.22662   0.85832   0.11391   0.00000  Uiso   1.00
H386   H     0.06721   0.79496   0.03691   0.00000  Uiso   1.00
H387   H     0.26612   0.87171   0.46309   0.00000  Uiso   1.00
H388   H     0.03751   0.75758   0.25213   0.00000  Uiso   1.00
H389   H     0.29582   0.90908   0.24787   0.00000  Uiso   1.00
H390   H     0.29620   0.75753   0.25184   0.00000  Uiso   1.00
H391   H     0.03714   0.90914   0.24816   0.00000  Uiso   1.00
H392   H     0.11919   0.71019   0.20140   0.00000  Uiso   1.00
I393   I     0.25738   0.86841   0.37075   0.00000  Uiso   1.00
I394   I     0.07596   0.79825   0.12924   0.00000  Uiso   1.00
I395   I     0.04007   0.78560   0.44211   0.00000  Uiso   1.00
I396   I     0.29327   0.88107   0.05789   0.00000  Uiso   1.00
N397   N     0.16667   0.95069   0.25000   0.00000  Uiso   1.00
N398   N     0.16667   0.71598   0.25000   0.00000  Uiso   1.00
O399   O     0.10655   0.87291   0.24999   0.00000  Uiso   1.00
O400   O     0.22679   0.79375   0.25000   0.00000  Uiso   1.00
O401   O     0.22679   0.87291   0.25000   0.00000  Uiso   1.00
O402   O     0.10655   0.79375   0.24999   0.00000  Uiso   1.00
O403   O     0.16666   0.87293   0.18513   0.00000  Uiso   1.00
O404   O     0.16668   0.79373   0.31487   0.00000  Uiso   1.00
O405   O     0.16668   0.87293   0.31487   0.00000  Uiso   1.00
O406   O     0.16666   0.79373   0.18513   0.00000  Uiso   1.00
C407   C     0.42070   0.83337   0.25021   0.00000  Uiso   1.00
C408   C     0.37608   0.83338   0.25022   0.00000  Uiso   1.00
C409   C     0.47364   0.69149   0.22302   0.00000  Uiso   1.00
C410   C     0.52636   0.97518   0.27698   0.00000  Uiso   1.00
C411   C     0.52637   0.69145   0.27697   0.00000  Uiso   1.00
C412   C     0.47363   0.97521   0.22303   0.00000  Uiso   1.00
C413   C     0.49921   0.83328   0.16449   0.00000  Uiso   1.00
C414   C     0.50079   0.83339   0.33551   0.00000  Uiso   1.00
C415   C     0.53702   0.84798   0.40717   0.00000  Uiso   1.00
C416   C     0.46298   0.81868   0.09283   0.00000  Uiso   1.00
C417   C     0.50171   0.83355   0.38367   0.00000  Uiso   1.00
C418   C     0.57930   0.83330   0.24979   0.00000  Uiso   1.00
C419   C     0.49829   0.83312   0.11632   0.00000  Uiso   1.00
C420   C     0.46642   0.81913   0.40577   0.00000  Uiso   1.00
C421   C     0.53358   0.84753   0.09423   0.00000  Uiso   1.00
C422   C     0.46502   0.81928   0.45214   0.00000  Uiso   1.00
C423   C     0.53498   0.84739   0.04786   0.00000  Uiso   1.00
C424   C     0.50039   0.83339   0.47654   0.00000  Uiso   1.00
C425   C     0.49961   0.83327   0.02346   0.00000  Uiso   1.00
C426   C     0.53654   0.84764   0.45405   0.00000  Uiso   1.00
C427   C     0.46346   0.81902   0.04595   0.00000  Uiso   1.00
C428   C     0.42912   0.80577   0.47472   0.00000  Uiso   1.00
C429   C     0.42868   0.80564   0.02100   0.00000  Uiso   1.00
C430   C     0.57088   0.86090   0.02528   0.00000  Uiso   1.00
C431   C     0.57131   0.86103   0.47900   0.00000  Uiso   1.00
C432   C     0.35473   0.79082   0.25122   0.00000  Uiso   1.00
C433   C     0.64527   0.87584   0.24878   0.00000  Uiso   1.00
C434   C     0.64548   0.79078   0.25099   0.00000  Uiso   1.00
C435   C     0.35452   0.87589   0.24901   0.00000  Uiso   1.00
C436   C     0.62392   0.83329   0.24978   0.00000  Uiso   1.00
Cu437  Cu    0.50000   0.88022   0.25000   0.00000  Uiso   1.00
Cu438  Cu    0.50000   0.78645   0.25000   0.00000  Uiso   1.00
H439   H     0.44005   0.80835   0.38609   0.00000  Uiso   1.00
H440   H     0.54748   0.95648   0.29860   0.00000  Uiso   1.00
H441   H     0.54749   0.71013   0.29859   0.00000  Uiso   1.00
H442   H     0.45251   0.95653   0.20141   0.00000  Uiso   1.00
H443   H     0.55995   0.85832   0.11391   0.00000  Uiso   1.00
H444   H     0.40055   0.79496   0.03691   0.00000  Uiso   1.00
H445   H     0.59945   0.87171   0.46309   0.00000  Uiso   1.00
H446   H     0.37085   0.75758   0.25213   0.00000  Uiso   1.00
H447   H     0.62915   0.90908   0.24787   0.00000  Uiso   1.00
H448   H     0.62953   0.75753   0.25184   0.00000  Uiso   1.00
H449   H     0.37047   0.90914   0.24816   0.00000  Uiso   1.00
H450   H     0.45252   0.71019   0.20140   0.00000  Uiso   1.00
I451   I     0.59071   0.86841   0.37075   0.00000  Uiso   1.00
I452   I     0.40929   0.79825   0.12924   0.00000  Uiso   1.00
I453   I     0.37340   0.78560   0.44211   0.00000  Uiso   1.00
I454   I     0.62660   0.88107   0.05789   0.00000  Uiso   1.00
N455   N     0.50000   0.95069   0.25000   0.00000  Uiso   1.00
N456   N     0.50000   0.71598   0.25000   0.00000  Uiso   1.00
O457   O     0.43988   0.87291   0.24999   0.00000  Uiso   1.00
O458   O     0.56012   0.79375   0.25000   0.00000  Uiso   1.00
O459   O     0.56012   0.87291   0.25000   0.00000  Uiso   1.00
O460   O     0.43988   0.79375   0.24999   0.00000  Uiso   1.00
O461   O     0.49999   0.87293   0.18513   0.00000  Uiso   1.00
O462   O     0.50001   0.79373   0.31487   0.00000  Uiso   1.00
O463   O     0.50001   0.87293   0.31487   0.00000  Uiso   1.00
O464   O     0.49999   0.79373   0.18513   0.00000  Uiso   1.00
C465   C     0.75403   0.83337   0.25021   0.00000  Uiso   1.00
C466   C     0.70941   0.83338   0.25022   0.00000  Uiso   1.00
C467   C     0.80697   0.69149   0.22302   0.00000  Uiso   1.00
C468   C     0.85970   0.97518   0.27698   0.00000  Uiso   1.00
C469   C     0.85970   0.69145   0.27697   0.00000  Uiso   1.00
C470   C     0.80697   0.97521   0.22303   0.00000  Uiso   1.00
C471   C     0.83255   0.83328   0.16449   0.00000  Uiso   1.00
C472   C     0.83412   0.83339   0.33551   0.00000  Uiso   1.00
C473   C     0.87035   0.84798   0.40717   0.00000  Uiso   1.00
C474   C     0.79632   0.81868   0.09283   0.00000  Uiso   1.00
C475   C     0.83504   0.83355   0.38367   0.00000  Uiso   1.00
C476   C     0.91264   0.83330   0.24979   0.00000  Uiso   1.00
C477   C     0.83163   0.83312   0.11632   0.00000  Uiso   1.00
C478   C     0.79975   0.81913   0.40577   0.00000  Uiso   1.00
C479   C     0.86691   0.84753   0.09423   0.00000  Uiso   1.00
C480   C     0.79835   0.81928   0.45214   0.00000  Uiso   1.00
C481   C     0.86831   0.84739   0.04786   0.00000  Uiso   1.00
C482   C     0.83372   0.83339   0.47654   0.00000  Uiso   1.00
C483   C     0.83294   0.83327   0.02346   0.00000  Uiso   1.00
C484   C     0.86987   0.84764   0.45405   0.00000  Uiso   1.00
C485   C     0.79680   0.81902   0.04595   0.00000  Uiso   1.00
C486   C     0.76245   0.80577   0.47472   0.00000  Uiso   1.00
C487   C     0.76202   0.80564   0.02100   0.00000  Uiso   1.00
C488   C     0.90422   0.86090   0.02528   0.00000  Uiso   1.00
C489   C     0.90465   0.86103   0.47900   0.00000  Uiso   1.00
C490   C     0.68807   0.79082   0.25122   0.00000  Uiso   1.00
C491   C     0.97860   0.87584   0.24878   0.00000  Uiso   1.00
C492   C     0.97881   0.79078   0.25099   0.00000  Uiso   1.00
C493   C     0.68786   0.87589   0.24901   0.00000  Uiso   1.00
C494   C     0.95725   0.83329   0.24978   0.00000  Uiso   1.00
Cu495  Cu    0.83333   0.88022   0.25000   0.00000  Uiso   1.00
Cu496  Cu    0.83333   0.78645   0.25000   0.00000  Uiso   1.00
H497   H     0.77338   0.80835   0.38609   0.00000  Uiso   1.00
H498   H     0.88081   0.95648   0.29860   0.00000  Uiso   1.00
H499   H     0.88082   0.71013   0.29859   0.00000  Uiso   1.00
H500   H     0.78585   0.95653   0.20141   0.00000  Uiso   1.00
H501   H     0.89328   0.85832   0.11391   0.00000  Uiso   1.00
H502   H     0.73388   0.79496   0.03691   0.00000  Uiso   1.00
H503   H     0.93279   0.87171   0.46309   0.00000  Uiso   1.00
H504   H     0.70418   0.75758   0.25213   0.00000  Uiso   1.00
H505   H     0.96248   0.90908   0.24787   0.00000  Uiso   1.00
H506   H     0.96286   0.75753   0.25184   0.00000  Uiso   1.00
H507   H     0.70380   0.90914   0.24816   0.00000  Uiso   1.00
H508   H     0.78585   0.71019   0.20140   0.00000  Uiso   1.00
I509   I     0.92404   0.86841   0.37075   0.00000  Uiso   1.00
I510   I     0.74262   0.79825   0.12924   0.00000  Uiso   1.00
I511   I     0.70673   0.78560   0.44211   0.00000  Uiso   1.00
I512   I     0.95993   0.88107   0.05789   0.00000  Uiso   1.00
N513   N     0.83333   0.95069   0.25000   0.00000  Uiso   1.00
N514   N     0.83333   0.71598   0.25000   0.00000  Uiso   1.00
O515   O     0.77321   0.87291   0.24999   0.00000  Uiso   1.00
O516   O     0.89345   0.79375   0.25000   0.00000  Uiso   1.00
O517   O     0.89345   0.87291   0.25000   0.00000  Uiso   1.00
O518   O     0.77321   0.79375   0.24999   0.00000  Uiso   1.00
O519   O     0.83332   0.87293   0.18513   0.00000  Uiso   1.00
O520   O     0.83334   0.79373   0.31487   0.00000  Uiso   1.00
O521   O     0.83334   0.87293   0.31487   0.00000  Uiso   1.00
O522   O     0.83332   0.79373   0.18513   0.00000  Uiso   1.00
C523   C     0.08736   0.16670   0.75021   0.00000  Uiso   1.00
C524   C     0.04275   0.16671   0.75022   0.00000  Uiso   1.00
C525   C     0.14030   0.02482   0.72302   0.00000  Uiso   1.00
C526   C     0.19303   0.30851   0.77698   0.00000  Uiso   1.00
C527   C     0.19303   0.02479   0.77697   0.00000  Uiso   1.00
C528   C     0.14030   0.30855   0.72303   0.00000  Uiso   1.00
C529   C     0.16588   0.16661   0.66449   0.00000  Uiso   1.00
C530   C     0.16745   0.16672   0.83551   0.00000  Uiso   1.00
C531   C     0.20368   0.18132   0.90717   0.00000  Uiso   1.00
C532   C     0.12965   0.15202   0.59283   0.00000  Uiso   1.00
C533   C     0.16837   0.16688   0.88367   0.00000  Uiso   1.00
C534   C     0.24597   0.16663   0.74979   0.00000  Uiso   1.00
C535   C     0.16496   0.16645   0.61632   0.00000  Uiso   1.00
C536   C     0.13309   0.15247   0.90577   0.00000  Uiso   1.00
C537   C     0.20025   0.18087   0.59423   0.00000  Uiso   1.00
C538   C     0.13169   0.15261   0.95214   0.00000  Uiso   1.00
C539   C     0.20165   0.18072   0.54786   0.00000  Uiso   1.00
C540   C     0.16705   0.16673   0.97654   0.00000  Uiso   1.00
C541   C     0.16628   0.16661   0.52346   0.00000  Uiso   1.00
C542   C     0.20320   0.18098   0.95405   0.00000  Uiso   1.00
C543   C     0.13013   0.15236   0.54595   0.00000  Uiso   1.00
C544   C     0.09578   0.13910   0.97472   0.00000  Uiso   1.00
C545   C     0.09535   0.13897   0.52100   0.00000  Uiso   1.00
C546   C     0.23755   0.19423   0.52528   0.00000  Uiso   1.00
C547   C     0.23798   0.19436   0.97900   0.00000  Uiso   1.00
C548   C     0.02140   0.12416   0.75122   0.00000  Uiso   1.00
C549   C     0.31193   0.20918   0.74878   0.00000  Uiso   1.00
C550   C     0.31214   0.12411   0.75099   0.00000  Uiso   1.00
C551   C     0.02119   0.20922   0.74901   0.00000  Uiso   1.00
C552   C     0.29059   0.16662   0.74978   0.00000  Uiso   1.00
Cu553  Cu    0.16667   0.21355   0.75000   0.00000  Uiso   1.00
Cu554  Cu    0.16667   0.11978   0.75000   0.00000  Uiso   1.00
H555   H     0.10672   0.14168   0.88609   0.00000  Uiso   1.00
H556   H     0.21415   0.28981   0.79860   0.00000  Uiso   1.00
H557   H     0.21415   0.04347   0.79859   0.00000  Uiso   1.00
H558   H     0.11918   0.28987   0.70141   0.00000  Uiso   1.00
H559   H     0.22662   0.19165   0.61391   0.00000  Uiso   1.00
H560   H     0.06721   0.12829   0.53691   0.00000  Uiso   1.00
H561   H     0.26612   0.20504   0.96309   0.00000  Uiso   1.00
H562   H     0.03751   0.09092   0.75213   0.00000  Uiso   1.00
H563   H     0.29582   0.24242   0.74787   0.00000  Uiso   1.00
H564   H     0.29620   0.09086   0.75184   0.00000  Uiso   1.00
H565   H     0.03714   0.24247   0.74816   0.00000  Uiso   1.00
H566   H     0.11919   0.04352   0.70140   0.00000  Uiso   1.00
I567   I     0.25738   0.20175   0.87075   0.00000  Uiso   1.00
I568   I     0.07596   0.13158   0.62924   0.00000  Uiso   1.00
I569   I     0.04007   0.11893   0.94211   0.00000  Uiso   1.00
I570   I     0.29327   0.21440   0.55789   0.00000  Uiso   1.00
N571   N     0.16667   0.28402   0.75000   0.00000  Uiso   1.00
N572   N     0.16667   0.04931   0.75000   0.00000  Uiso   1.00
O573   O     0.10655   0.20625   0.74999   0.00000  Uiso   1.00
O574   O     0.22679   0.12709   0.75000   0.00000  Uiso   1.00
O575   O     0.22679   0.20625   0.75000   0.00000  Uiso   1.00
O576   O     0.10655   0.12709   0.74999   0.00000  Uiso   1.00
O577   O     0.16666   0.20627   0.68513   0.00000  Uiso   1.00
O578   O     0.16668   0.12707   0.81487   0.00000  Uiso   1.00
O579   O     0.16668   0.20627   0.81487   0.00000  Uiso   1.00
O580   O     0.16666   0.12707   0.68513   0.00000  Uiso   1.00
C581   C     0.42070   0.16670   0.75021   0.00000  Uiso   1.00
C582   C     0.37608   0.16671   0.75022   0.00000  Uiso   1.00
C583   C     0.47364   0.02482   0.72302   0.00000  Uiso   1.00
C584   C     0.52636   0.30851   0.77698   0.00000  Uiso   1.00
C585   C     0.52637   0.02479   0.77697   0.00000  Uiso   1.00
C586   C     0.47363   0.30855   0.72303   0.00000  Uiso   1.00
C587   C     0.49921   0.16661   0.66449   0.00000  Uiso   1.00
C588   C     0.50079   0.16672   0.83551   0.00000  Uiso   1.00
C589   C     0.53702   0.18132   0.90717   0.00000  Uiso   1.00
C590   C     0.46298   0.15202   0.59283   0.00000  Uiso   1.00
C591   C     0.50171   0.16688   0.88367   0.00000  Uiso   1.00
C592   C     0.57930   0.16663   0.74979   0.00000  Uiso   1.00
C593   C     0.49829   0.16645   0.61632   0.00000  Uiso   1.00
C594   C     0.46642   0.15247   0.90577   0.00000  Uiso   1.00
C595   C     0.53358   0.18087   0.59423   0.00000  Uiso   1.00
C596   C     0.46502   0.15261   0.95214   0.00000  Uiso   1.00
C597   C     0.53498   0.18072   0.54786   0.00000  Uiso   1.00
C598   C     0.50039   0.16673   0.97654   0.00000  Uiso   1.00
C599   C     0.49961   0.16661   0.52346   0.00000  Uiso   1.00
C600   C     0.53654   0.18098   0.95405   0.00000  Uiso   1.00
C601   C     0.46346   0.15236   0.54595   0.00000  Uiso   1.00
C602   C     0.42912   0.13910   0.97472   0.00000  Uiso   1.00
C603   C     0.42868   0.13897   0.52100   0.00000  Uiso   1.00
C604   C     0.57088   0.19423   0.52528   0.00000  Uiso   1.00
C605   C     0.57131   0.19436   0.97900   0.00000  Uiso   1.00
C606   C     0.35473   0.12416   0.75122   0.00000  Uiso   1.00
C607   C     0.64527   0.20918   0.74878   0.00000  Uiso   1.00
C608   C     0.64548   0.12411   0.75099   0.00000  Uiso   1.00
C609   C     0.35452   0.20922   0.74901   0.00000  Uiso   1.00
C610   C     0.62392   0.16662   0.74978   0.00000  Uiso   1.00
Cu611  Cu    0.50000   0.21355   0.75000   0.00000  Uiso   1.00
Cu612  Cu    0.50000   0.11978   0.75000   0.00000  Uiso   1.00
H613   H     0.44005   0.14168   0.88609   0.00000  Uiso   1.00
H614   H     0.54748   0.28981   0.79860   0.00000  Uiso   1.00
H615   H     0.54749   0.04347   0.79859   0.00000  Uiso   1.00
H616   H     0.45251   0.28987   0.70141   0.00000  Uiso   1.00
H617   H     0.55995   0.19165   0.61391   0.00000  Uiso   1.00
H618   H     0.40055   0.12829   0.53691   0.00000  Uiso   1.00
H619   H     0.59945   0.20504   0.96309   0.00000  Uiso   1.00
H620   H     0.37085   0.09092   0.75213   0.00000  Uiso   1.00
H621   H     0.62915   0.24242   0.74787   0.00000  Uiso   1.00
H622   H     0.62953   0.09086   0.75184   0.00000  Uiso   1.00
H623   H     0.37047   0.24247   0.74816   0.00000  Uiso   1.00
H624   H     0.45252   0.04352   0.70140   0.00000  Uiso   1.00
I625   I     0.59071   0.20175   0.87075   0.00000  Uiso   1.00
I626   I     0.40929   0.13158   0.62924   0.00000  Uiso   1.00
I627   I     0.37340   0.11893   0.94211   0.00000  Uiso   1.00
I628   I     0.62660   0.21440   0.55789   0.00000  Uiso   1.00
N629   N     0.50000   0.28402   0.75000   0.00000  Uiso   1.00
N630   N     0.50000   0.04931   0.75000   0.00000  Uiso   1.00
O631   O     0.43988   0.20625   0.74999   0.00000  Uiso   1.00
O632   O     0.56012   0.12709   0.75000   0.00000  Uiso   1.00
O633   O     0.56012   0.20625   0.75000   0.00000  Uiso   1.00
O634   O     0.43988   0.12709   0.74999   0.00000  Uiso   1.00
O635   O     0.49999   0.20627   0.68513   0.00000  Uiso   1.00
O636   O     0.50001   0.12707   0.81487   0.00000  Uiso   1.00
O637   O     0.50001   0.20627   0.81487   0.00000  Uiso   1.00
O638   O     0.49999   0.12707   0.68513   0.00000  Uiso   1.00
C639   C     0.75403   0.16670   0.75021   0.00000  Uiso   1.00
C640   C     0.70941   0.16671   0.75022   0.00000  Uiso   1.00
C641   C     0.80697   0.02482   0.72302   0.00000  Uiso   1.00
C642   C     0.85970   0.30851   0.77698   0.00000  Uiso   1.00
C643   C     0.85970   0.02479   0.77697   0.00000  Uiso   1.00
C644   C     0.80697   0.30855   0.72303   0.00000  Uiso   1.00
C645   C     0.83255   0.16661   0.66449   0.00000  Uiso   1.00
C646   C     0.83412   0.16672   0.83551   0.00000  Uiso   1.00
C647   C     0.87035   0.18132   0.90717   0.00000  Uiso   1.00
C648   C     0.79632   0.15202   0.59283   0.00000  Uiso   1.00
C649   C     0.83504   0.16688   0.88367   0.00000  Uiso   1.00
C650   C     0.91264   0.16663   0.74979   0.00000  Uiso   1.00
C651   C     0.83163   0.16645   0.61632   0.00000  Uiso   1.00
C652   C     0.79975   0.15247   0.90577   0.00000  Uiso   1.00
C653   C     0.86691   0.18087   0.59423   0.00000  Uiso   1.00
C654   C     0.79835   0.15261   0.95214   0.00000  Uiso   1.00
C655   C     0.86831   0.18072   0.54786   0.00000  Uiso   1.00
C656   C     0.83372   0.16673   0.97654   0.00000  Uiso   1.00
C657   C     0.83294   0.16661   0.52346   0.00000  Uiso   1.00
C658   C     0.86987   0.18098   0.95405   0.00000  Uiso   1.00
C659   C     0.79680   0.15236   0.54595   0.00000  Uiso   1.00
C660   C     0.76245   0.13910   0.97472   0.00000  Uiso   1.00
C661   C     0.76202   0.13897   0.52100   0.00000  Uiso   1.00
C662   C     0.90422   0.19423   0.52528   0.00000  Uiso   1.00
C663   C     0.90465   0.19436   0.97900   0.00000  Uiso   1.00
C664   C     0.68807   0.12416   0.75122   0.00000  Uiso   1.00
C665   C     0.97860   0.20918   0.74878   0.00000  Uiso   1.00
C666   C     0.97881   0.12411   0.75099   0.00000  Uiso   1.00
C667   C     0.68786   0.20922   0.74901   0.00000  Uiso   1.00
C668   C     0.95725   0.16662   0.74978   0.00000  Uiso   1.00
Cu669  Cu    0.83333   0.21355   0.75000   0.00000  Uiso   1.00
Cu670  Cu    0.83333   0.11978   0.75000   0.00000  Uiso   1.00
H671   H     0.77338   0.14168   0.88609   0.00000  Uiso   1.00
H672   H     0.88081   0.28981   0.79860   0.00000  Uiso   1.00
H673   H     0.88082   0.04347   0.79859   0.00000  Uiso   1.00
H674   H     0.78585   0.28987   0.70141   0.00000  Uiso   1.00
H675   H     0.89328   0.19165   0.61391   0.00000  Uiso   1.00
H676   H     0.73388   0.12829   0.53691   0.00000  Uiso   1.00
H677   H     0.93279   0.20504   0.96309   0.00000  Uiso   1.00
H678   H     0.70418   0.09092   0.75213   0.00000  Uiso   1.00
H679   H     0.96248   0.24242   0.74787   0.00000  Uiso   1.00
H680   H     0.96286   0.09086   0.75184   0.00000  Uiso   1.00
H681   H     0.70380   0.24247   0.74816   0.00000  Uiso   1.00
H682   H     0.78585   0.04352   0.70140   0.00000  Uiso   1.00
I683   I     0.92404   0.20175   0.87075   0.00000  Uiso   1.00
I684   I     0.74262   0.13158   0.62924   0.00000  Uiso   1.00
I685   I     0.70673   0.11893   0.94211   0.00000  Uiso   1.00
I686   I     0.95993   0.21440   0.55789   0.00000  Uiso   1.00
N687   N     0.83333   0.28402   0.75000   0.00000  Uiso   1.00
N688   N     0.83333   0.04931   0.75000   0.00000  Uiso   1.00
O689   O     0.77321   0.20625   0.74999   0.00000  Uiso   1.00
O690   O     0.89345   0.12709   0.75000   0.00000  Uiso   1.00
O691   O     0.89345   0.20625   0.75000   0.00000  Uiso   1.00
O692   O     0.77321   0.12709   0.74999   0.00000  Uiso   1.00
O693   O     0.83332   0.20627   0.68513   0.00000  Uiso   1.00
O694   O     0.83334   0.12707   0.81487   0.00000  Uiso   1.00
O695   O     0.83334   0.20627   0.81487   0.00000  Uiso   1.00
O696   O     0.83332   0.12707   0.68513   0.00000  Uiso   1.00
C697   C     0.08736   0.50004   0.75021   0.00000  Uiso   1.00
C698   C     0.04275   0.50005   0.75022   0.00000  Uiso   1.00
C699   C     0.14030   0.35815   0.72302   0.00000  Uiso   1.00
C700   C     0.19303   0.64185   0.77698   0.00000  Uiso   1.00
C701   C     0.19303   0.35812   0.77697   0.00000  Uiso   1.00
C702   C     0.14030   0.64188   0.72303   0.00000  Uiso   1.00
C703   C     0.16588   0.49995   0.66449   0.00000  Uiso   1.00
C704   C     0.16745   0.50005   0.83551   0.00000  Uiso   1.00
C705   C     0.20368   0.51465   0.90717   0.00000  Uiso   1.00
C706   C     0.12965   0.48535   0.59283   0.00000  Uiso   1.00
C707   C     0.16837   0.50021   0.88367   0.00000  Uiso   1.00
C708   C     0.24597   0.49996   0.74979   0.00000  Uiso   1.00
C709   C     0.16496   0.49979   0.61632   0.00000  Uiso   1.00
C710   C     0.13309   0.48580   0.90577   0.00000  Uiso   1.00
C711   C     0.20025   0.51420   0.59423   0.00000  Uiso   1.00
C712   C     0.13169   0.48594   0.95214   0.00000  Uiso   1.00
C713   C     0.20165   0.51406   0.54786   0.00000  Uiso   1.00
C714   C     0.16705   0.50006   0.97654   0.00000  Uiso   1.00
C715   C     0.16628   0.49994   0.52346   0.00000  Uiso   1.00
C716   C     0.20320   0.51431   0.95405   0.00000  Uiso   1.00
C717   C     0.13013   0.48569   0.54595   0.00000  Uiso   1.00
C718   C     0.09578   0.47244   0.97472   0.00000  Uiso   1.00
C719   C     0.09535   0.47230   0.52100   0.00000  Uiso   1.00
C720   C     0.23755   0.52756   0.52528   0.00000  Uiso   1.00
C721   C     0.23798   0.52770   0.97900   0.00000  Uiso   1.00
C722   C     0.02140   0.45749   0.75122   0.00000  Uiso   1.00
C723   C     0.31193   0.54251   0.74878   0.00000  Uiso   1.00
C724   C     0.31214   0.45744   0.75099   0.00000  Uiso   1.00
C725   C     0.02119   0.54255   0.74901   0.00000  Uiso   1.00
C726   C     0.29059   0.49995   0.74978   0.00000  Uiso   1.00
Cu727  Cu    0.16667   0.54689   0.75000   0.00000  Uiso   1.00
Cu728  Cu    0.16667   0.45311   0.75000   0.00000  Uiso   1.00
H729   H     0.10672   0.47501   0.88609   0.00000  Uiso   1.00
H730   H     0.21415   0.62315   0.79860   0.00000  Uiso   1.00
H731   H     0.21415   0.37680   0.79859   0.00000  Uiso   1.00
H732   H     0.11918   0.62320   0.70141   0.00000  Uiso   1.00
H733   H     0.22662   0.52499   0.61391   0.00000  Uiso   1.00
H734   H     0.06721   0.46162   0.53691   0.00000  Uiso   1.00
H735   H     0.26612   0.53838   0.96309   0.00000  Uiso   1.00
H736   H     0.03751   0.42425   0.75213   0.00000  Uiso   1.00
H737   H     0.29582   0.57575   0.74787   0.00000  Uiso   1.00
H738   H     0.29620   0.42419   0.75184   0.00000  Uiso   1.00
H739   H     0.03714   0.57581   0.74816   0.00000  Uiso   1.00
H740   H     0.11919   0.37685   0.70140   0.00000  Uiso   1.00
I741   I     0.25738   0.53508   0.87075   0.00000  Uiso   1.00
I742   I     0.07596   0.46492   0.62924   0.00000  Uiso   1.00
I743   I     0.04007   0.45227   0.94211   0.00000  Uiso   1.00
I744   I     0.29327   0.54773   0.55789   0.00000  Uiso   1.00
N745   N     0.16667   0.61736   0.75000   0.00000  Uiso   1.00
N746   N     0.16667   0.38264   0.75000   0.00000  Uiso   1.00
O747   O     0.10655   0.53958   0.74999   0.00000  Uiso   1.00
O748   O     0.22679   0.46042   0.75000   0.00000  Uiso   1.00
O749   O     0.22679   0.53958   0.75000   0.00000  Uiso   1.00
O750   O     0.10655   0.46042   0.74999   0.00000  Uiso   1.00
O751   O     0.16666   0.53960   0.68513   0.00000  Uiso   1.00
O752   O     0.16668   0.46040   0.81487   0.00000  Uiso   1.00
O753   O     0.16668   0.53960   0.81487   0.00000  Uiso   1.00
O754   O     0.16666   0.46040   0.68513   0.00000  Uiso   1.00
C755   C     0.42070   0.50004   0.75021   0.00000  Uiso   1.00
C756   C     0.37608   0.50005   0.75022   0.00000  Uiso   1.00
C757   C     0.47364   0.35815   0.72302   0.00000  Uiso   1.00
C758   C     0.52636   0.64185   0.77698   0.00000  Uiso   1.00
C759   C     0.52637   0.35812   0.77697   0.00000  Uiso   1.00
C760   C     0.47363   0.64188   0.72303   0.00000  Uiso   1.00
C761   C     0.49921   0.49995   0.66449   0.00000  Uiso   1.00
C762   C     0.50079   0.50005   0.83551   0.00000  Uiso   1.00
C763   C     0.53702   0.51465   0.90717   0.00000  Uiso   1.00
C764   C     0.46298   0.48535   0.59283   0.00000  Uiso   1.00
C765   C     0.50171   0.50021   0.88367   0.00000  Uiso   1.00
C766   C     0.57930   0.49996   0.74979   0.00000  Uiso   1.00
C767   C     0.49829   0.49979   0.61632   0.00000  Uiso   1.00
C768   C     0.46642   0.48580   0.90577   0.00000  Uiso   1.00
C769   C     0.53358   0.51420   0.59423   0.00000  Uiso   1.00
C770   C     0.46502   0.48594   0.95214   0.00000  Uiso   1.00
C771   C     0.53498   0.51406   0.54786   0.00000  Uiso   1.00
C772   C     0.50039   0.50006   0.97654   0.00000  Uiso   1.00
C773   C     0.49961   0.49994   0.52346   0.00000  Uiso   1.00
C774   C     0.53654   0.51431   0.95405   0.00000  Uiso   1.00
C775   C     0.46346   0.48569   0.54595   0.00000  Uiso   1.00
C776   C     0.42912   0.47244   0.97472   0.00000  Uiso   1.00
C777   C     0.42868   0.47230   0.52100   0.00000  Uiso   1.00
C778   C     0.57088   0.52756   0.52528   0.00000  Uiso   1.00
C779   C     0.57131   0.52770   0.97900   0.00000  Uiso   1.00
C780   C     0.35473   0.45749   0.75122   0.00000  Uiso   1.00
C781   C     0.64527   0.54251   0.74878   0.00000  Uiso   1.00
C782   C     0.64548   0.45744   0.75099   0.00000  Uiso   1.00
C783   C     0.35452   0.54255   0.74901   0.00000  Uiso   1.00
C784   C     0.62392   0.49995   0.74978   0.00000  Uiso   1.00
Cu785  Cu    0.50000   0.54689   0.75000   0.00000  Uiso   1.00
Cu786  Cu    0.50000   0.45311   0.75000   0.00000  Uiso   1.00
H787   H     0.44005   0.47501   0.88609   0.00000  Uiso   1.00
H788   H     0.54748   0.62315   0.79860   0.00000  Uiso   1.00
H789   H     0.54749   0.37680   0.79859   0.00000  Uiso   1.00
H790   H     0.45251   0.62320   0.70141   0.00000  Uiso   1.00
H791   H     0.55995   0.52499   0.61391   0.00000  Uiso   1.00
H792   H     0.40055   0.46162   0.53691   0.00000  Uiso   1.00
H793   H     0.59945   0.53838   0.96309   0.00000  Uiso   1.00
H794   H     0.37085   0.42425   0.75213   0.00000  Uiso   1.00
H795   H     0.62915   0.57575   0.74787   0.00000  Uiso   1.00
H796   H     0.62953   0.42419   0.75184   0.00000  Uiso   1.00
H797   H     0.37047   0.57581   0.74816   0.00000  Uiso   1.00
H798   H     0.45252   0.37685   0.70140   0.00000  Uiso   1.00
I799   I     0.59071   0.53508   0.87075   0.00000  Uiso   1.00
I800   I     0.40929   0.46492   0.62924   0.00000  Uiso   1.00
I801   I     0.37340   0.45227   0.94211   0.00000  Uiso   1.00
I802   I     0.62660   0.54773   0.55789   0.00000  Uiso   1.00
N803   N     0.50000   0.61736   0.75000   0.00000  Uiso   1.00
N804   N     0.50000   0.38264   0.75000   0.00000  Uiso   1.00
O805   O     0.43988   0.53958   0.74999   0.00000  Uiso   1.00
O806   O     0.56012   0.46042   0.75000   0.00000  Uiso   1.00
O807   O     0.56012   0.53958   0.75000   0.00000  Uiso   1.00
O808   O     0.43988   0.46042   0.74999   0.00000  Uiso   1.00
O809   O     0.49999   0.53960   0.68513   0.00000  Uiso   1.00
O810   O     0.50001   0.46040   0.81487   0.00000  Uiso   1.00
O811   O     0.50001   0.53960   0.81487   0.00000  Uiso   1.00
O812   O     0.49999   0.46040   0.68513   0.00000  Uiso   1.00
C813   C     0.75403   0.50004   0.75021   0.00000  Uiso   1.00
C814   C     0.70941   0.50005   0.75022   0.00000  Uiso   1.00
C815   C     0.80697   0.35815   0.72302   0.00000  Uiso   1.00
C816   C     0.85970   0.64185   0.77698   0.00000  Uiso   1.00
C817   C     0.85970   0.35812   0.77697   0.00000  Uiso   1.00
C818   C     0.80697   0.64188   0.72303   0.00000  Uiso   1.00
C819   C     0.83255   0.49995   0.66449   0.00000  Uiso   1.00
C820   C     0.83412   0.50005   0.83551   0.00000  Uiso   1.00
C821   C     0.87035   0.51465   0.90717   0.00000  Uiso   1.00
C822   C     0.79632   0.48535   0.59283   0.00000  Uiso   1.00
C823   C     0.83504   0.50021   0.88367   0.00000  Uiso   1.00
C824   C     0.91264   0.49996   0.74979   0.00000  Uiso   1.00
C825   C     0.83163   0.49979   0.61632   0.00000  Uiso   1.00
C826   C     0.79975   0.48580   0.90577   0.00000  Uiso   1.00
C827   C     0.86691   0.51420   0.59423   0.00000  Uiso   1.00
C828   C     0.79835   0.48594   0.95214   0.00000  Uiso   1.00
C829   C     0.86831   0.51406   0.54786   0.00000  Uiso   1.00
C830   C     0.83372   0.50006   0.97654   0.00000  Uiso   1.00
C831   C     0.83294   0.49994   0.52346   0.00000  Uiso   1.00
C832   C     0.86987   0.51431   0.95405   0.00000  Uiso   1.00
C833   C     0.79680   0.48569   0.54595   0.00000  Uiso   1.00
C834   C     0.76245   0.47244   0.97472   0.00000  Uiso   1.00
C835   C     0.76202   0.47230   0.52100   0.00000  Uiso   1.00
C836   C     0.90422   0.52756   0.52528   0.00000  Uiso   1.00
C837   C     0.90465   0.52770   0.97900   0.00000  Uiso   1.00
C838   C     0.68807   0.45749   0.75122   0.00000  Uiso   1.00
C839   C     0.97860   0.54251   0.74878   0.00000  Uiso   1.00
C840   C     0.97881   0.45744   0.75099   0.00000  Uiso   1.00
C841   C     0.68786   0.54255   0.74901   0.00000  Uiso   1.00
C842   C     0.95725   0.49995   0.74978   0.00000  Uiso   1.00
Cu843  Cu    0.83333   0.54689   0.75000   0.00000  Uiso   1.00
Cu844  Cu    0.83333   0.45311   0.75000   0.00000  Uiso   1.00
H845   H     0.77338   0.47501   0.88609   0.00000  Uiso   1.00
H846   H     0.88081   0.62315   0.79860   0.00000  Uiso   1.00
H847   H     0.88082   0.37680   0.79859   0.00000  Uiso   1.00
H848   H     0.78585   0.62320   0.70141   0.00000  Uiso   1.00
H849   H     0.89328   0.52499   0.61391   0.00000  Uiso   1.00
H850   H     0.73388   0.46162   0.53691   0.00000  Uiso   1.00
H851   H     0.93279   0.53838   0.96309   0.00000  Uiso   1.00
H852   H     0.70418   0.42425   0.75213   0.00000  Uiso   1.00
H853   H     0.96248   0.57575   0.74787   0.00000  Uiso   1.00
H854   H     0.96286   0.42419   0.75184   0.00000  Uiso   1.00
H855   H     0.70380   0.57581   0.74816   0.00000  Uiso   1.00
H856   H     0.78585   0.37685   0.70140   0.00000  Uiso   1.00
I857   I     0.92404   0.53508   0.87075   0.00000  Uiso   1.00
I858   I     0.74262   0.46492   0.62924   0.00000  Uiso   1.00
I859   I     0.70673   0.45227   0.94211   0.00000  Uiso   1.00
I860   I     0.95993   0.54773   0.55789   0.00000  Uiso   1.00
N861   N     0.83333   0.61736   0.75000   0.00000  Uiso   1.00
N862   N     0.83333   0.38264   0.75000   0.00000  Uiso   1.00
O863   O     0.77321   0.53958   0.74999   0.00000  Uiso   1.00
O864   O     0.89345   0.46042   0.75000   0.00000  Uiso   1.00
O865   O     0.89345   0.53958   0.75000   0.00000  Uiso   1.00
O866   O     0.77321   0.46042   0.74999   0.00000  Uiso   1.00
O867   O     0.83332   0.53960   0.68513   0.00000  Uiso   1.00
O868   O     0.83334   0.46040   0.81487   0.00000  Uiso   1.00
O869   O     0.83334   0.53960   0.81487   0.00000  Uiso   1.00
O870   O     0.83332   0.46040   0.68513   0.00000  Uiso   1.00
C871   C     0.08736   0.83337   0.75021   0.00000  Uiso   1.00
C872   C     0.04275   0.83338   0.75022   0.00000  Uiso   1.00
C873   C     0.14030   0.69149   0.72302   0.00000  Uiso   1.00
C874   C     0.19303   0.97518   0.77698   0.00000  Uiso   1.00
C875   C     0.19303   0.69145   0.77697   0.00000  Uiso   1.00
C876   C     0.14030   0.97521   0.72303   0.00000  Uiso   1.00
C877   C     0.16588   0.83328   0.66449   0.00000  Uiso   1.00
C878   C     0.16745   0.83339   0.83551   0.00000  Uiso   1.00
C879   C     0.20368   0.84798   0.90717   0.00000  Uiso   1.00
C880   C     0.12965   0.81868   0.59283   0.00000  Uiso   1.00
C881   C     0.16837   0.83355   0.88367   0.00000  Uiso   1.00
C882   C     0.24597   0.83330   0.74979   0.00000  Uiso   1.00
C883   C     0.16496   0.83312   0.61632   0.00000  Uiso   1.00
C884   C     0.13309   0.81913   0.90577   0.00000  Uiso   1.00
C885   C     0.20025   0.84753   0.59423   0.00000  Uiso   1.00
C886   C     0.13169   0.81928   0.95214   0.00000  Uiso   1.00
C887   C     0.20165   0.84739   0.54786   0.00000  Uiso   1.00
C888   C     0.16705   0.83339   0.97654   0.00000  Uiso   1.00
C889   C     0.16628   0.83327   0.52346   0.00000  Uiso   1.00
C890   C     0.20320   0.84764   0.95405   0.00000  Uiso   1.00
C891   C     0.13013   0.81902   0.54595   0.00000  Uiso   1.00
C892   C     0.09578   0.80577   0.97472   0.00000  Uiso   1.00
C893   C     0.09535   0.80564   0.52100   0.00000  Uiso   1.00
C894   C     0.23755   0.86090   0.52528   0.00000  Uiso   1.00
C895   C     0.23798   0.86103   0.97900   0.00000  Uiso   1.00
C896   C     0.02140   0.79082   0.75122   0.00000  Uiso   1.00
C897   C     0.31193   0.87584   0.74878   0.00000  Uiso   1.00
C898   C     0.31214   0.79078   0.75099   0.00000  Uiso   1.00
C899   C     0.02119   0.87589   0.74901   0.00000  Uiso   1.00
C900   C     0.29059   0.83329   0.74978   0.00000  Uiso   1.00
Cu901  Cu    0.16667   0.88022   0.75000   0.00000  Uiso   1.00
Cu902  Cu    0.16667   0.78645   0.75000   0.00000  Uiso   1.00
H903   H     0.10672   0.80835   0.88609   0.00000  Uiso   1.00
H904   H     0.21415   0.95648   0.79860   0.00000  Uiso   1.00
H905   H     0.21415   0.71013   0.79859   0.00000  Uiso   1.00
H906   H     0.11918   0.95653   0.70141   0.00000  Uiso   1.00
H907   H     0.22662   0.85832   0.61391   0.00000  Uiso   1.00
H908   H     0.06721   0.79496   0.53691   0.00000  Uiso   1.00
H909   H     0.26612   0.87171   0.96309   0.00000  Uiso   1.00
H910   H     0.03751   0.75758   0.75213   0.00000  Uiso   1.00
H911   H     0.29582   0.90908   0.74787   0.00000  Uiso   1.00
H912   H     0.29620   0.75753   0.75184   0.00000  Uiso   1.00
H913   H     0.03714   0.90914   0.74816   0.00000  Uiso   1.00
H914   H     0.11919   0.71019   0.70140   0.00000  Uiso   1.00
I915   I     0.25738   0.86841   0.87075   0.00000  Uiso   1.00
I916   I     0.07596   0.79825   0.62924   0.00000  Uiso   1.00
I917   I     0.04007   0.78560   0.94211   0.00000  Uiso   1.00
I918   I     0.29327   0.88107   0.55789   0.00000  Uiso   1.00
N919   N     0.16667   0.95069   0.75000   0.00000  Uiso   1.00
N920   N     0.16667   0.71598   0.75000   0.00000  Uiso   1.00
O921   O     0.10655   0.87291   0.74999   0.00000  Uiso   1.00
O922   O     0.22679   0.79375   0.75000   0.00000  Uiso   1.00
O923   O     0.22679   0.87291   0.75000   0.00000  Uiso   1.00
O924   O     0.10655   0.79375   0.74999   0.00000  Uiso   1.00
O925   O     0.16666   0.87293   0.68513   0.00000  Uiso   1.00
O926   O     0.16668   0.79373   0.81487   0.00000  Uiso   1.00
O927   O     0.16668   0.87293   0.81487   0.00000  Uiso   1.00
O928   O     0.16666   0.79373   0.68513   0.00000  Uiso   1.00
C929   C     0.42070   0.83337   0.75021   0.00000  Uiso   1.00
C930   C     0.37608   0.83338   0.75022   0.00000  Uiso   1.00
C931   C     0.47364   0.69149   0.72302   0.00000  Uiso   1.00
C932   C     0.52636   0.97518   0.77698   0.00000  Uiso   1.00
C933   C     0.52637   0.69145   0.77697   0.00000  Uiso   1.00
C934   C     0.47363   0.97521   0.72303   0.00000  Uiso   1.00
C935   C     0.49921   0.83328   0.66449   0.00000  Uiso   1.00
C936   C     0.50079   0.83339   0.83551   0.00000  Uiso   1.00
C937   C     0.53702   0.84798   0.90717   0.00000  Uiso   1.00
C938   C     0.46298   0.81868   0.59283   0.00000  Uiso   1.00
C939   C     0.50171   0.83355   0.88367   0.00000  Uiso   1.00
C940   C     0.57930   0.83330   0.74979   0.00000  Uiso   1.00
C941   C     0.49829   0.83312   0.61632   0.00000  Uiso   1.00
C942   C     0.46642   0.81913   0.90577   0.00000  Uiso   1.00
C943   C     0.53358   0.84753   0.59423   0.00000  Uiso   1.00
C944   C     0.46502   0.81928   0.95214   0.00000  Uiso   1.00
C945   C     0.53498   0.84739   0.54786   0.00000  Uiso   1.00
C946   C     0.50039   0.83339   0.97654   0.00000  Uiso   1.00
C947   C     0.49961   0.83327   0.52346   0.00000  Uiso   1.00
C948   C     0.53654   0.84764   0.95405   0.00000  Uiso   1.00
C949   C     0.46346   0.81902   0.54595   0.00000  Uiso   1.00
C950   C     0.42912   0.80577   0.97472   0.00000  Uiso   1.00
C951   C     0.42868   0.80564   0.52100   0.00000  Uiso   1.00
C952   C     0.57088   0.86090   0.52528   0.00000  Uiso   1.00
C953   C     0.57131   0.86103   0.97900   0.00000  Uiso   1.00
C954   C     0.35473   0.79082   0.75122   0.00000  Uiso   1.00
C955   C     0.64527   0.87584   0.74878   0.00000  Uiso   1.00
C956   C     0.64548   0.79078   0.75099   0.00000  Uiso   1.00
C957   C     0.35452   0.87589   0.74901   0.00000  Uiso   1.00
C958   C     0.62392   0.83329   0.74978   0.00000  Uiso   1.00
Cu959  Cu    0.50000   0.88022   0.75000   0.00000  Uiso   1.00
Cu960  Cu    0.50000   0.78645   0.75000   0.00000  Uiso   1.00
H961   H     0.44005   0.80835   0.88609   0.00000  Uiso   1.00
H962   H     0.54748   0.95648   0.79860   0.00000  Uiso   1.00
H963   H     0.54749   0.71013   0.79859   0.00000  Uiso   1.00
H964   H     0.45251   0.95653   0.70141   0.00000  Uiso   1.00
H965   H     0.55995   0.85832   0.61391   0.00000  Uiso   1.00
H966   H     0.40055   0.79496   0.53691   0.00000  Uiso   1.00
H967   H     0.59945   0.87171   0.96309   0.00000  Uiso   1.00
H968   H     0.37085   0.75758   0.75213   0.00000  Uiso   1.00
H969   H     0.62915   0.90908   0.74787   0.00000  Uiso   1.00
H970   H     0.62953   0.75753   0.75184   0.00000  Uiso   1.00
H971   H     0.37047   0.90914   0.74816   0.00000  Uiso   1.00
H972   H     0.45252   0.71019   0.70140   0.00000  Uiso   1.00
I973   I     0.59071   0.86841   0.87075   0.00000  Uiso   1.00
I974   I     0.40929   0.79825   0.62924   0.00000  Uiso   1.00
I975   I     0.37340   0.78560   0.94211   0.00000  Uiso   1.00
I976   I     0.62660   0.88107   0.55789   0.00000  Uiso   1.00
N977   N     0.50000   0.95069   0.75000   0.00000  Uiso   1.00
N978   N     0.50000   0.71598   0.75000   0.00000  Uiso   1.00
O979   O     0.43988   0.87291   0.74999   0.00000  Uiso   1.00
O980   O     0.56012   0.79375   0.75000   0.00000  Uiso   1.00
O981   O     0.56012   0.87291   0.75000   0.00000  Uiso   1.00
O982   O     0.43988   0.79375   0.74999   0.00000  Uiso   1.00
O983   O     0.49999   0.87293   0.68513   0.00000  Uiso   1.00
O984   O     0.50001   0.79373   0.81487   0.00000  Uiso   1.00
O985   O     0.50001   0.87293   0.81487   0.00000  Uiso   1.00
O986   O     0.49999   0.79373   0.68513   0.00000  Uiso   1.00
C987   C     0.75403   0.83337   0.75021   0.00000  Uiso   1.00
C988   C     0.70941   0.83338   0.75022   0.00000  Uiso   1.00
C989   C     0.80697   0.69149   0.72302   0.00000  Uiso   1.00
C990   C     0.85970   0.97518   0.77698   0.00000  Uiso   1.00
C991   C     0.85970   0.69145   0.77697   0.00000  Uiso   1.00
C992   C     0.80697   0.97521   0.72303   0.00000  Uiso   1.00
C993   C     0.83255   0.83328   0.66449   0.00000  Uiso   1.00
C994   C     0.83412   0.83339   0.83551   0.00000  Uiso   1.00
C995   C     0.87035   0.84798   0.90717   0.00000  Uiso   1.00
C996   C     0.79632   0.81868   0.59283   0.00000  Uiso   1.00
C997   C     0.83504   0.83355   0.88367   0.00000  Uiso   1.00
C998   C     0.91264   0.83330   0.74979   0.00000  Uiso   1.00
C999   C     0.83163   0.83312   0.61632   0.00000  Uiso   1.00
C1000  C     0.79975   0.81913   0.90577   0.00000  Uiso   1.00
C1001  C     0.86691   0.84753   0.59423   0.00000  Uiso   1.00
C1002  C     0.79835   0.81928   0.95214   0.00000  Uiso   1.00
C1003  C     0.86831   0.84739   0.54786   0.00000  Uiso   1.00
C1004  C     0.83372   0.83339   0.97654   0.00000  Uiso   1.00
C1005  C     0.83294   0.83327   0.52346   0.00000  Uiso   1.00
C1006  C     0.86987   0.84764   0.95405   0.00000  Uiso   1.00
C1007  C     0.79680   0.81902   0.54595   0.00000  Uiso   1.00
C1008  C     0.76245   0.80577   0.97472   0.00000  Uiso   1.00
C1009  C     0.76202   0.80564   0.52100   0.00000  Uiso   1.00
C1010  C     0.90422   0.86090   0.52528   0.00000  Uiso   1.00
C1011  C     0.90465   0.86103   0.97900   0.00000  Uiso   1.00
C1012  C     0.68807   0.79082   0.75122   0.00000  Uiso   1.00
C1013  C     0.97860   0.87584   0.74878   0.00000  Uiso   1.00
C1014  C     0.97881   0.79078   0.75099   0.00000  Uiso   1.00
C1015  C     0.68786   0.87589   0.74901   0.00000  Uiso   1.00
C1016  C     0.95725   0.83329   0.74978   0.00000  Uiso   1.00
Cu1017 Cu    0.83333   0.88022   0.75000   0.00000  Uiso   1.00
Cu1018 Cu    0.83333   0.78645   0.75000   0.00000  Uiso   1.00
H1019  H     0.77338   0.80835   0.88609   0.00000  Uiso   1.00
H1020  H     0.88081   0.95648   0.79860   0.00000  Uiso   1.00
H1021  H     0.88082   0.71013   0.79859   0.00000  Uiso   1.00
H1022  H     0.78585   0.95653   0.70141   0.00000  Uiso   1.00
H1023  H     0.89328   0.85832   0.61391   0.00000  Uiso   1.00
H1024  H     0.73388   0.79496   0.53691   0.00000  Uiso   1.00
H1025  H     0.93279   0.87171   0.96309   0.00000  Uiso   1.00
H1026  H     0.70418   0.75758   0.75213   0.00000  Uiso   1.00
H1027  H     0.96248   0.90908   0.74787   0.00000  Uiso   1.00
H1028  H     0.96286   0.75753   0.75184   0.00000  Uiso   1.00
H1029  H     0.70380   0.90914   0.74816   0.00000  Uiso   1.00
H1030  H     0.78585   0.71019   0.70140   0.00000  Uiso   1.00
I1031  I     0.92404   0.86841   0.87075   0.00000  Uiso   1.00
I1032  I     0.74262   0.79825   0.62924   0.00000  Uiso   1.00
I1033  I     0.70673   0.78560   0.94211   0.00000  Uiso   1.00
I1034  I     0.95993   0.88107   0.55789   0.00000  Uiso   1.00
N1035  N     0.83333   0.95069   0.75000   0.00000  Uiso   1.00
N1036  N     0.83333   0.71598   0.75000   0.00000  Uiso   1.00
O1037  O     0.77321   0.87291   0.74999   0.00000  Uiso   1.00
O1038  O     0.89345   0.79375   0.75000   0.00000  Uiso   1.00
O1039  O     0.89345   0.87291   0.75000   0.00000  Uiso   1.00
O1040  O     0.77321   0.79375   0.74999   0.00000  Uiso   1.00
O1041  O     0.83332   0.87293   0.68513   0.00000  Uiso   1.00
O1042  O     0.83334   0.79373   0.81487   0.00000  Uiso   1.00
O1043  O     0.83334   0.87293   0.81487   0.00000  Uiso   1.00
O1044  O     0.83332   0.79373   0.68513   0.00000  Uiso   1.00
loop_
_geom_bond_atom_site_label_1
_geom_bond_atom_site_label_2
_geom_bond_distance
_geom_bond_site_symmetry_2
_ccdc_geom_bond_type
C1     O54     1.290   .     A
C1     O51     1.291   .     A
C1     C2      1.448   .     S
C2     C26     1.401   .     A
C2     C29     1.400   .     A
C3     N50     1.367   .     A
C3     H44     1.082   .     S
C3     C354    1.417   1_545 S
C4     N49     1.367   .     A
C4     H34     1.082   .     S
C4     C179    1.417   .     S
C5     H35     1.082   .     S
C5     N50     1.367   .     A
C5     C352    1.417   1_545 S
C6     H36     1.082   .     S
C6     N49     1.367   .     A
C6     C177    1.417   .     S
C7     O58     1.290   .     A
C7     O55     1.290   .     A
C7     C13     1.447   .     S
C8     O57     1.290   .     A
C8     O56     1.290   .     A
C8     C11     1.447   .     S
C9     I45     2.148   .     S
C9     C11     1.404   .     A
C9     C20     1.409   .     A
C10    I46     2.148   .     S
C10    C21     1.409   .     A
C10    C13     1.404   .     A
C11    C14     1.392   .     A
C12    O52     1.291   .     A
C12    C30     1.448   .     S
C12    O53     1.290   .     A
C13    C15     1.392   .     A
C14    H33     1.082   .     S
C14    C16     1.394   .     A
C15    H37     1.082   .     S
C15    C17     1.394   .     A
C16    C18     1.416   .     A
C16    C22     1.408   .     A
C17    C24     1.408   .     A
C17    C19     1.416   .     A
C18    C20     1.419   .     A
C18    C541    1.411   .     S
C19    C21     1.419   .     A
C19    C540    1.411   1_554 S
C20    C25     1.404   .     A
C21    C23     1.404   .     A
C22    I47     2.131   .     S
C22    C545    1.391   .     S
C23    H38     1.079   .     S
C23    C544    1.391   1_554 S
C24    I48     2.131   .     S
C24    C547    1.391   1_554 S
C25    H39     1.079   .     S
C25    C546    1.391   .     S
C26    H40     1.083   .     S
C26    C144    1.383   1_455 S
C27    H41     1.083   .     S
C27    C30     1.401   .     A
C27    C87     1.383   .     S
C28    C30     1.400   .     A
C28    H42     1.083   .     S
C28    C84     1.383   .     S
C29    H43     1.083   .     S
C29    C143    1.383   1_455 S
Cu31   Cu32    2.679   .     S
Cu31   O57     1.961   .     S
Cu31   N49     2.013   .     S
Cu31   O53     1.962   .     S
Cu31   O55     1.960   .     S
Cu31   O51     1.963   .     S
Cu32   O58     1.961   .     S
Cu32   N50     2.013   .     S
Cu32   O54     1.962   .     S
Cu32   O52     1.963   .     S
Cu32   O56     1.960   .     S
C59    O112    1.290   .     A
C59    O109    1.291   .     A
C59    C60     1.448   .     S
C60    C84     1.401   .     A
C60    C87     1.400   .     A
C61    N108    1.367   .     A
C61    H102    1.082   .     S
C61    C412    1.417   1_545 S
C62    N107    1.367   .     A
C62    H92     1.082   .     S
C62    C237    1.417   .     S
C63    H93     1.082   .     S
C63    N108    1.367   .     A
C63    C410    1.417   1_545 S
C64    H94     1.082   .     S
C64    N107    1.367   .     A
C64    C235    1.417   .     S
C65    O116    1.290   .     A
C65    O113    1.290   .     A
C65    C71     1.447   .     S
C66    O115    1.290   .     A
C66    O114    1.290   .     A
C66    C69     1.447   .     S
C67    I103    2.148   .     S
C67    C69     1.404   .     A
C67    C78     1.409   .     A
C68    I104    2.148   .     S
C68    C79     1.409   .     A
C68    C71     1.404   .     A
C69    C72     1.392   .     A
C70    O110    1.291   .     A
C70    C88     1.448   .     S
C70    O111    1.290   .     A
C71    C73     1.392   .     A
C72    H91     1.082   .     S
C72    C74     1.394   .     A
C73    H95     1.082   .     S
C73    C75     1.394   .     A
C74    C76     1.416   .     A
C74    C80     1.408   .     A
C75    C82     1.408   .     A
C75    C77     1.416   .     A
C76    C78     1.419   .     A
C76    C599    1.411   .     S
C77    C79     1.419   .     A
C77    C598    1.411   1_554 S
C78    C83     1.404   .     A
C79    C81     1.404   .     A
C80    I105    2.131   .     S
C80    C603    1.391   .     S
C81    H96     1.079   .     S
C81    C602    1.391   1_554 S
C82    I106    2.131   .     S
C82    C605    1.391   1_554 S
C83    H97     1.079   .     S
C83    C604    1.391   .     S
C84    H98     1.083   .     S
C85    H99     1.083   .     S
C85    C88     1.401   .     A
C85    C145    1.383   .     S
C86    C88     1.400   .     A
C86    H100    1.083   .     S
C86    C142    1.383   .     S
C87    H101    1.083   .     S
Cu89   Cu90    2.679   .     S
Cu89   O115    1.961   .     S
Cu89   N107    2.013   .     S
Cu89   O111    1.962   .     S
Cu89   O113    1.960   .     S
Cu89   O109    1.963   .     S
Cu90   O116    1.961   .     S
Cu90   N108    2.013   .     S
Cu90   O112    1.962   .     S
Cu90   O110    1.963   .     S
Cu90   O114    1.960   .     S
C117   O170    1.290   .     A
C117   O167    1.291   .     A
C117   C118    1.448   .     S
C118   C142    1.401   .     A
C118   C145    1.400   .     A
C119   N166    1.367   .     A
C119   H160    1.082   .     S
C119   C470    1.417   1_545 S
C120   N165    1.367   .     A
C120   H150    1.082   .     S
C120   C295    1.417   .     S
C121   H151    1.082   .     S
C121   N166    1.367   .     A
C121   C468    1.417   1_545 S
C122   H152    1.082   .     S
C122   N165    1.367   .     A
C122   C293    1.417   .     S
C123   O174    1.290   .     A
C123   O171    1.290   .     A
C123   C129    1.447   .     S
C124   O173    1.290   .     A
C124   O172    1.290   .     A
C124   C127    1.447   .     S
C125   I161    2.148   .     S
C125   C127    1.404   .     A
C125   C136    1.409   .     A
C126   I162    2.148   .     S
C126   C137    1.409   .     A
C126   C129    1.404   .     A
C127   C130    1.392   .     A
C128   O168    1.291   .     A
C128   C146    1.448   .     S
C128   O169    1.290   .     A
C129   C131    1.392   .     A
C130   H149    1.082   .     S
C130   C132    1.394   .     A
C131   H153    1.082   .     S
C131   C133    1.394   .     A
C132   C134    1.416   .     A
C132   C138    1.408   .     A
C133   C140    1.408   .     A
C133   C135    1.416   .     A
C134   C136    1.419   .     A
C134   C657    1.411   .     S
C135   C137    1.419   .     A
C135   C656    1.411   1_554 S
C136   C141    1.404   .     A
C137   C139    1.404   .     A
C138   I163    2.131   .     S
C138   C661    1.391   .     S
C139   H154    1.079   .     S
C139   C660    1.391   1_554 S
C140   I164    2.131   .     S
C140   C663    1.391   1_554 S
C141   H155    1.079   .     S
C141   C662    1.391   .     S
C142   H156    1.083   .     S
C143   H157    1.083   .     S
C143   C146    1.401   .     A
C143   C29     1.383   1_655 S
C144   C146    1.400   .     A
C144   H158    1.083   .     S
C144   C26     1.383   1_655 S
C145   H159    1.083   .     S
Cu147  Cu148   2.679   .     S
Cu147  O173    1.961   .     S
Cu147  N165    2.013   .     S
Cu147  O169    1.962   .     S
Cu147  O171    1.960   .     S
Cu147  O167    1.963   .     S
Cu148  O174    1.961   .     S
Cu148  N166    2.013   .     S
Cu148  O170    1.962   .     S
Cu148  O168    1.963   .     S
Cu148  O172    1.960   .     S
C175   O228    1.290   .     A
C175   O225    1.291   .     A
C175   C176    1.448   .     S
C176   C200    1.401   .     A
C176   C203    1.400   .     A
C177   N224    1.367   .     A
C177   H218    1.082   .     S
C178   N223    1.367   .     A
C178   H208    1.082   .     S
C178   C353    1.417   .     S
C179   H209    1.082   .     S
C179   N224    1.367   .     A
C180   H210    1.082   .     S
C180   N223    1.367   .     A
C180   C351    1.417   .     S
C181   O232    1.290   .     A
C181   O229    1.290   .     A
C181   C187    1.447   .     S
C182   O231    1.290   .     A
C182   O230    1.290   .     A
C182   C185    1.447   .     S
C183   I219    2.148   .     S
C183   C185    1.404   .     A
C183   C194    1.409   .     A
C184   I220    2.148   .     S
C184   C195    1.409   .     A
C184   C187    1.404   .     A
C185   C188    1.392   .     A
C186   O226    1.291   .     A
C186   C204    1.448   .     S
C186   O227    1.290   .     A
C187   C189    1.392   .     A
C188   H207    1.082   .     S
C188   C190    1.394   .     A
C189   H211    1.082   .     S
C189   C191    1.394   .     A
C190   C192    1.416   .     A
C190   C196    1.408   .     A
C191   C198    1.408   .     A
C191   C193    1.416   .     A
C192   C194    1.419   .     A
C192   C715    1.411   .     S
C193   C195    1.419   .     A
C193   C714    1.411   1_554 S
C194   C199    1.404   .     A
C195   C197    1.404   .     A
C196   I221    2.131   .     S
C196   C719    1.391   .     S
C197   H212    1.079   .     S
C197   C718    1.391   1_554 S
C198   I222    2.131   .     S
C198   C721    1.391   1_554 S
C199   H213    1.079   .     S
C199   C720    1.391   .     S
C200   H214    1.083   .     S
C200   C318    1.383   1_455 S
C201   H215    1.083   .     S
C201   C204    1.401   .     A
C201   C261    1.383   .     S
C202   C204    1.400   .     A
C202   H216    1.083   .     S
C202   C258    1.383   .     S
C203   H217    1.083   .     S
C203   C317    1.383   1_455 S
Cu205  Cu206   2.679   .     S
Cu205  O231    1.961   .     S
Cu205  N223    2.013   .     S
Cu205  O227    1.962   .     S
Cu205  O229    1.960   .     S
Cu205  O225    1.963   .     S
Cu206  O232    1.961   .     S
Cu206  N224    2.013   .     S
Cu206  O228    1.962   .     S
Cu206  O226    1.963   .     S
Cu206  O230    1.960   .     S
C233   O286    1.290   .     A
C233   O283    1.291   .     A
C233   C234    1.448   .     S
C234   C258    1.401   .     A
C234   C261    1.400   .     A
C235   N282    1.367   .     A
C235   H276    1.082   .     S
C236   N281    1.367   .     A
C236   H266    1.082   .     S
C236   C411    1.417   .     S
C237   H267    1.082   .     S
C237   N282    1.367   .     A
C238   H268    1.082   .     S
C238   N281    1.367   .     A
C238   C409    1.417   .     S
C239   O290    1.290   .     A
C239   O287    1.290   .     A
C239   C245    1.447   .     S
C240   O289    1.290   .     A
C240   O288    1.290   .     A
C240   C243    1.447   .     S
C241   I277    2.148   .     S
C241   C243    1.404   .     A
C241   C252    1.409   .     A
C242   I278    2.148   .     S
C242   C253    1.409   .     A
C242   C245    1.404   .     A
C243   C246    1.392   .     A
C244   O284    1.291   .     A
C244   C262    1.448   .     S
C244   O285    1.290   .     A
C245   C247    1.392   .     A
C246   H265    1.082   .     S
C246   C248    1.394   .     A
C247   H269    1.082   .     S
C247   C249    1.394   .     A
C248   C250    1.416   .     A
C248   C254    1.408   .     A
C249   C256    1.408   .     A
C249   C251    1.416   .     A
C250   C252    1.419   .     A
C250   C773    1.411   .     S
C251   C253    1.419   .     A
C251   C772    1.411   1_554 S
C252   C257    1.404   .     A
C253   C255    1.404   .     A
C254   I279    2.131   .     S
C254   C777    1.391   .     S
C255   H270    1.079   .     S
C255   C776    1.391   1_554 S
C256   I280    2.131   .     S
C256   C779    1.391   1_554 S
C257   H271    1.079   .     S
C257   C778    1.391   .     S
C258   H272    1.083   .     S
C259   H273    1.083   .     S
C259   C262    1.401   .     A
C259   C319    1.383   .     S
C260   C262    1.400   .     A
C260   H274    1.083   .     S
C260   C316    1.383   .     S
C261   H275    1.083   .     S
Cu263  Cu264   2.679   .     S
Cu263  O289    1.961   .     S
Cu263  N281    2.013   .     S
Cu263  O285    1.962   .     S
Cu263  O287    1.960   .     S
Cu263  O283    1.963   .     S
Cu264  O290    1.961   .     S
Cu264  N282    2.013   .     S
Cu264  O286    1.962   .     S
Cu264  O284    1.963   .     S
Cu264  O288    1.960   .     S
C291   O344    1.290   .     A
C291   O341    1.291   .     A
C291   C292    1.448   .     S
C292   C316    1.401   .     A
C292   C319    1.400   .     A
C293   N340    1.367   .     A
C293   H334    1.082   .     S
C294   N339    1.367   .     A
C294   H324    1.082   .     S
C294   C469    1.417   .     S
C295   H325    1.082   .     S
C295   N340    1.367   .     A
C296   H326    1.082   .     S
C296   N339    1.367   .     A
C296   C467    1.417   .     S
C297   O348    1.290   .     A
C297   O345    1.290   .     A
C297   C303    1.447   .     S
C298   O347    1.290   .     A
C298   O346    1.290   .     A
C298   C301    1.447   .     S
C299   I335    2.148   .     S
C299   C301    1.404   .     A
C299   C310    1.409   .     A
C300   I336    2.148   .     S
C300   C311    1.409   .     A
C300   C303    1.404   .     A
C301   C304    1.392   .     A
C302   O342    1.291   .     A
C302   C320    1.448   .     S
C302   O343    1.290   .     A
C303   C305    1.392   .     A
C304   H323    1.082   .     S
C304   C306    1.394   .     A
C305   H327    1.082   .     S
C305   C307    1.394   .     A
C306   C308    1.416   .     A
C306   C312    1.408   .     A
C307   C314    1.408   .     A
C307   C309    1.416   .     A
C308   C310    1.419   .     A
C308   C831    1.411   .     S
C309   C311    1.419   .     A
C309   C830    1.411   1_554 S
C310   C315    1.404   .     A
C311   C313    1.404   .     A
C312   I337    2.131   .     S
C312   C835    1.391   .     S
C313   H328    1.079   .     S
C313   C834    1.391   1_554 S
C314   I338    2.131   .     S
C314   C837    1.391   1_554 S
C315   H329    1.079   .     S
C315   C836    1.391   .     S
C316   H330    1.083   .     S
C317   H331    1.083   .     S
C317   C320    1.401   .     A
C317   C203    1.383   1_655 S
C318   C320    1.400   .     A
C318   H332    1.083   .     S
C318   C200    1.383   1_655 S
C319   H333    1.083   .     S
Cu321  Cu322   2.679   .     S
Cu321  O347    1.961   .     S
Cu321  N339    2.013   .     S
Cu321  O343    1.962   .     S
Cu321  O345    1.960   .     S
Cu321  O341    1.963   .     S
Cu322  O348    1.961   .     S
Cu322  N340    2.013   .     S
Cu322  O344    1.962   .     S
Cu322  O342    1.963   .     S
Cu322  O346    1.960   .     S
C349   O402    1.290   .     A
C349   O399    1.291   .     A
C349   C350    1.448   .     S
C350   C374    1.401   .     A
C350   C377    1.400   .     A
C351   N398    1.367   .     A
C351   H392    1.082   .     S
C352   N397    1.367   .     A
C352   H382    1.082   .     S
C352   C5      1.417   1_565 S
C353   H383    1.082   .     S
C353   N398    1.367   .     A
C354   H384    1.082   .     S
C354   N397    1.367   .     A
C354   C3      1.417   1_565 S
C355   O406    1.290   .     A
C355   O403    1.290   .     A
C355   C361    1.447   .     S
C356   O405    1.290   .     A
C356   O404    1.290   .     A
C356   C359    1.447   .     S
C357   I393    2.148   .     S
C357   C359    1.404   .     A
C357   C368    1.409   .     A
C358   I394    2.148   .     S
C358   C369    1.409   .     A
C358   C361    1.404   .     A
C359   C362    1.392   .     A
C360   O400    1.291   .     A
C360   C378    1.448   .     S
C360   O401    1.290   .     A
C361   C363    1.392   .     A
C362   H381    1.082   .     S
C362   C364    1.394   .     A
C363   H385    1.082   .     S
C363   C365    1.394   .     A
C364   C366    1.416   .     A
C364   C370    1.408   .     A
C365   C372    1.408   .     A
C365   C367    1.416   .     A
C366   C368    1.419   .     A
C366   C889    1.411   .     S
C367   C369    1.419   .     A
C367   C888    1.411   1_554 S
C368   C373    1.404   .     A
C369   C371    1.404   .     A
C370   I395    2.131   .     S
C370   C893    1.391   .     S
C371   H386    1.079   .     S
C371   C892    1.391   1_554 S
C372   I396    2.131   .     S
C372   C895    1.391   1_554 S
C373   H387    1.079   .     S
C373   C894    1.391   .     S
C374   H388    1.083   .     S
C374   C492    1.383   1_455 S
C375   H389    1.083   .     S
C375   C378    1.401   .     A
C375   C435    1.383   .     S
C376   C378    1.400   .     A
C376   H390    1.083   .     S
C376   C432    1.383   .     S
C377   H391    1.083   .     S
C377   C491    1.383   1_455 S
Cu379  Cu380   2.679   .     S
Cu379  O405    1.961   .     S
Cu379  N397    2.013   .     S
Cu379  O401    1.962   .     S
Cu379  O403    1.960   .     S
Cu379  O399    1.963   .     S
Cu380  O406    1.961   .     S
Cu380  N398    2.013   .     S
Cu380  O402    1.962   .     S
Cu380  O400    1.963   .     S
Cu380  O404    1.960   .     S
C407   O460    1.290   .     A
C407   O457    1.291   .     A
C407   C408    1.448   .     S
C408   C432    1.401   .     A
C408   C435    1.400   .     A
C409   N456    1.367   .     A
C409   H450    1.082   .     S
C410   N455    1.367   .     A
C410   H440    1.082   .     S
C410   C63     1.417   1_565 S
C411   H441    1.082   .     S
C411   N456    1.367   .     A
C412   H442    1.082   .     S
C412   N455    1.367   .     A
C412   C61     1.417   1_565 S
C413   O464    1.290   .     A
C413   O461    1.290   .     A
C413   C419    1.447   .     S
C414   O463    1.290   .     A
C414   O462    1.290   .     A
C414   C417    1.447   .     S
C415   I451    2.148   .     S
C415   C417    1.404   .     A
C415   C426    1.409   .     A
C416   I452    2.148   .     S
C416   C427    1.409   .     A
C416   C419    1.404   .     A
C417   C420    1.392   .     A
C418   O458    1.291   .     A
C418   C436    1.448   .     S
C418   O459    1.290   .     A
C419   C421    1.392   .     A
C420   H439    1.082   .     S
C420   C422    1.394   .     A
C421   H443    1.082   .     S
C421   C423    1.394   .     A
C422   C424    1.416   .     A
C422   C428    1.408   .     A
C423   C430    1.408   .     A
C423   C425    1.416   .     A
C424   C426    1.419   .     A
C424   C947    1.411   .     S
C425   C427    1.419   .     A
C425   C946    1.411   1_554 S
C426   C431    1.404   .     A
C427   C429    1.404   .     A
C428   I453    2.131   .     S
C428   C951    1.391   .     S
C429   H444    1.079   .     S
C429   C950    1.391   1_554 S
C430   I454    2.131   .     S
C430   C953    1.391   1_554 S
C431   H445    1.079   .     S
C431   C952    1.391   .     S
C432   H446    1.083   .     S
C433   H447    1.083   .     S
C433   C436    1.401   .     A
C433   C493    1.383   .     S
C434   C436    1.400   .     A
C434   H448    1.083   .     S
C434   C490    1.383   .     S
C435   H449    1.083   .     S
Cu437  Cu438   2.679   .     S
Cu437  O463    1.961   .     S
Cu437  N455    2.013   .     S
Cu437  O459    1.962   .     S
Cu437  O461    1.960   .     S
Cu437  O457    1.963   .     S
Cu438  O464    1.961   .     S
Cu438  N456    2.013   .     S
Cu438  O460    1.962   .     S
Cu438  O458    1.963   .     S
Cu438  O462    1.960   .     S
C465   O518    1.290   .     A
C465   O515    1.291   .     A
C465   C466    1.448   .     S
C466   C490    1.401   .     A
C466   C493    1.400   .     A
C467   N514    1.367   .     A
C467   H508    1.082   .     S
C468   N513    1.367   .     A
C468   H498    1.082   .     S
C468   C121    1.417   1_565 S
C469   H499    1.082   .     S
C469   N514    1.367   .     A
C470   H500    1.082   .     S
C470   N513    1.367   .     A
C470   C119    1.417   1_565 S
C471   O522    1.290   .     A
C471   O519    1.290   .     A
C471   C477    1.447   .     S
C472   O521    1.290   .     A
C472   O520    1.290   .     A
C472   C475    1.447   .     S
C473   I509    2.148   .     S
C473   C475    1.404   .     A
C473   C484    1.409   .     A
C474   I510    2.148   .     S
C474   C485    1.409   .     A
C474   C477    1.404   .     A
C475   C478    1.392   .     A
C476   O516    1.291   .     A
C476   C494    1.448   .     S
C476   O517    1.290   .     A
C477   C479    1.392   .     A
C478   H497    1.082   .     S
C478   C480    1.394   .     A
C479   H501    1.082   .     S
C479   C481    1.394   .     A
C480   C482    1.416   .     A
C480   C486    1.408   .     A
C481   C488    1.408   .     A
C481   C483    1.416   .     A
C482   C484    1.419   .     A
C482   C1005   1.411   .     S
C483   C485    1.419   .     A
C483   C1004   1.411   1_554 S
C484   C489    1.404   .     A
C485   C487    1.404   .     A
C486   I511    2.131   .     S
C486   C1009   1.391   .     S
C487   H502    1.079   .     S
C487   C1008   1.391   1_554 S
C488   I512    2.131   .     S
C488   C1011   1.391   1_554 S
C489   H503    1.079   .     S
C489   C1010   1.391   .     S
C490   H504    1.083   .     S
C491   H505    1.083   .     S
C491   C494    1.401   .     A
C491   C377    1.383   1_655 S
C492   C494    1.400   .     A
C492   H506    1.083   .     S
C492   C374    1.383   1_655 S
C493   H507    1.083   .     S
Cu495  Cu496   2.679   .     S
Cu495  O521    1.961   .     S
Cu495  N513    2.013   .     S
Cu495  O517    1.962   .     S
Cu495  O519    1.960   .     S
Cu495  O515    1.963   .     S
Cu496  O522    1.961   .     S
Cu496  N514    2.013   .     S
Cu496  O518    1.962   .     S
Cu496  O516    1.963   .     S
Cu496  O520    1.960   .     S
C523   O576    1.290   .     A
C523   O573    1.291   .     A
C523   C524    1.448   .     S
C524   C548    1.401   .     A
C524   C551    1.400   .     A
C525   N572    1.367   .     A
C525   H566    1.082   .     S
C525   C876    1.417   1_545 S
C526   N571    1.367   .     A
C526   H556    1.082   .     S
C526   C701    1.417   .     S
C527   H557    1.082   .     S
C527   N572    1.367   .     A
C527   C874    1.417   1_545 S
C528   H558    1.082   .     S
C528   N571    1.367   .     A
C528   C699    1.417   .     S
C529   O580    1.290   .     A
C529   O577    1.290   .     A
C529   C535    1.447   .     S
C530   O579    1.290   .     A
C530   O578    1.290   .     A
C530   C533    1.447   .     S
C531   I567    2.148   .     S
C531   C533    1.404   .     A
C531   C542    1.409   .     A
C532   I568    2.148   .     S
C532   C543    1.409   .     A
C532   C535    1.404   .     A
C533   C536    1.392   .     A
C534   O574    1.291   .     A
C534   C552    1.448   .     S
C534   O575    1.290   .     A
C535   C537    1.392   .     A
C536   H555    1.082   .     S
C536   C538    1.394   .     A
C537   H559    1.082   .     S
C537   C539    1.394   .     A
C538   C540    1.416   .     A
C538   C544    1.408   .     A
C539   C546    1.408   .     A
C539   C541    1.416   .     A
C540   C542    1.419   .     A
C540   C19     1.411   1_556 S
C541   C543    1.419   .     A
C542   C547    1.404   .     A
C543   C545    1.404   .     A
C544   I569    2.131   .     S
C544   C23     1.391   1_556 S
C545   H560    1.079   .     S
C546   I570    2.131   .     S
C547   H561    1.079   .     S
C547   C24     1.391   1_556 S
C548   H562    1.083   .     S
C548   C666    1.383   1_455 S
C549   H563    1.083   .     S
C549   C552    1.401   .     A
C549   C609    1.383   .     S
C550   C552    1.400   .     A
C550   H564    1.083   .     S
C550   C606    1.383   .     S
C551   H565    1.083   .     S
C551   C665    1.383   1_455 S
Cu553  Cu554   2.679   .     S
Cu553  O579    1.961   .     S
Cu553  N571    2.013   .     S
Cu553  O575    1.962   .     S
Cu553  O577    1.960   .     S
Cu553  O573    1.963   .     S
Cu554  O580    1.961   .     S
Cu554  N572    2.013   .     S
Cu554  O576    1.962   .     S
Cu554  O574    1.963   .     S
Cu554  O578    1.960   .     S
C581   O634    1.290   .     A
C581   O631    1.291   .     A
C581   C582    1.448   .     S
C582   C606    1.401   .     A
C582   C609    1.400   .     A
C583   N630    1.367   .     A
C583   H624    1.082   .     S
C583   C934    1.417   1_545 S
C584   N629    1.367   .     A
C584   H614    1.082   .     S
C584   C759    1.417   .     S
C585   H615    1.082   .     S
C585   N630    1.367   .     A
C585   C932    1.417   1_545 S
C586   H616    1.082   .     S
C586   N629    1.367   .     A
C586   C757    1.417   .     S
C587   O638    1.290   .     A
C587   O635    1.290   .     A
C587   C593    1.447   .     S
C588   O637    1.290   .     A
C588   O636    1.290   .     A
C588   C591    1.447   .     S
C589   I625    2.148   .     S
C589   C591    1.404   .     A
C589   C600    1.409   .     A
C590   I626    2.148   .     S
C590   C601    1.409   .     A
C590   C593    1.404   .     A
C591   C594    1.392   .     A
C592   O632    1.291   .     A
C592   C610    1.448   .     S
C592   O633    1.290   .     A
C593   C595    1.392   .     A
C594   H613    1.082   .     S
C594   C596    1.394   .     A
C595   H617    1.082   .     S
C595   C597    1.394   .     A
C596   C598    1.416   .     A
C596   C602    1.408   .     A
C597   C604    1.408   .     A
C597   C599    1.416   .     A
C598   C600    1.419   .     A
C598   C77     1.411   1_556 S
C599   C601    1.419   .     A
C600   C605    1.404   .     A
C601   C603    1.404   .     A
C602   I627    2.131   .     S
C602   C81     1.391   1_556 S
C603   H618    1.079   .     S
C604   I628    2.131   .     S
C605   H619    1.079   .     S
C605   C82     1.391   1_556 S
C606   H620    1.083   .     S
C607   H621    1.083   .     S
C607   C610    1.401   .     A
C607   C667    1.383   .     S
C608   C610    1.400   .     A
C608   H622    1.083   .     S
C608   C664    1.383   .     S
C609   H623    1.083   .     S
Cu611  Cu612   2.679   .     S
Cu611  O637    1.961   .     S
Cu611  N629    2.013   .     S
Cu611  O633    1.962   .     S
Cu611  O635    1.960   .     S
Cu611  O631    1.963   .     S
Cu612  O638    1.961   .     S
Cu612  N630    2.013   .     S
Cu612  O634    1.962   .     S
Cu612  O632    1.963   .     S
Cu612  O636    1.960   .     S
C639   O692    1.290   .     A
C639   O689    1.291   .     A
C639   C640    1.448   .     S
C640   C664    1.401   .     A
C640   C667    1.400   .     A
C641   N688    1.367   .     A
C641   H682    1.082   .     S
C641   C992    1.417   1_545 S
C642   N687    1.367   .     A
C642   H672    1.082   .     S
C642   C817    1.417   .     S
C643   H673    1.082   .     S
C643   N688    1.367   .     A
C643   C990    1.417   1_545 S
C644   H674    1.082   .     S
C644   N687    1.367   .     A
C644   C815    1.417   .     S
C645   O696    1.290   .     A
C645   O693    1.290   .     A
C645   C651    1.447   .     S
C646   O695    1.290   .     A
C646   O694    1.290   .     A
C646   C649    1.447   .     S
C647   I683    2.148   .     S
C647   C649    1.404   .     A
C647   C658    1.409   .     A
C648   I684    2.148   .     S
C648   C659    1.409   .     A
C648   C651    1.404   .     A
C649   C652    1.392   .     A
C650   O690    1.291   .     A
C650   C668    1.448   .     S
C650   O691    1.290   .     A
C651   C653    1.392   .     A
C652   H671    1.082   .     S
C652   C654    1.394   .     A
C653   H675    1.082   .     S
C653   C655    1.394   .     A
C654   C656    1.416   .     A
C654   C660    1.408   .     A
C655   C662    1.408   .     A
C655   C657    1.416   .     A
C656   C658    1.419   .     A
C656   C135    1.411   1_556 S
C657   C659    1.419   .     A
C658   C663    1.404   .     A
C659   C661    1.404   .     A
C660   I685    2.131   .     S
C660   C139    1.391   1_556 S
C661   H676    1.079   .     S
C662   I686    2.131   .     S
C663   H677    1.079   .     S
C663   C140    1.391   1_556 S
C664   H678    1.083   .     S
C665   H679    1.083   .     S
C665   C668    1.401   .     A
C665   C551    1.383   1_655 S
C666   C668    1.400   .     A
C666   H680    1.083   .     S
C666   C548    1.383   1_655 S
C667   H681    1.083   .     S
Cu669  Cu670   2.679   .     S
Cu669  O695    1.961   .     S
Cu669  N687    2.013   .     S
Cu669  O691    1.962   .     S
Cu669  O693    1.960   .     S
Cu669  O689    1.963   .     S
Cu670  O696    1.961   .     S
Cu670  N688    2.013   .     S
Cu670  O692    1.962   .     S
Cu670  O690    1.963   .     S
Cu670  O694    1.960   .     S
C697   O750    1.290   .     A
C697   O747    1.291   .     A
C697   C698    1.448   .     S
C698   C722    1.401   .     A
C698   C725    1.400   .     A
C699   N746    1.367   .     A
C699   H740    1.082   .     S
C700   N745    1.367   .     A
C700   H730    1.082   .     S
C700   C875    1.417   .     S
C701   H731    1.082   .     S
C701   N746    1.367   .     A
C702   H732    1.082   .     S
C702   N745    1.367   .     A
C702   C873    1.417   .     S
C703   O754    1.290   .     A
C703   O751    1.290   .     A
C703   C709    1.447   .     S
C704   O753    1.290   .     A
C704   O752    1.290   .     A
C704   C707    1.447   .     S
C705   I741    2.148   .     S
C705   C707    1.404   .     A
C705   C716    1.409   .     A
C706   I742    2.148   .     S
C706   C717    1.409   .     A
C706   C709    1.404   .     A
C707   C710    1.392   .     A
C708   O748    1.291   .     A
C708   C726    1.448   .     S
C708   O749    1.290   .     A
C709   C711    1.392   .     A
C710   H729    1.082   .     S
C710   C712    1.394   .     A
C711   H733    1.082   .     S
C711   C713    1.394   .     A
C712   C714    1.416   .     A
C712   C718    1.408   .     A
C713   C720    1.408   .     A
C713   C715    1.416   .     A
C714   C716    1.419   .     A
C714   C193    1.411   1_556 S
C715   C717    1.419   .     A
C716   C721    1.404   .     A
C717   C719    1.404   .     A
C718   I743    2.131   .     S
C718   C197    1.391   1_556 S
C719   H734    1.079   .     S
C720   I744    2.131   .     S
C721   H735    1.079   .     S
C721   C198    1.391   1_556 S
C722   H736    1.083   .     S
C722   C840    1.383   1_455 S
C723   H737    1.083   .     S
C723   C726    1.401   .     A
C723   C783    1.383   .     S
C724   C726    1.400   .     A
C724   H738    1.083   .     S
C724   C780    1.383   .     S
C725   H739    1.083   .     S
C725   C839    1.383   1_455 S
Cu727  Cu728   2.679   .     S
Cu727  O753    1.961   .     S
Cu727  N745    2.013   .     S
Cu727  O749    1.962   .     S
Cu727  O751    1.960   .     S
Cu727  O747    1.963   .     S
Cu728  O754    1.961   .     S
Cu728  N746    2.013   .     S
Cu728  O750    1.962   .     S
Cu728  O748    1.963   .     S
Cu728  O752    1.960   .     S
C755   O808    1.290   .     A
C755   O805    1.291   .     A
C755   C756    1.448   .     S
C756   C780    1.401   .     A
C756   C783    1.400   .     A
C757   N804    1.367   .     A
C757   H798    1.082   .     S
C758   N803    1.367   .     A
C758   H788    1.082   .     S
C758   C933    1.417   .     S
C759   H789    1.082   .     S
C759   N804    1.367   .     A
C760   H790    1.082   .     S
C760   N803    1.367   .     A
C760   C931    1.417   .     S
C761   O812    1.290   .     A
C761   O809    1.290   .     A
C761   C767    1.447   .     S
C762   O811    1.290   .     A
C762   O810    1.290   .     A
C762   C765    1.447   .     S
C763   I799    2.148   .     S
C763   C765    1.404   .     A
C763   C774    1.409   .     A
C764   I800    2.148   .     S
C764   C775    1.409   .     A
C764   C767    1.404   .     A
C765   C768    1.392   .     A
C766   O806    1.291   .     A
C766   C784    1.448   .     S
C766   O807    1.290   .     A
C767   C769    1.392   .     A
C768   H787    1.082   .     S
C768   C770    1.394   .     A
C769   H791    1.082   .     S
C769   C771    1.394   .     A
C770   C772    1.416   .     A
C770   C776    1.408   .     A
C771   C778    1.408   .     A
C771   C773    1.416   .     A
C772   C774    1.419   .     A
C772   C251    1.411   1_556 S
C773   C775    1.419   .     A
C774   C779    1.404   .     A
C775   C777    1.404   .     A
C776   I801    2.131   .     S
C776   C255    1.391   1_556 S
C777   H792    1.079   .     S
C778   I802    2.131   .     S
C779   H793    1.079   .     S
C779   C256    1.391   1_556 S
C780   H794    1.083   .     S
C781   H795    1.083   .     S
C781   C784    1.401   .     A
C781   C841    1.383   .     S
C782   C784    1.400   .     A
C782   H796    1.083   .     S
C782   C838    1.383   .     S
C783   H797    1.083   .     S
Cu785  Cu786   2.679   .     S
Cu785  O811    1.961   .     S
Cu785  N803    2.013   .     S
Cu785  O807    1.962   .     S
Cu785  O809    1.960   .     S
Cu785  O805    1.963   .     S
Cu786  O812    1.961   .     S
Cu786  N804    2.013   .     S
Cu786  O808    1.962   .     S
Cu786  O806    1.963   .     S
Cu786  O810    1.960   .     S
C813   O866    1.290   .     A
C813   O863    1.291   .     A
C813   C814    1.448   .     S
C814   C838    1.401   .     A
C814   C841    1.400   .     A
C815   N862    1.367   .     A
C815   H856    1.082   .     S
C816   N861    1.367   .     A
C816   H846    1.082   .     S
C816   C991    1.417   .     S
C817   H847    1.082   .     S
C817   N862    1.367   .     A
C818   H848    1.082   .     S
C818   N861    1.367   .     A
C818   C989    1.417   .     S
C819   O870    1.290   .     A
C819   O867    1.290   .     A
C819   C825    1.447   .     S
C820   O869    1.290   .     A
C820   O868    1.290   .     A
C820   C823    1.447   .     S
C821   I857    2.148   .     S
C821   C823    1.404   .     A
C821   C832    1.409   .     A
C822   I858    2.148   .     S
C822   C833    1.409   .     A
C822   C825    1.404   .     A
C823   C826    1.392   .     A
C824   O864    1.291   .     A
C824   C842    1.448   .     S
C824   O865    1.290   .     A
C825   C827    1.392   .     A
C826   H845    1.082   .     S
C826   C828    1.394   .     A
C827   H849    1.082   .     S
C827   C829    1.394   .     A
C828   C830    1.416   .     A
C828   C834    1.408   .     A
C829   C836    1.408   .     A
C829   C831    1.416   .     A
C830   C832    1.419   .     A
C830   C309    1.411   1_556 S
C831   C833    1.419   .     A
C832   C837    1.404   .     A
C833   C835    1.404   .     A
C834   I859    2.131   .     S
C834   C313    1.391   1_556 S
C835   H850    1.079   .     S
C836   I860    2.131   .     S
C837   H851    1.079   .     S
C837   C314    1.391   1_556 S
C838   H852    1.083   .     S
C839   H853    1.083   .     S
C839   C842    1.401   .     A
C839   C725    1.383   1_655 S
C840   C842    1.400   .     A
C840   H854    1.083   .     S
C840   C722    1.383   1_655 S
C841   H855    1.083   .     S
Cu843  Cu844   2.679   .     S
Cu843  O869    1.961   .     S
Cu843  N861    2.013   .     S
Cu843  O865    1.962   .     S
Cu843  O867    1.960   .     S
Cu843  O863    1.963   .     S
Cu844  O870    1.961   .     S
Cu844  N862    2.013   .     S
Cu844  O866    1.962   .     S
Cu844  O864    1.963   .     S
Cu844  O868    1.960   .     S
C871   O924    1.290   .     A
C871   O921    1.291   .     A
C871   C872    1.448   .     S
C872   C896    1.401   .     A
C872   C899    1.400   .     A
C873   N920    1.367   .     A
C873   H914    1.082   .     S
C874   N919    1.367   .     A
C874   H904    1.082   .     S
C874   C527    1.417   1_565 S
C875   H905    1.082   .     S
C875   N920    1.367   .     A
C876   H906    1.082   .     S
C876   N919    1.367   .     A
C876   C525    1.417   1_565 S
C877   O928    1.290   .     A
C877   O925    1.290   .     A
C877   C883    1.447   .     S
C878   O927    1.290   .     A
C878   O926    1.290   .     A
C878   C881    1.447   .     S
C879   I915    2.148   .     S
C879   C881    1.404   .     A
C879   C890    1.409   .     A
C880   I916    2.148   .     S
C880   C891    1.409   .     A
C880   C883    1.404   .     A
C881   C884    1.392   .     A
C882   O922    1.291   .     A
C882   C900    1.448   .     S
C882   O923    1.290   .     A
C883   C885    1.392   .     A
C884   H903    1.082   .     S
C884   C886    1.394   .     A
C885   H907    1.082   .     S
C885   C887    1.394   .     A
C886   C888    1.416   .     A
C886   C892    1.408   .     A
C887   C894    1.408   .     A
C887   C889    1.416   .     A
C888   C890    1.419   .     A
C888   C367    1.411   1_556 S
C889   C891    1.419   .     A
C890   C895    1.404   .     A
C891   C893    1.404   .     A
C892   I917    2.131   .     S
C892   C371    1.391   1_556 S
C893   H908    1.079   .     S
C894   I918    2.131   .     S
C895   H909    1.079   .     S
C895   C372    1.391   1_556 S
C896   H910    1.083   .     S
C896   C1014   1.383   1_455 S
C897   H911    1.083   .     S
C897   C900    1.401   .     A
C897   C957    1.383   .     S
C898   C900    1.400   .     A
C898   H912    1.083   .     S
C898   C954    1.383   .     S
C899   H913    1.083   .     S
C899   C1013   1.383   1_455 S
Cu901  Cu902   2.679   .     S
Cu901  O927    1.961   .     S
Cu901  N919    2.013   .     S
Cu901  O923    1.962   .     S
Cu901  O925    1.960   .     S
Cu901  O921    1.963   .     S
Cu902  O928    1.961   .     S
Cu902  N920    2.013   .     S
Cu902  O924    1.962   .     S
Cu902  O922    1.963   .     S
Cu902  O926    1.960   .     S
C929   O982    1.290   .     A
C929   O979    1.291   .     A
C929   C930    1.448   .     S
C930   C954    1.401   .     A
C930   C957    1.400   .     A
C931   N978    1.367   .     A
C931   H972    1.082   .     S
C932   N977    1.367   .     A
C932   H962    1.082   .     S
C932   C585    1.417   1_565 S
C933   H963    1.082   .     S
C933   N978    1.367   .     A
C934   H964    1.082   .     S
C934   N977    1.367   .     A
C934   C583    1.417   1_565 S
C935   O986    1.290   .     A
C935   O983    1.290   .     A
C935   C941    1.447   .     S
C936   O985    1.290   .     A
C936   O984    1.290   .     A
C936   C939    1.447   .     S
C937   I973    2.148   .     S
C937   C939    1.404   .     A
C937   C948    1.409   .     A
C938   I974    2.148   .     S
C938   C949    1.409   .     A
C938   C941    1.404   .     A
C939   C942    1.392   .     A
C940   O980    1.291   .     A
C940   C958    1.448   .     S
C940   O981    1.290   .     A
C941   C943    1.392   .     A
C942   H961    1.082   .     S
C942   C944    1.394   .     A
C943   H965    1.082   .     S
C943   C945    1.394   .     A
C944   C946    1.416   .     A
C944   C950    1.408   .     A
C945   C952    1.408   .     A
C945   C947    1.416   .     A
C946   C948    1.419   .     A
C946   C425    1.411   1_556 S
C947   C949    1.419   .     A
C948   C953    1.404   .     A
C949   C951    1.404   .     A
C950   I975    2.131   .     S
C950   C429    1.391   1_556 S
C951   H966    1.079   .     S
C952   I976    2.131   .     S
C953   H967    1.079   .     S
C953   C430    1.391   1_556 S
C954   H968    1.083   .     S
C955   H969    1.083   .     S
C955   C958    1.401   .     A
C955   C1015   1.383   .     S
C956   C958    1.400   .     A
C956   H970    1.083   .     S
C956   C1012   1.383   .     S
C957   H971    1.083   .     S
Cu959  Cu960   2.679   .     S
Cu959  O985    1.961   .     S
Cu959  N977    2.013   .     S
Cu959  O981    1.962   .     S
Cu959  O983    1.960   .     S
Cu959  O979    1.963   .     S
Cu960  O986    1.961   .     S
Cu960  N978    2.013   .     S
Cu960  O982    1.962   .     S
Cu960  O980    1.963   .     S
Cu960  O984    1.960   .     S
C987   O1040   1.290   .     A
C987   O1037   1.291   .     A
C987   C988    1.448   .     S
C988   C1012   1.401   .     A
C988   C1015   1.400   .     A
C989   N1036   1.367   .     A
C989   H1030   1.082   .     S
C990   N1035   1.367   .     A
C990   H1020   1.082   .     S
C990   C643    1.417   1_565 S
C991   H1021   1.082   .     S
C991   N1036   1.367   .     A
C992   H1022   1.082   .     S
C992   N1035   1.367   .     A
C992   C641    1.417   1_565 S
C993   O1044   1.290   .     A
C993   O1041   1.290   .     A
C993   C999    1.447   .     S
C994   O1043   1.290   .     A
C994   O1042   1.290   .     A
C994   C997    1.447   .     S
C995   I1031   2.148   .     S
C995   C997    1.404   .     A
C995   C1006   1.409   .     A
C996   I1032   2.148   .     S
C996   C1007   1.409   .     A
C996   C999    1.404   .     A
C997   C1000   1.392   .     A
C998   O1038   1.291   .     A
C998   C1016   1.448   .     S
C998   O1039   1.290   .     A
C999   C1001   1.392   .     A
C1000  H1019   1.082   .     S
C1000  C1002   1.394   .     A
C1001  H1023   1.082   .     S
C1001  C1003   1.394   .     A
C1002  C1004   1.416   .     A
C1002  C1008   1.408   .     A
C1003  C1010   1.408   .     A
C1003  C1005   1.416   .     A
C1004  C1006   1.419   .     A
C1004  C483    1.411   1_556 S
C1005  C1007   1.419   .     A
C1006  C1011   1.404   .     A
C1007  C1009   1.404   .     A
C1008  I1033   2.131   .     S
C1008  C487    1.391   1_556 S
C1009  H1024   1.079   .     S
C1010  I1034   2.131   .     S
C1011  H1025   1.079   .     S
C1011  C488    1.391   1_556 S
C1012  H1026   1.083   .     S
C1013  H1027   1.083   .     S
C1013  C1016   1.401   .     A
C1013  C899    1.383   1_655 S
C1014  C1016   1.400   .     A
C1014  H1028   1.083   .     S
C1014  C896    1.383   1_655 S
C1015  H1029   1.083   .     S
Cu1017 Cu1018  2.679   .     S
Cu1017 O1043   1.961   .     S
Cu1017 N1035   2.013   .     S
Cu1017 O1039   1.962   .     S
Cu1017 O1041   1.960   .     S
Cu1017 O1037   1.963   .     S
Cu1018 O1044   1.961   .     S
Cu1018 N1036   2.013   .     S
Cu1018 O1040   1.962   .     S
Cu1018 O1038   1.963   .     S
Cu1018 O1042   1.960   .     S
