data_str_m2_o1_o17_pcu_sym.99
_audit_creation_date              2020-01-03
_audit_creation_method            'Materials Studio'
_symmetry_space_group_name_H-M    'P1'
_symmetry_Int_Tables_number       1
_symmetry_cell_setting            triclinic
loop_
_symmetry_equiv_pos_as_xyz
  x,y,z
_cell_length_a                    32.5056
_cell_length_b                    28.5225
_cell_length_c                    30.0448
_cell_angle_alpha                 89.7890
_cell_angle_beta                  90.7752
_cell_angle_gamma                 89.7457
loop_
_atom_site_label
_atom_site_type_symbol
_atom_site_fract_x
_atom_site_fract_y
_atom_site_fract_z
_atom_site_U_iso_or_equiv
_atom_site_adp_type
_atom_site_occupancy
C1     C     0.08734   0.16674   0.24872   0.00000  Uiso   1.00
C2     C     0.24599   0.16662   0.24950   0.00000  Uiso   1.00
C3     C     0.09638   0.13927   0.02384   0.00000  Uiso   1.00
C4     C     0.23398   0.20506   0.47642   0.00000  Uiso   1.00
C5     C     0.02144   0.12416   0.24866   0.00000  Uiso   1.00
C6     C     0.31179   0.20923   0.24553   0.00000  Uiso   1.00
C7     C     0.31223   0.12410   0.24926   0.00000  Uiso   1.00
C8     C     0.02103   0.20930   0.24514   0.00000  Uiso   1.00
C9     C     0.29057   0.16664   0.24811   0.00000  Uiso   1.00
C10    C     0.04270   0.16678   0.24716   0.00000  Uiso   1.00
C11    C     0.14114   0.02505   0.22195   0.00000  Uiso   1.00
C12    C     0.19226   0.30827   0.27799   0.00000  Uiso   1.00
C13    C     0.19227   0.02458   0.27799   0.00000  Uiso   1.00
C14    C     0.14115   0.30874   0.22193   0.00000  Uiso   1.00
C15    C     0.16793   0.16685   0.16452   0.00000  Uiso   1.00
C16    C     0.16655   0.16659   0.33556   0.00000  Uiso   1.00
C17    C     0.19909   0.18554   0.40669   0.00000  Uiso   1.00
C18    C     0.13393   0.15119   0.09348   0.00000  Uiso   1.00
C19    C     0.16536   0.16695   0.38377   0.00000  Uiso   1.00
C20    C     0.16844   0.16770   0.11641   0.00000  Uiso   1.00
C21    C     0.13072   0.15041   0.40673   0.00000  Uiso   1.00
C22    C     0.20209   0.18663   0.09354   0.00000  Uiso   1.00
C23    C     0.13138   0.15079   0.45349   0.00000  Uiso   1.00
C24    C     0.20169   0.18583   0.04678   0.00000  Uiso   1.00
C25    C     0.16601   0.16877   0.47668   0.00000  Uiso   1.00
C26    C     0.16672   0.16889   0.02352   0.00000  Uiso   1.00
C27    C     0.19992   0.18655   0.45312   0.00000  Uiso   1.00
C28    C     0.13226   0.15263   0.04708   0.00000  Uiso   1.00
C29    C     0.09734   0.13510   0.47750   0.00000  Uiso   1.00
C30    C     0.23533   0.20243   0.02288   0.00000  Uiso   1.00
Cu31   Cu    0.16667   0.21355   0.25000   0.00000  Uiso   1.00
Cu32   Cu    0.16667   0.11978   0.25000   0.00000  Uiso   1.00
H33    H     0.22501   0.19844   0.38796   0.00000  Uiso   1.00
H34    H     0.10804   0.13804   0.11214   0.00000  Uiso   1.00
H35    H     0.07045   0.12139   0.46052   0.00000  Uiso   1.00
H36    H     0.26278   0.21388   0.04010   0.00000  Uiso   1.00
H37    H     0.03761   0.09089   0.25008   0.00000  Uiso   1.00
H38    H     0.29559   0.24250   0.24422   0.00000  Uiso   1.00
H39    H     0.29640   0.09081   0.25098   0.00000  Uiso   1.00
H40    H     0.03689   0.24258   0.24373   0.00000  Uiso   1.00
H41    H     0.12067   0.04397   0.19951   0.00000  Uiso   1.00
H42    H     0.21274   0.28935   0.30042   0.00000  Uiso   1.00
H43    H     0.21275   0.04313   0.30040   0.00000  Uiso   1.00
H44    H     0.12072   0.29018   0.19948   0.00000  Uiso   1.00
N45    N     0.16667   0.28402   0.25000   0.00000  Uiso   1.00
N46    N     0.16667   0.04931   0.25000   0.00000  Uiso   1.00
O47    O     0.10655   0.20625   0.25000   0.00000  Uiso   1.00
O48    O     0.22679   0.12709   0.25001   0.00000  Uiso   1.00
O49    O     0.22679   0.20625   0.25001   0.00000  Uiso   1.00
O50    O     0.10655   0.12709   0.25000   0.00000  Uiso   1.00
O51    O     0.16666   0.20627   0.18513   0.00000  Uiso   1.00
O52    O     0.16668   0.12707   0.31487   0.00000  Uiso   1.00
O53    O     0.16668   0.20627   0.31487   0.00000  Uiso   1.00
O54    O     0.16666   0.12707   0.18513   0.00000  Uiso   1.00
O55    O     0.09775   0.13012   0.38425   0.00000  Uiso   1.00
C56    C     0.07305   0.16469   0.36277   0.00000  Uiso   1.00
H57    H     0.05644   0.14687   0.33528   0.00000  Uiso   1.00
H58    H     0.09104   0.19354   0.34759   0.00000  Uiso   1.00
C59    C     0.04088   0.18544   0.39392   0.00000  Uiso   1.00
H60    H     0.02265   0.15681   0.40908   0.00000  Uiso   1.00
H61    H     0.05648   0.20551   0.42085   0.00000  Uiso   1.00
C62    C     0.01170   0.21823   0.36840   0.00000  Uiso   1.00
H63    H     0.02919   0.24628   0.35136   0.00000  Uiso   1.00
H64    H     0.32346   0.23488   0.39178   0.00000  Uiso   1.00
H65    H     0.32689   0.19824   0.34336   0.00000  Uiso   1.00
O66    O     0.23666   0.20247   0.11652   0.00000  Uiso   1.00
C67    C     0.23059   0.24915   0.13136   0.00000  Uiso   1.00
H68    H     0.23100   0.24873   0.16830   0.00000  Uiso   1.00
H69    H     0.20092   0.26555   0.12000   0.00000  Uiso   1.00
C70    C     0.26605   0.28013   0.11621   0.00000  Uiso   1.00
H71    H     0.29585   0.26288   0.12483   0.00000  Uiso   1.00
H72    H     0.26406   0.28510   0.07960   0.00000  Uiso   1.00
C73    C     0.26454   0.32820   0.13836   0.00000  Uiso   1.00
H74    H     0.23506   0.01295   0.13005   0.00000  Uiso   1.00
H75    H     0.29032   0.01668   0.12624   0.00000  Uiso   1.00
H76    H     0.26758   0.32452   0.17509   0.00000  Uiso   1.00
O77    O     0.06020   0.13097   0.04652   0.00000  Uiso   1.00
C78    C     0.03179   0.16797   0.03763   0.00000  Uiso   1.00
H79    H     0.00045   0.15502   0.04515   0.00000  Uiso   1.00
H80    H     0.03057   0.17811   0.00176   0.00000  Uiso   1.00
C81    C     0.04041   0.21088   0.06732   0.00000  Uiso   1.00
H82    H     0.02654   0.20524   0.10052   0.00000  Uiso   1.00
H83    H     0.07390   0.21598   0.07244   0.00000  Uiso   1.00
C84    C     0.02327   0.25595   0.04660   0.00000  Uiso   1.00
H85    H     0.03941   0.26392   0.01512   0.00000  Uiso   1.00
H86    H     0.02798   0.28557   0.06997   0.00000  Uiso   1.00
H87    H     0.32334   0.25254   0.03937   0.00000  Uiso   1.00
O88    O     0.26722   0.22301   0.45370   0.00000  Uiso   1.00
C89    C     0.26834   0.27247   0.45816   0.00000  Uiso   1.00
H90    H     0.30096   0.28349   0.45564   0.00000  Uiso   1.00
H91    H     0.25764   0.28520   0.49114   0.00000  Uiso   1.00
C92    C     0.24345   0.29616   0.42055   0.00000  Uiso   1.00
H93    H     0.25463   0.28362   0.38786   0.00000  Uiso   1.00
H94    H     0.21046   0.28672   0.42342   0.00000  Uiso   1.00
C95    C     0.24729   0.01610   0.42234   0.00000  Uiso   1.00
H96    H     0.23558   0.02955   0.45445   0.00000  Uiso   1.00
H97    H     0.22887   0.03209   0.39477   0.00000  Uiso   1.00
H98    H     0.27992   0.02664   0.41862   0.00000  Uiso   1.00
C99    C     0.42068   0.16674   0.24872   0.00000  Uiso   1.00
C100   C     0.57932   0.16662   0.24950   0.00000  Uiso   1.00
C101   C     0.42972   0.13927   0.02384   0.00000  Uiso   1.00
C102   C     0.56731   0.20506   0.47642   0.00000  Uiso   1.00
C103   C     0.35477   0.12416   0.24866   0.00000  Uiso   1.00
C104   C     0.64512   0.20923   0.24553   0.00000  Uiso   1.00
C105   C     0.64556   0.12410   0.24926   0.00000  Uiso   1.00
C106   C     0.35437   0.20930   0.24514   0.00000  Uiso   1.00
C107   C     0.62390   0.16664   0.24811   0.00000  Uiso   1.00
C108   C     0.37603   0.16678   0.24716   0.00000  Uiso   1.00
C109   C     0.47447   0.02505   0.22195   0.00000  Uiso   1.00
C110   C     0.52560   0.30827   0.27799   0.00000  Uiso   1.00
C111   C     0.52560   0.02458   0.27799   0.00000  Uiso   1.00
C112   C     0.47449   0.30874   0.22193   0.00000  Uiso   1.00
C113   C     0.50127   0.16685   0.16452   0.00000  Uiso   1.00
C114   C     0.49989   0.16659   0.33556   0.00000  Uiso   1.00
C115   C     0.53242   0.18554   0.40669   0.00000  Uiso   1.00
C116   C     0.46726   0.15119   0.09348   0.00000  Uiso   1.00
C117   C     0.49870   0.16695   0.38377   0.00000  Uiso   1.00
C118   C     0.50178   0.16770   0.11641   0.00000  Uiso   1.00
C119   C     0.46405   0.15041   0.40673   0.00000  Uiso   1.00
C120   C     0.53542   0.18663   0.09354   0.00000  Uiso   1.00
C121   C     0.46471   0.15079   0.45349   0.00000  Uiso   1.00
C122   C     0.53502   0.18583   0.04678   0.00000  Uiso   1.00
C123   C     0.49934   0.16877   0.47668   0.00000  Uiso   1.00
C124   C     0.50006   0.16889   0.02352   0.00000  Uiso   1.00
C125   C     0.53326   0.18655   0.45312   0.00000  Uiso   1.00
C126   C     0.46559   0.15263   0.04708   0.00000  Uiso   1.00
C127   C     0.43067   0.13510   0.47750   0.00000  Uiso   1.00
C128   C     0.56867   0.20243   0.02288   0.00000  Uiso   1.00
Cu129  Cu    0.50000   0.21355   0.25000   0.00000  Uiso   1.00
Cu130  Cu    0.50000   0.11978   0.25000   0.00000  Uiso   1.00
H131   H     0.55834   0.19844   0.38796   0.00000  Uiso   1.00
H132   H     0.44138   0.13804   0.11214   0.00000  Uiso   1.00
H133   H     0.40378   0.12139   0.46052   0.00000  Uiso   1.00
H134   H     0.59612   0.21388   0.04010   0.00000  Uiso   1.00
H135   H     0.37094   0.09089   0.25008   0.00000  Uiso   1.00
H136   H     0.62893   0.24250   0.24422   0.00000  Uiso   1.00
H137   H     0.62974   0.09081   0.25098   0.00000  Uiso   1.00
H138   H     0.37023   0.24258   0.24373   0.00000  Uiso   1.00
H139   H     0.45401   0.04397   0.19951   0.00000  Uiso   1.00
H140   H     0.54608   0.28935   0.30042   0.00000  Uiso   1.00
H141   H     0.54609   0.04313   0.30040   0.00000  Uiso   1.00
H142   H     0.45405   0.29018   0.19948   0.00000  Uiso   1.00
N143   N     0.50000   0.28402   0.25000   0.00000  Uiso   1.00
N144   N     0.50000   0.04931   0.25000   0.00000  Uiso   1.00
O145   O     0.43988   0.20625   0.25000   0.00000  Uiso   1.00
O146   O     0.56012   0.12709   0.25001   0.00000  Uiso   1.00
O147   O     0.56012   0.20625   0.25001   0.00000  Uiso   1.00
O148   O     0.43988   0.12709   0.25000   0.00000  Uiso   1.00
O149   O     0.49999   0.20627   0.18513   0.00000  Uiso   1.00
O150   O     0.50001   0.12707   0.31487   0.00000  Uiso   1.00
O151   O     0.50001   0.20627   0.31487   0.00000  Uiso   1.00
O152   O     0.49999   0.12707   0.18513   0.00000  Uiso   1.00
O153   O     0.43109   0.13012   0.38425   0.00000  Uiso   1.00
C154   C     0.40639   0.16469   0.36277   0.00000  Uiso   1.00
H155   H     0.38978   0.14687   0.33528   0.00000  Uiso   1.00
H156   H     0.42437   0.19354   0.34759   0.00000  Uiso   1.00
C157   C     0.37422   0.18544   0.39392   0.00000  Uiso   1.00
H158   H     0.35598   0.15681   0.40908   0.00000  Uiso   1.00
H159   H     0.38982   0.20551   0.42085   0.00000  Uiso   1.00
C160   C     0.34504   0.21823   0.36840   0.00000  Uiso   1.00
H161   H     0.36252   0.24628   0.35136   0.00000  Uiso   1.00
H162   H     0.65679   0.23488   0.39178   0.00000  Uiso   1.00
H163   H     0.66023   0.19824   0.34336   0.00000  Uiso   1.00
O164   O     0.57000   0.20247   0.11652   0.00000  Uiso   1.00
C165   C     0.56393   0.24915   0.13136   0.00000  Uiso   1.00
H166   H     0.56433   0.24873   0.16830   0.00000  Uiso   1.00
H167   H     0.53426   0.26555   0.12000   0.00000  Uiso   1.00
C168   C     0.59938   0.28013   0.11621   0.00000  Uiso   1.00
H169   H     0.62918   0.26288   0.12483   0.00000  Uiso   1.00
H170   H     0.59739   0.28510   0.07960   0.00000  Uiso   1.00
C171   C     0.59788   0.32820   0.13836   0.00000  Uiso   1.00
H172   H     0.56840   0.01295   0.13005   0.00000  Uiso   1.00
H173   H     0.62366   0.01668   0.12624   0.00000  Uiso   1.00
H174   H     0.60092   0.32452   0.17509   0.00000  Uiso   1.00
O175   O     0.39354   0.13097   0.04652   0.00000  Uiso   1.00
C176   C     0.36513   0.16797   0.03763   0.00000  Uiso   1.00
H177   H     0.33378   0.15502   0.04515   0.00000  Uiso   1.00
H178   H     0.36390   0.17811   0.00176   0.00000  Uiso   1.00
C179   C     0.37374   0.21088   0.06732   0.00000  Uiso   1.00
H180   H     0.35988   0.20524   0.10052   0.00000  Uiso   1.00
H181   H     0.40723   0.21598   0.07244   0.00000  Uiso   1.00
C182   C     0.35661   0.25595   0.04660   0.00000  Uiso   1.00
H183   H     0.37274   0.26392   0.01512   0.00000  Uiso   1.00
H184   H     0.36131   0.28557   0.06997   0.00000  Uiso   1.00
H185   H     0.65667   0.25254   0.03937   0.00000  Uiso   1.00
O186   O     0.60056   0.22301   0.45370   0.00000  Uiso   1.00
C187   C     0.60167   0.27247   0.45816   0.00000  Uiso   1.00
H188   H     0.63429   0.28349   0.45564   0.00000  Uiso   1.00
H189   H     0.59097   0.28520   0.49114   0.00000  Uiso   1.00
C190   C     0.57678   0.29616   0.42055   0.00000  Uiso   1.00
H191   H     0.58796   0.28362   0.38786   0.00000  Uiso   1.00
H192   H     0.54380   0.28672   0.42342   0.00000  Uiso   1.00
C193   C     0.58062   0.01610   0.42234   0.00000  Uiso   1.00
H194   H     0.56891   0.02955   0.45445   0.00000  Uiso   1.00
H195   H     0.56220   0.03209   0.39477   0.00000  Uiso   1.00
H196   H     0.61325   0.02664   0.41862   0.00000  Uiso   1.00
C197   C     0.75401   0.16674   0.24872   0.00000  Uiso   1.00
C198   C     0.91265   0.16662   0.24950   0.00000  Uiso   1.00
C199   C     0.76305   0.13927   0.02384   0.00000  Uiso   1.00
C200   C     0.90064   0.20506   0.47642   0.00000  Uiso   1.00
C201   C     0.68810   0.12416   0.24866   0.00000  Uiso   1.00
C202   C     0.97846   0.20923   0.24553   0.00000  Uiso   1.00
C203   C     0.97890   0.12410   0.24926   0.00000  Uiso   1.00
C204   C     0.68770   0.20930   0.24514   0.00000  Uiso   1.00
C205   C     0.95724   0.16664   0.24811   0.00000  Uiso   1.00
C206   C     0.70937   0.16678   0.24716   0.00000  Uiso   1.00
C207   C     0.80780   0.02505   0.22195   0.00000  Uiso   1.00
C208   C     0.85893   0.30827   0.27799   0.00000  Uiso   1.00
C209   C     0.85893   0.02458   0.27799   0.00000  Uiso   1.00
C210   C     0.80782   0.30874   0.22193   0.00000  Uiso   1.00
C211   C     0.83460   0.16685   0.16452   0.00000  Uiso   1.00
C212   C     0.83322   0.16659   0.33556   0.00000  Uiso   1.00
C213   C     0.86575   0.18554   0.40669   0.00000  Uiso   1.00
C214   C     0.80059   0.15119   0.09348   0.00000  Uiso   1.00
C215   C     0.83203   0.16695   0.38377   0.00000  Uiso   1.00
C216   C     0.83511   0.16770   0.11641   0.00000  Uiso   1.00
C217   C     0.79739   0.15041   0.40673   0.00000  Uiso   1.00
C218   C     0.86876   0.18663   0.09354   0.00000  Uiso   1.00
C219   C     0.79804   0.15079   0.45349   0.00000  Uiso   1.00
C220   C     0.86836   0.18583   0.04678   0.00000  Uiso   1.00
C221   C     0.83268   0.16877   0.47668   0.00000  Uiso   1.00
C222   C     0.83339   0.16889   0.02352   0.00000  Uiso   1.00
C223   C     0.86659   0.18655   0.45312   0.00000  Uiso   1.00
C224   C     0.79893   0.15263   0.04708   0.00000  Uiso   1.00
C225   C     0.76401   0.13510   0.47750   0.00000  Uiso   1.00
C226   C     0.90200   0.20243   0.02288   0.00000  Uiso   1.00
Cu227  Cu    0.83333   0.21355   0.25000   0.00000  Uiso   1.00
Cu228  Cu    0.83333   0.11978   0.25000   0.00000  Uiso   1.00
H229   H     0.89167   0.19844   0.38796   0.00000  Uiso   1.00
H230   H     0.77471   0.13804   0.11214   0.00000  Uiso   1.00
H231   H     0.73711   0.12139   0.46052   0.00000  Uiso   1.00
H232   H     0.92945   0.21388   0.04010   0.00000  Uiso   1.00
H233   H     0.70427   0.09089   0.25008   0.00000  Uiso   1.00
H234   H     0.96226   0.24250   0.24422   0.00000  Uiso   1.00
H235   H     0.96307   0.09081   0.25098   0.00000  Uiso   1.00
H236   H     0.70356   0.24258   0.24373   0.00000  Uiso   1.00
H237   H     0.78734   0.04397   0.19951   0.00000  Uiso   1.00
H238   H     0.87941   0.28935   0.30042   0.00000  Uiso   1.00
H239   H     0.87942   0.04313   0.30040   0.00000  Uiso   1.00
H240   H     0.78738   0.29018   0.19948   0.00000  Uiso   1.00
N241   N     0.83333   0.28402   0.25000   0.00000  Uiso   1.00
N242   N     0.83333   0.04931   0.25000   0.00000  Uiso   1.00
O243   O     0.77321   0.20625   0.25000   0.00000  Uiso   1.00
O244   O     0.89345   0.12709   0.25001   0.00000  Uiso   1.00
O245   O     0.89345   0.20625   0.25001   0.00000  Uiso   1.00
O246   O     0.77321   0.12709   0.25000   0.00000  Uiso   1.00
O247   O     0.83332   0.20627   0.18513   0.00000  Uiso   1.00
O248   O     0.83334   0.12707   0.31487   0.00000  Uiso   1.00
O249   O     0.83334   0.20627   0.31487   0.00000  Uiso   1.00
O250   O     0.83332   0.12707   0.18513   0.00000  Uiso   1.00
O251   O     0.76442   0.13012   0.38425   0.00000  Uiso   1.00
C252   C     0.73972   0.16469   0.36277   0.00000  Uiso   1.00
H253   H     0.72311   0.14687   0.33528   0.00000  Uiso   1.00
H254   H     0.75771   0.19354   0.34759   0.00000  Uiso   1.00
C255   C     0.70755   0.18544   0.39392   0.00000  Uiso   1.00
H256   H     0.68931   0.15681   0.40908   0.00000  Uiso   1.00
H257   H     0.72315   0.20551   0.42085   0.00000  Uiso   1.00
C258   C     0.67837   0.21823   0.36840   0.00000  Uiso   1.00
H259   H     0.69586   0.24628   0.35136   0.00000  Uiso   1.00
H260   H     0.99013   0.23488   0.39178   0.00000  Uiso   1.00
H261   H     0.99356   0.19824   0.34336   0.00000  Uiso   1.00
O262   O     0.90333   0.20247   0.11652   0.00000  Uiso   1.00
C263   C     0.89726   0.24915   0.13136   0.00000  Uiso   1.00
H264   H     0.89767   0.24873   0.16830   0.00000  Uiso   1.00
H265   H     0.86759   0.26555   0.12000   0.00000  Uiso   1.00
C266   C     0.93271   0.28013   0.11621   0.00000  Uiso   1.00
H267   H     0.96252   0.26288   0.12483   0.00000  Uiso   1.00
H268   H     0.93073   0.28510   0.07960   0.00000  Uiso   1.00
C269   C     0.93121   0.32820   0.13836   0.00000  Uiso   1.00
H270   H     0.90173   0.01295   0.13005   0.00000  Uiso   1.00
H271   H     0.95699   0.01668   0.12624   0.00000  Uiso   1.00
H272   H     0.93425   0.32452   0.17509   0.00000  Uiso   1.00
O273   O     0.72687   0.13097   0.04652   0.00000  Uiso   1.00
C274   C     0.69846   0.16797   0.03763   0.00000  Uiso   1.00
H275   H     0.66712   0.15502   0.04515   0.00000  Uiso   1.00
H276   H     0.69723   0.17811   0.00176   0.00000  Uiso   1.00
C277   C     0.70707   0.21088   0.06732   0.00000  Uiso   1.00
H278   H     0.69321   0.20524   0.10052   0.00000  Uiso   1.00
H279   H     0.74056   0.21598   0.07244   0.00000  Uiso   1.00
C280   C     0.68994   0.25595   0.04660   0.00000  Uiso   1.00
H281   H     0.70607   0.26392   0.01512   0.00000  Uiso   1.00
H282   H     0.69464   0.28557   0.06997   0.00000  Uiso   1.00
H283   H     0.99000   0.25254   0.03937   0.00000  Uiso   1.00
O284   O     0.93389   0.22301   0.45370   0.00000  Uiso   1.00
C285   C     0.93500   0.27247   0.45816   0.00000  Uiso   1.00
H286   H     0.96763   0.28349   0.45564   0.00000  Uiso   1.00
H287   H     0.92431   0.28520   0.49114   0.00000  Uiso   1.00
C288   C     0.91012   0.29616   0.42055   0.00000  Uiso   1.00
H289   H     0.92129   0.28362   0.38786   0.00000  Uiso   1.00
H290   H     0.87713   0.28672   0.42342   0.00000  Uiso   1.00
C291   C     0.91395   0.01610   0.42234   0.00000  Uiso   1.00
H292   H     0.90225   0.02955   0.45445   0.00000  Uiso   1.00
H293   H     0.89554   0.03209   0.39477   0.00000  Uiso   1.00
H294   H     0.94659   0.02664   0.41862   0.00000  Uiso   1.00
C295   C     0.08734   0.50008   0.24872   0.00000  Uiso   1.00
C296   C     0.24599   0.49995   0.24950   0.00000  Uiso   1.00
C297   C     0.09638   0.47261   0.02384   0.00000  Uiso   1.00
C298   C     0.23398   0.53840   0.47642   0.00000  Uiso   1.00
C299   C     0.02144   0.45749   0.24866   0.00000  Uiso   1.00
C300   C     0.31179   0.54257   0.24553   0.00000  Uiso   1.00
C301   C     0.31223   0.45743   0.24926   0.00000  Uiso   1.00
C302   C     0.02103   0.54263   0.24514   0.00000  Uiso   1.00
C303   C     0.29057   0.49997   0.24811   0.00000  Uiso   1.00
C304   C     0.04270   0.50011   0.24716   0.00000  Uiso   1.00
C305   C     0.14114   0.35838   0.22195   0.00000  Uiso   1.00
C306   C     0.19226   0.64161   0.27799   0.00000  Uiso   1.00
C307   C     0.19227   0.35791   0.27799   0.00000  Uiso   1.00
C308   C     0.14115   0.64208   0.22193   0.00000  Uiso   1.00
C309   C     0.16793   0.50018   0.16452   0.00000  Uiso   1.00
C310   C     0.16655   0.49993   0.33556   0.00000  Uiso   1.00
C311   C     0.19909   0.51887   0.40669   0.00000  Uiso   1.00
C312   C     0.13393   0.48453   0.09348   0.00000  Uiso   1.00
C313   C     0.16536   0.50029   0.38377   0.00000  Uiso   1.00
C314   C     0.16844   0.50103   0.11641   0.00000  Uiso   1.00
C315   C     0.13072   0.48375   0.40673   0.00000  Uiso   1.00
C316   C     0.20209   0.51997   0.09354   0.00000  Uiso   1.00
C317   C     0.13138   0.48412   0.45349   0.00000  Uiso   1.00
C318   C     0.20169   0.51916   0.04678   0.00000  Uiso   1.00
C319   C     0.16601   0.50210   0.47668   0.00000  Uiso   1.00
C320   C     0.16672   0.50222   0.02352   0.00000  Uiso   1.00
C321   C     0.19992   0.51989   0.45312   0.00000  Uiso   1.00
C322   C     0.13226   0.48596   0.04708   0.00000  Uiso   1.00
C323   C     0.09734   0.46843   0.47750   0.00000  Uiso   1.00
C324   C     0.23533   0.53576   0.02288   0.00000  Uiso   1.00
Cu325  Cu    0.16667   0.54689   0.25000   0.00000  Uiso   1.00
Cu326  Cu    0.16667   0.45311   0.25000   0.00000  Uiso   1.00
H327   H     0.22501   0.53178   0.38796   0.00000  Uiso   1.00
H328   H     0.10804   0.47137   0.11214   0.00000  Uiso   1.00
H329   H     0.07045   0.45472   0.46052   0.00000  Uiso   1.00
H330   H     0.26278   0.54722   0.04010   0.00000  Uiso   1.00
H331   H     0.03761   0.42422   0.25008   0.00000  Uiso   1.00
H332   H     0.29559   0.57583   0.24422   0.00000  Uiso   1.00
H333   H     0.29640   0.42414   0.25098   0.00000  Uiso   1.00
H334   H     0.03689   0.57591   0.24373   0.00000  Uiso   1.00
H335   H     0.12067   0.37730   0.19951   0.00000  Uiso   1.00
H336   H     0.21274   0.62269   0.30042   0.00000  Uiso   1.00
H337   H     0.21275   0.37646   0.30040   0.00000  Uiso   1.00
H338   H     0.12072   0.62352   0.19948   0.00000  Uiso   1.00
N339   N     0.16667   0.61736   0.25000   0.00000  Uiso   1.00
N340   N     0.16667   0.38264   0.25000   0.00000  Uiso   1.00
O341   O     0.10655   0.53958   0.25000   0.00000  Uiso   1.00
O342   O     0.22679   0.46042   0.25001   0.00000  Uiso   1.00
O343   O     0.22679   0.53958   0.25001   0.00000  Uiso   1.00
O344   O     0.10655   0.46042   0.25000   0.00000  Uiso   1.00
O345   O     0.16666   0.53960   0.18513   0.00000  Uiso   1.00
O346   O     0.16668   0.46040   0.31487   0.00000  Uiso   1.00
O347   O     0.16668   0.53960   0.31487   0.00000  Uiso   1.00
O348   O     0.16666   0.46040   0.18513   0.00000  Uiso   1.00
O349   O     0.09775   0.46345   0.38425   0.00000  Uiso   1.00
C350   C     0.07305   0.49802   0.36277   0.00000  Uiso   1.00
H351   H     0.05644   0.48020   0.33528   0.00000  Uiso   1.00
H352   H     0.09104   0.52687   0.34759   0.00000  Uiso   1.00
C353   C     0.04088   0.51877   0.39392   0.00000  Uiso   1.00
H354   H     0.02265   0.49014   0.40908   0.00000  Uiso   1.00
H355   H     0.05648   0.53885   0.42085   0.00000  Uiso   1.00
C356   C     0.01170   0.55157   0.36840   0.00000  Uiso   1.00
H357   H     0.02919   0.57962   0.35136   0.00000  Uiso   1.00
H358   H     0.32346   0.56821   0.39178   0.00000  Uiso   1.00
H359   H     0.32689   0.53157   0.34336   0.00000  Uiso   1.00
O360   O     0.23666   0.53581   0.11652   0.00000  Uiso   1.00
C361   C     0.23059   0.58249   0.13136   0.00000  Uiso   1.00
H362   H     0.23100   0.58207   0.16830   0.00000  Uiso   1.00
H363   H     0.20092   0.59888   0.12000   0.00000  Uiso   1.00
C364   C     0.26605   0.61346   0.11621   0.00000  Uiso   1.00
H365   H     0.29585   0.59621   0.12483   0.00000  Uiso   1.00
H366   H     0.26406   0.61843   0.07960   0.00000  Uiso   1.00
C367   C     0.26454   0.66153   0.13836   0.00000  Uiso   1.00
H368   H     0.23506   0.34628   0.13005   0.00000  Uiso   1.00
H369   H     0.29032   0.35002   0.12624   0.00000  Uiso   1.00
H370   H     0.26758   0.65785   0.17509   0.00000  Uiso   1.00
O371   O     0.06020   0.46430   0.04652   0.00000  Uiso   1.00
C372   C     0.03179   0.50130   0.03763   0.00000  Uiso   1.00
H373   H     0.00045   0.48836   0.04515   0.00000  Uiso   1.00
H374   H     0.03057   0.51144   0.00176   0.00000  Uiso   1.00
C375   C     0.04041   0.54422   0.06732   0.00000  Uiso   1.00
H376   H     0.02654   0.53858   0.10052   0.00000  Uiso   1.00
H377   H     0.07390   0.54932   0.07244   0.00000  Uiso   1.00
C378   C     0.02327   0.58928   0.04660   0.00000  Uiso   1.00
H379   H     0.03941   0.59726   0.01512   0.00000  Uiso   1.00
H380   H     0.02798   0.61891   0.06997   0.00000  Uiso   1.00
H381   H     0.32334   0.58588   0.03937   0.00000  Uiso   1.00
O382   O     0.26722   0.55634   0.45370   0.00000  Uiso   1.00
C383   C     0.26834   0.60580   0.45816   0.00000  Uiso   1.00
H384   H     0.30096   0.61683   0.45564   0.00000  Uiso   1.00
H385   H     0.25764   0.61853   0.49114   0.00000  Uiso   1.00
C386   C     0.24345   0.62949   0.42055   0.00000  Uiso   1.00
H387   H     0.25463   0.61695   0.38786   0.00000  Uiso   1.00
H388   H     0.21046   0.62006   0.42342   0.00000  Uiso   1.00
C389   C     0.24729   0.34943   0.42234   0.00000  Uiso   1.00
H390   H     0.23558   0.36289   0.45445   0.00000  Uiso   1.00
H391   H     0.22887   0.36542   0.39477   0.00000  Uiso   1.00
H392   H     0.27992   0.35998   0.41862   0.00000  Uiso   1.00
C393   C     0.42068   0.50008   0.24872   0.00000  Uiso   1.00
C394   C     0.57932   0.49995   0.24950   0.00000  Uiso   1.00
C395   C     0.42972   0.47261   0.02384   0.00000  Uiso   1.00
C396   C     0.56731   0.53840   0.47642   0.00000  Uiso   1.00
C397   C     0.35477   0.45749   0.24866   0.00000  Uiso   1.00
C398   C     0.64512   0.54257   0.24553   0.00000  Uiso   1.00
C399   C     0.64556   0.45743   0.24926   0.00000  Uiso   1.00
C400   C     0.35437   0.54263   0.24514   0.00000  Uiso   1.00
C401   C     0.62390   0.49997   0.24811   0.00000  Uiso   1.00
C402   C     0.37603   0.50011   0.24716   0.00000  Uiso   1.00
C403   C     0.47447   0.35838   0.22195   0.00000  Uiso   1.00
C404   C     0.52560   0.64161   0.27799   0.00000  Uiso   1.00
C405   C     0.52560   0.35791   0.27799   0.00000  Uiso   1.00
C406   C     0.47449   0.64208   0.22193   0.00000  Uiso   1.00
C407   C     0.50127   0.50018   0.16452   0.00000  Uiso   1.00
C408   C     0.49989   0.49993   0.33556   0.00000  Uiso   1.00
C409   C     0.53242   0.51887   0.40669   0.00000  Uiso   1.00
C410   C     0.46726   0.48453   0.09348   0.00000  Uiso   1.00
C411   C     0.49870   0.50029   0.38377   0.00000  Uiso   1.00
C412   C     0.50178   0.50103   0.11641   0.00000  Uiso   1.00
C413   C     0.46405   0.48375   0.40673   0.00000  Uiso   1.00
C414   C     0.53542   0.51997   0.09354   0.00000  Uiso   1.00
C415   C     0.46471   0.48412   0.45349   0.00000  Uiso   1.00
C416   C     0.53502   0.51916   0.04678   0.00000  Uiso   1.00
C417   C     0.49934   0.50210   0.47668   0.00000  Uiso   1.00
C418   C     0.50006   0.50222   0.02352   0.00000  Uiso   1.00
C419   C     0.53326   0.51989   0.45312   0.00000  Uiso   1.00
C420   C     0.46559   0.48596   0.04708   0.00000  Uiso   1.00
C421   C     0.43067   0.46843   0.47750   0.00000  Uiso   1.00
C422   C     0.56867   0.53576   0.02288   0.00000  Uiso   1.00
Cu423  Cu    0.50000   0.54689   0.25000   0.00000  Uiso   1.00
Cu424  Cu    0.50000   0.45311   0.25000   0.00000  Uiso   1.00
H425   H     0.55834   0.53178   0.38796   0.00000  Uiso   1.00
H426   H     0.44138   0.47137   0.11214   0.00000  Uiso   1.00
H427   H     0.40378   0.45472   0.46052   0.00000  Uiso   1.00
H428   H     0.59612   0.54722   0.04010   0.00000  Uiso   1.00
H429   H     0.37094   0.42422   0.25008   0.00000  Uiso   1.00
H430   H     0.62893   0.57583   0.24422   0.00000  Uiso   1.00
H431   H     0.62974   0.42414   0.25098   0.00000  Uiso   1.00
H432   H     0.37023   0.57591   0.24373   0.00000  Uiso   1.00
H433   H     0.45401   0.37730   0.19951   0.00000  Uiso   1.00
H434   H     0.54608   0.62269   0.30042   0.00000  Uiso   1.00
H435   H     0.54609   0.37646   0.30040   0.00000  Uiso   1.00
H436   H     0.45405   0.62352   0.19948   0.00000  Uiso   1.00
N437   N     0.50000   0.61736   0.25000   0.00000  Uiso   1.00
N438   N     0.50000   0.38264   0.25000   0.00000  Uiso   1.00
O439   O     0.43988   0.53958   0.25000   0.00000  Uiso   1.00
O440   O     0.56012   0.46042   0.25001   0.00000  Uiso   1.00
O441   O     0.56012   0.53958   0.25001   0.00000  Uiso   1.00
O442   O     0.43988   0.46042   0.25000   0.00000  Uiso   1.00
O443   O     0.49999   0.53960   0.18513   0.00000  Uiso   1.00
O444   O     0.50001   0.46040   0.31487   0.00000  Uiso   1.00
O445   O     0.50001   0.53960   0.31487   0.00000  Uiso   1.00
O446   O     0.49999   0.46040   0.18513   0.00000  Uiso   1.00
O447   O     0.43109   0.46345   0.38425   0.00000  Uiso   1.00
C448   C     0.40639   0.49802   0.36277   0.00000  Uiso   1.00
H449   H     0.38978   0.48020   0.33528   0.00000  Uiso   1.00
H450   H     0.42437   0.52687   0.34759   0.00000  Uiso   1.00
C451   C     0.37422   0.51877   0.39392   0.00000  Uiso   1.00
H452   H     0.35598   0.49014   0.40908   0.00000  Uiso   1.00
H453   H     0.38982   0.53885   0.42085   0.00000  Uiso   1.00
C454   C     0.34504   0.55157   0.36840   0.00000  Uiso   1.00
H455   H     0.36252   0.57962   0.35136   0.00000  Uiso   1.00
H456   H     0.65679   0.56821   0.39178   0.00000  Uiso   1.00
H457   H     0.66023   0.53157   0.34336   0.00000  Uiso   1.00
O458   O     0.57000   0.53581   0.11652   0.00000  Uiso   1.00
C459   C     0.56393   0.58249   0.13136   0.00000  Uiso   1.00
H460   H     0.56433   0.58207   0.16830   0.00000  Uiso   1.00
H461   H     0.53426   0.59888   0.12000   0.00000  Uiso   1.00
C462   C     0.59938   0.61346   0.11621   0.00000  Uiso   1.00
H463   H     0.62918   0.59621   0.12483   0.00000  Uiso   1.00
H464   H     0.59739   0.61843   0.07960   0.00000  Uiso   1.00
C465   C     0.59788   0.66153   0.13836   0.00000  Uiso   1.00
H466   H     0.56840   0.34628   0.13005   0.00000  Uiso   1.00
H467   H     0.62366   0.35002   0.12624   0.00000  Uiso   1.00
H468   H     0.60092   0.65785   0.17509   0.00000  Uiso   1.00
O469   O     0.39354   0.46430   0.04652   0.00000  Uiso   1.00
C470   C     0.36513   0.50130   0.03763   0.00000  Uiso   1.00
H471   H     0.33378   0.48836   0.04515   0.00000  Uiso   1.00
H472   H     0.36390   0.51144   0.00176   0.00000  Uiso   1.00
C473   C     0.37374   0.54422   0.06732   0.00000  Uiso   1.00
H474   H     0.35988   0.53858   0.10052   0.00000  Uiso   1.00
H475   H     0.40723   0.54932   0.07244   0.00000  Uiso   1.00
C476   C     0.35661   0.58928   0.04660   0.00000  Uiso   1.00
H477   H     0.37274   0.59726   0.01512   0.00000  Uiso   1.00
H478   H     0.36131   0.61891   0.06997   0.00000  Uiso   1.00
H479   H     0.65667   0.58588   0.03937   0.00000  Uiso   1.00
O480   O     0.60056   0.55634   0.45370   0.00000  Uiso   1.00
C481   C     0.60167   0.60580   0.45816   0.00000  Uiso   1.00
H482   H     0.63429   0.61683   0.45564   0.00000  Uiso   1.00
H483   H     0.59097   0.61853   0.49114   0.00000  Uiso   1.00
C484   C     0.57678   0.62949   0.42055   0.00000  Uiso   1.00
H485   H     0.58796   0.61695   0.38786   0.00000  Uiso   1.00
H486   H     0.54380   0.62006   0.42342   0.00000  Uiso   1.00
C487   C     0.58062   0.34943   0.42234   0.00000  Uiso   1.00
H488   H     0.56891   0.36289   0.45445   0.00000  Uiso   1.00
H489   H     0.56220   0.36542   0.39477   0.00000  Uiso   1.00
H490   H     0.61325   0.35998   0.41862   0.00000  Uiso   1.00
C491   C     0.75401   0.50008   0.24872   0.00000  Uiso   1.00
C492   C     0.91265   0.49995   0.24950   0.00000  Uiso   1.00
C493   C     0.76305   0.47261   0.02384   0.00000  Uiso   1.00
C494   C     0.90064   0.53840   0.47642   0.00000  Uiso   1.00
C495   C     0.68810   0.45749   0.24866   0.00000  Uiso   1.00
C496   C     0.97846   0.54257   0.24553   0.00000  Uiso   1.00
C497   C     0.97890   0.45743   0.24926   0.00000  Uiso   1.00
C498   C     0.68770   0.54263   0.24514   0.00000  Uiso   1.00
C499   C     0.95724   0.49997   0.24811   0.00000  Uiso   1.00
C500   C     0.70937   0.50011   0.24716   0.00000  Uiso   1.00
C501   C     0.80780   0.35838   0.22195   0.00000  Uiso   1.00
C502   C     0.85893   0.64161   0.27799   0.00000  Uiso   1.00
C503   C     0.85893   0.35791   0.27799   0.00000  Uiso   1.00
C504   C     0.80782   0.64208   0.22193   0.00000  Uiso   1.00
C505   C     0.83460   0.50018   0.16452   0.00000  Uiso   1.00
C506   C     0.83322   0.49993   0.33556   0.00000  Uiso   1.00
C507   C     0.86575   0.51887   0.40669   0.00000  Uiso   1.00
C508   C     0.80059   0.48453   0.09348   0.00000  Uiso   1.00
C509   C     0.83203   0.50029   0.38377   0.00000  Uiso   1.00
C510   C     0.83511   0.50103   0.11641   0.00000  Uiso   1.00
C511   C     0.79739   0.48375   0.40673   0.00000  Uiso   1.00
C512   C     0.86876   0.51997   0.09354   0.00000  Uiso   1.00
C513   C     0.79804   0.48412   0.45349   0.00000  Uiso   1.00
C514   C     0.86836   0.51916   0.04678   0.00000  Uiso   1.00
C515   C     0.83268   0.50210   0.47668   0.00000  Uiso   1.00
C516   C     0.83339   0.50222   0.02352   0.00000  Uiso   1.00
C517   C     0.86659   0.51989   0.45312   0.00000  Uiso   1.00
C518   C     0.79893   0.48596   0.04708   0.00000  Uiso   1.00
C519   C     0.76401   0.46843   0.47750   0.00000  Uiso   1.00
C520   C     0.90200   0.53576   0.02288   0.00000  Uiso   1.00
Cu521  Cu    0.83333   0.54689   0.25000   0.00000  Uiso   1.00
Cu522  Cu    0.83333   0.45311   0.25000   0.00000  Uiso   1.00
H523   H     0.89167   0.53178   0.38796   0.00000  Uiso   1.00
H524   H     0.77471   0.47137   0.11214   0.00000  Uiso   1.00
H525   H     0.73711   0.45472   0.46052   0.00000  Uiso   1.00
H526   H     0.92945   0.54722   0.04010   0.00000  Uiso   1.00
H527   H     0.70427   0.42422   0.25008   0.00000  Uiso   1.00
H528   H     0.96226   0.57583   0.24422   0.00000  Uiso   1.00
H529   H     0.96307   0.42414   0.25098   0.00000  Uiso   1.00
H530   H     0.70356   0.57591   0.24373   0.00000  Uiso   1.00
H531   H     0.78734   0.37730   0.19951   0.00000  Uiso   1.00
H532   H     0.87941   0.62269   0.30042   0.00000  Uiso   1.00
H533   H     0.87942   0.37646   0.30040   0.00000  Uiso   1.00
H534   H     0.78738   0.62352   0.19948   0.00000  Uiso   1.00
N535   N     0.83333   0.61736   0.25000   0.00000  Uiso   1.00
N536   N     0.83333   0.38264   0.25000   0.00000  Uiso   1.00
O537   O     0.77321   0.53958   0.25000   0.00000  Uiso   1.00
O538   O     0.89345   0.46042   0.25001   0.00000  Uiso   1.00
O539   O     0.89345   0.53958   0.25001   0.00000  Uiso   1.00
O540   O     0.77321   0.46042   0.25000   0.00000  Uiso   1.00
O541   O     0.83332   0.53960   0.18513   0.00000  Uiso   1.00
O542   O     0.83334   0.46040   0.31487   0.00000  Uiso   1.00
O543   O     0.83334   0.53960   0.31487   0.00000  Uiso   1.00
O544   O     0.83332   0.46040   0.18513   0.00000  Uiso   1.00
O545   O     0.76442   0.46345   0.38425   0.00000  Uiso   1.00
C546   C     0.73972   0.49802   0.36277   0.00000  Uiso   1.00
H547   H     0.72311   0.48020   0.33528   0.00000  Uiso   1.00
H548   H     0.75771   0.52687   0.34759   0.00000  Uiso   1.00
C549   C     0.70755   0.51877   0.39392   0.00000  Uiso   1.00
H550   H     0.68931   0.49014   0.40908   0.00000  Uiso   1.00
H551   H     0.72315   0.53885   0.42085   0.00000  Uiso   1.00
C552   C     0.67837   0.55157   0.36840   0.00000  Uiso   1.00
H553   H     0.69586   0.57962   0.35136   0.00000  Uiso   1.00
H554   H     0.99013   0.56821   0.39178   0.00000  Uiso   1.00
H555   H     0.99356   0.53157   0.34336   0.00000  Uiso   1.00
O556   O     0.90333   0.53581   0.11652   0.00000  Uiso   1.00
C557   C     0.89726   0.58249   0.13136   0.00000  Uiso   1.00
H558   H     0.89767   0.58207   0.16830   0.00000  Uiso   1.00
H559   H     0.86759   0.59888   0.12000   0.00000  Uiso   1.00
C560   C     0.93271   0.61346   0.11621   0.00000  Uiso   1.00
H561   H     0.96252   0.59621   0.12483   0.00000  Uiso   1.00
H562   H     0.93073   0.61843   0.07960   0.00000  Uiso   1.00
C563   C     0.93121   0.66153   0.13836   0.00000  Uiso   1.00
H564   H     0.90173   0.34628   0.13005   0.00000  Uiso   1.00
H565   H     0.95699   0.35002   0.12624   0.00000  Uiso   1.00
H566   H     0.93425   0.65785   0.17509   0.00000  Uiso   1.00
O567   O     0.72687   0.46430   0.04652   0.00000  Uiso   1.00
C568   C     0.69846   0.50130   0.03763   0.00000  Uiso   1.00
H569   H     0.66712   0.48836   0.04515   0.00000  Uiso   1.00
H570   H     0.69723   0.51144   0.00176   0.00000  Uiso   1.00
C571   C     0.70707   0.54422   0.06732   0.00000  Uiso   1.00
H572   H     0.69321   0.53858   0.10052   0.00000  Uiso   1.00
H573   H     0.74056   0.54932   0.07244   0.00000  Uiso   1.00
C574   C     0.68994   0.58928   0.04660   0.00000  Uiso   1.00
H575   H     0.70607   0.59726   0.01512   0.00000  Uiso   1.00
H576   H     0.69464   0.61891   0.06997   0.00000  Uiso   1.00
H577   H     0.99000   0.58588   0.03937   0.00000  Uiso   1.00
O578   O     0.93389   0.55634   0.45370   0.00000  Uiso   1.00
C579   C     0.93500   0.60580   0.45816   0.00000  Uiso   1.00
H580   H     0.96763   0.61683   0.45564   0.00000  Uiso   1.00
H581   H     0.92431   0.61853   0.49114   0.00000  Uiso   1.00
C582   C     0.91012   0.62949   0.42055   0.00000  Uiso   1.00
H583   H     0.92129   0.61695   0.38786   0.00000  Uiso   1.00
H584   H     0.87713   0.62006   0.42342   0.00000  Uiso   1.00
C585   C     0.91395   0.34943   0.42234   0.00000  Uiso   1.00
H586   H     0.90225   0.36289   0.45445   0.00000  Uiso   1.00
H587   H     0.89554   0.36542   0.39477   0.00000  Uiso   1.00
H588   H     0.94659   0.35998   0.41862   0.00000  Uiso   1.00
C589   C     0.08734   0.83341   0.24872   0.00000  Uiso   1.00
C590   C     0.24599   0.83329   0.24950   0.00000  Uiso   1.00
C591   C     0.09638   0.80594   0.02384   0.00000  Uiso   1.00
C592   C     0.23398   0.87173   0.47642   0.00000  Uiso   1.00
C593   C     0.02144   0.79083   0.24866   0.00000  Uiso   1.00
C594   C     0.31179   0.87590   0.24553   0.00000  Uiso   1.00
C595   C     0.31223   0.79077   0.24926   0.00000  Uiso   1.00
C596   C     0.02103   0.87597   0.24514   0.00000  Uiso   1.00
C597   C     0.29057   0.83330   0.24811   0.00000  Uiso   1.00
C598   C     0.04270   0.83344   0.24716   0.00000  Uiso   1.00
C599   C     0.14114   0.69171   0.22195   0.00000  Uiso   1.00
C600   C     0.19226   0.97494   0.27799   0.00000  Uiso   1.00
C601   C     0.19227   0.69125   0.27799   0.00000  Uiso   1.00
C602   C     0.14115   0.97541   0.22193   0.00000  Uiso   1.00
C603   C     0.16793   0.83352   0.16452   0.00000  Uiso   1.00
C604   C     0.16655   0.83326   0.33556   0.00000  Uiso   1.00
C605   C     0.19909   0.85221   0.40669   0.00000  Uiso   1.00
C606   C     0.13393   0.81786   0.09348   0.00000  Uiso   1.00
C607   C     0.16536   0.83362   0.38377   0.00000  Uiso   1.00
C608   C     0.16844   0.83437   0.11641   0.00000  Uiso   1.00
C609   C     0.13072   0.81708   0.40673   0.00000  Uiso   1.00
C610   C     0.20209   0.85330   0.09354   0.00000  Uiso   1.00
C611   C     0.13138   0.81745   0.45349   0.00000  Uiso   1.00
C612   C     0.20169   0.85250   0.04678   0.00000  Uiso   1.00
C613   C     0.16601   0.83543   0.47668   0.00000  Uiso   1.00
C614   C     0.16672   0.83556   0.02352   0.00000  Uiso   1.00
C615   C     0.19992   0.85322   0.45312   0.00000  Uiso   1.00
C616   C     0.13226   0.81929   0.04708   0.00000  Uiso   1.00
C617   C     0.09734   0.80177   0.47750   0.00000  Uiso   1.00
C618   C     0.23533   0.86910   0.02288   0.00000  Uiso   1.00
Cu619  Cu    0.16667   0.88022   0.25000   0.00000  Uiso   1.00
Cu620  Cu    0.16667   0.78645   0.25000   0.00000  Uiso   1.00
H621   H     0.22501   0.86511   0.38796   0.00000  Uiso   1.00
H622   H     0.10804   0.80470   0.11214   0.00000  Uiso   1.00
H623   H     0.07045   0.78806   0.46052   0.00000  Uiso   1.00
H624   H     0.26278   0.88055   0.04010   0.00000  Uiso   1.00
H625   H     0.03761   0.75755   0.25008   0.00000  Uiso   1.00
H626   H     0.29559   0.90917   0.24422   0.00000  Uiso   1.00
H627   H     0.29640   0.75747   0.25098   0.00000  Uiso   1.00
H628   H     0.03689   0.90925   0.24373   0.00000  Uiso   1.00
H629   H     0.12067   0.71064   0.19951   0.00000  Uiso   1.00
H630   H     0.21274   0.95602   0.30042   0.00000  Uiso   1.00
H631   H     0.21275   0.70979   0.30040   0.00000  Uiso   1.00
H632   H     0.12072   0.95685   0.19948   0.00000  Uiso   1.00
N633   N     0.16667   0.95069   0.25000   0.00000  Uiso   1.00
N634   N     0.16667   0.71598   0.25000   0.00000  Uiso   1.00
O635   O     0.10655   0.87291   0.25000   0.00000  Uiso   1.00
O636   O     0.22679   0.79375   0.25001   0.00000  Uiso   1.00
O637   O     0.22679   0.87291   0.25001   0.00000  Uiso   1.00
O638   O     0.10655   0.79375   0.25000   0.00000  Uiso   1.00
O639   O     0.16666   0.87293   0.18513   0.00000  Uiso   1.00
O640   O     0.16668   0.79373   0.31487   0.00000  Uiso   1.00
O641   O     0.16668   0.87293   0.31487   0.00000  Uiso   1.00
O642   O     0.16666   0.79373   0.18513   0.00000  Uiso   1.00
O643   O     0.09775   0.79679   0.38425   0.00000  Uiso   1.00
C644   C     0.07305   0.83135   0.36277   0.00000  Uiso   1.00
H645   H     0.05644   0.81353   0.33528   0.00000  Uiso   1.00
H646   H     0.09104   0.86021   0.34759   0.00000  Uiso   1.00
C647   C     0.04088   0.85210   0.39392   0.00000  Uiso   1.00
H648   H     0.02265   0.82347   0.40908   0.00000  Uiso   1.00
H649   H     0.05648   0.87218   0.42085   0.00000  Uiso   1.00
C650   C     0.01170   0.88490   0.36840   0.00000  Uiso   1.00
H651   H     0.02919   0.91295   0.35136   0.00000  Uiso   1.00
H652   H     0.32346   0.90155   0.39178   0.00000  Uiso   1.00
H653   H     0.32689   0.86490   0.34336   0.00000  Uiso   1.00
O654   O     0.23666   0.86914   0.11652   0.00000  Uiso   1.00
C655   C     0.23059   0.91582   0.13136   0.00000  Uiso   1.00
H656   H     0.23100   0.91540   0.16830   0.00000  Uiso   1.00
H657   H     0.20092   0.93222   0.12000   0.00000  Uiso   1.00
C658   C     0.26605   0.94680   0.11621   0.00000  Uiso   1.00
H659   H     0.29585   0.92955   0.12483   0.00000  Uiso   1.00
H660   H     0.26406   0.95176   0.07960   0.00000  Uiso   1.00
C661   C     0.26454   0.99487   0.13836   0.00000  Uiso   1.00
H662   H     0.23506   0.67961   0.13005   0.00000  Uiso   1.00
H663   H     0.29032   0.68335   0.12624   0.00000  Uiso   1.00
H664   H     0.26758   0.99119   0.17509   0.00000  Uiso   1.00
O665   O     0.06020   0.79763   0.04652   0.00000  Uiso   1.00
C666   C     0.03179   0.83463   0.03763   0.00000  Uiso   1.00
H667   H     0.00045   0.82169   0.04515   0.00000  Uiso   1.00
H668   H     0.03057   0.84477   0.00176   0.00000  Uiso   1.00
C669   C     0.04041   0.87755   0.06732   0.00000  Uiso   1.00
H670   H     0.02654   0.87191   0.10052   0.00000  Uiso   1.00
H671   H     0.07390   0.88265   0.07244   0.00000  Uiso   1.00
C672   C     0.02327   0.92261   0.04660   0.00000  Uiso   1.00
H673   H     0.03941   0.93059   0.01512   0.00000  Uiso   1.00
H674   H     0.02798   0.95224   0.06997   0.00000  Uiso   1.00
H675   H     0.32334   0.91921   0.03937   0.00000  Uiso   1.00
O676   O     0.26722   0.88967   0.45370   0.00000  Uiso   1.00
C677   C     0.26834   0.93914   0.45816   0.00000  Uiso   1.00
H678   H     0.30096   0.95016   0.45564   0.00000  Uiso   1.00
H679   H     0.25764   0.95186   0.49114   0.00000  Uiso   1.00
C680   C     0.24345   0.96283   0.42055   0.00000  Uiso   1.00
H681   H     0.25463   0.95029   0.38786   0.00000  Uiso   1.00
H682   H     0.21046   0.95339   0.42342   0.00000  Uiso   1.00
C683   C     0.24729   0.68277   0.42234   0.00000  Uiso   1.00
H684   H     0.23558   0.69622   0.45445   0.00000  Uiso   1.00
H685   H     0.22887   0.69875   0.39477   0.00000  Uiso   1.00
H686   H     0.27992   0.69331   0.41862   0.00000  Uiso   1.00
C687   C     0.42068   0.83341   0.24872   0.00000  Uiso   1.00
C688   C     0.57932   0.83329   0.24950   0.00000  Uiso   1.00
C689   C     0.42972   0.80594   0.02384   0.00000  Uiso   1.00
C690   C     0.56731   0.87173   0.47642   0.00000  Uiso   1.00
C691   C     0.35477   0.79083   0.24866   0.00000  Uiso   1.00
C692   C     0.64512   0.87590   0.24553   0.00000  Uiso   1.00
C693   C     0.64556   0.79077   0.24926   0.00000  Uiso   1.00
C694   C     0.35437   0.87597   0.24514   0.00000  Uiso   1.00
C695   C     0.62390   0.83330   0.24811   0.00000  Uiso   1.00
C696   C     0.37603   0.83344   0.24716   0.00000  Uiso   1.00
C697   C     0.47447   0.69171   0.22195   0.00000  Uiso   1.00
C698   C     0.52560   0.97494   0.27799   0.00000  Uiso   1.00
C699   C     0.52560   0.69125   0.27799   0.00000  Uiso   1.00
C700   C     0.47449   0.97541   0.22193   0.00000  Uiso   1.00
C701   C     0.50127   0.83352   0.16452   0.00000  Uiso   1.00
C702   C     0.49989   0.83326   0.33556   0.00000  Uiso   1.00
C703   C     0.53242   0.85221   0.40669   0.00000  Uiso   1.00
C704   C     0.46726   0.81786   0.09348   0.00000  Uiso   1.00
C705   C     0.49870   0.83362   0.38377   0.00000  Uiso   1.00
C706   C     0.50178   0.83437   0.11641   0.00000  Uiso   1.00
C707   C     0.46405   0.81708   0.40673   0.00000  Uiso   1.00
C708   C     0.53542   0.85330   0.09354   0.00000  Uiso   1.00
C709   C     0.46471   0.81745   0.45349   0.00000  Uiso   1.00
C710   C     0.53502   0.85250   0.04678   0.00000  Uiso   1.00
C711   C     0.49934   0.83543   0.47668   0.00000  Uiso   1.00
C712   C     0.50006   0.83556   0.02352   0.00000  Uiso   1.00
C713   C     0.53326   0.85322   0.45312   0.00000  Uiso   1.00
C714   C     0.46559   0.81929   0.04708   0.00000  Uiso   1.00
C715   C     0.43067   0.80177   0.47750   0.00000  Uiso   1.00
C716   C     0.56867   0.86910   0.02288   0.00000  Uiso   1.00
Cu717  Cu    0.50000   0.88022   0.25000   0.00000  Uiso   1.00
Cu718  Cu    0.50000   0.78645   0.25000   0.00000  Uiso   1.00
H719   H     0.55834   0.86511   0.38796   0.00000  Uiso   1.00
H720   H     0.44138   0.80470   0.11214   0.00000  Uiso   1.00
H721   H     0.40378   0.78806   0.46052   0.00000  Uiso   1.00
H722   H     0.59612   0.88055   0.04010   0.00000  Uiso   1.00
H723   H     0.37094   0.75755   0.25008   0.00000  Uiso   1.00
H724   H     0.62893   0.90917   0.24422   0.00000  Uiso   1.00
H725   H     0.62974   0.75747   0.25098   0.00000  Uiso   1.00
H726   H     0.37023   0.90925   0.24373   0.00000  Uiso   1.00
H727   H     0.45401   0.71064   0.19951   0.00000  Uiso   1.00
H728   H     0.54608   0.95602   0.30042   0.00000  Uiso   1.00
H729   H     0.54609   0.70979   0.30040   0.00000  Uiso   1.00
H730   H     0.45405   0.95685   0.19948   0.00000  Uiso   1.00
N731   N     0.50000   0.95069   0.25000   0.00000  Uiso   1.00
N732   N     0.50000   0.71598   0.25000   0.00000  Uiso   1.00
O733   O     0.43988   0.87291   0.25000   0.00000  Uiso   1.00
O734   O     0.56012   0.79375   0.25001   0.00000  Uiso   1.00
O735   O     0.56012   0.87291   0.25001   0.00000  Uiso   1.00
O736   O     0.43988   0.79375   0.25000   0.00000  Uiso   1.00
O737   O     0.49999   0.87293   0.18513   0.00000  Uiso   1.00
O738   O     0.50001   0.79373   0.31487   0.00000  Uiso   1.00
O739   O     0.50001   0.87293   0.31487   0.00000  Uiso   1.00
O740   O     0.49999   0.79373   0.18513   0.00000  Uiso   1.00
O741   O     0.43109   0.79679   0.38425   0.00000  Uiso   1.00
C742   C     0.40639   0.83135   0.36277   0.00000  Uiso   1.00
H743   H     0.38978   0.81353   0.33528   0.00000  Uiso   1.00
H744   H     0.42437   0.86021   0.34759   0.00000  Uiso   1.00
C745   C     0.37422   0.85210   0.39392   0.00000  Uiso   1.00
H746   H     0.35598   0.82347   0.40908   0.00000  Uiso   1.00
H747   H     0.38982   0.87218   0.42085   0.00000  Uiso   1.00
C748   C     0.34504   0.88490   0.36840   0.00000  Uiso   1.00
H749   H     0.36252   0.91295   0.35136   0.00000  Uiso   1.00
H750   H     0.65679   0.90155   0.39178   0.00000  Uiso   1.00
H751   H     0.66023   0.86490   0.34336   0.00000  Uiso   1.00
O752   O     0.57000   0.86914   0.11652   0.00000  Uiso   1.00
C753   C     0.56393   0.91582   0.13136   0.00000  Uiso   1.00
H754   H     0.56433   0.91540   0.16830   0.00000  Uiso   1.00
H755   H     0.53426   0.93222   0.12000   0.00000  Uiso   1.00
C756   C     0.59938   0.94680   0.11621   0.00000  Uiso   1.00
H757   H     0.62918   0.92955   0.12483   0.00000  Uiso   1.00
H758   H     0.59739   0.95176   0.07960   0.00000  Uiso   1.00
C759   C     0.59788   0.99487   0.13836   0.00000  Uiso   1.00
H760   H     0.56840   0.67961   0.13005   0.00000  Uiso   1.00
H761   H     0.62366   0.68335   0.12624   0.00000  Uiso   1.00
H762   H     0.60092   0.99119   0.17509   0.00000  Uiso   1.00
O763   O     0.39354   0.79763   0.04652   0.00000  Uiso   1.00
C764   C     0.36513   0.83463   0.03763   0.00000  Uiso   1.00
H765   H     0.33378   0.82169   0.04515   0.00000  Uiso   1.00
H766   H     0.36390   0.84477   0.00176   0.00000  Uiso   1.00
C767   C     0.37374   0.87755   0.06732   0.00000  Uiso   1.00
H768   H     0.35988   0.87191   0.10052   0.00000  Uiso   1.00
H769   H     0.40723   0.88265   0.07244   0.00000  Uiso   1.00
C770   C     0.35661   0.92261   0.04660   0.00000  Uiso   1.00
H771   H     0.37274   0.93059   0.01512   0.00000  Uiso   1.00
H772   H     0.36131   0.95224   0.06997   0.00000  Uiso   1.00
H773   H     0.65667   0.91921   0.03937   0.00000  Uiso   1.00
O774   O     0.60056   0.88967   0.45370   0.00000  Uiso   1.00
C775   C     0.60167   0.93914   0.45816   0.00000  Uiso   1.00
H776   H     0.63429   0.95016   0.45564   0.00000  Uiso   1.00
H777   H     0.59097   0.95186   0.49114   0.00000  Uiso   1.00
C778   C     0.57678   0.96283   0.42055   0.00000  Uiso   1.00
H779   H     0.58796   0.95029   0.38786   0.00000  Uiso   1.00
H780   H     0.54380   0.95339   0.42342   0.00000  Uiso   1.00
C781   C     0.58062   0.68277   0.42234   0.00000  Uiso   1.00
H782   H     0.56891   0.69622   0.45445   0.00000  Uiso   1.00
H783   H     0.56220   0.69875   0.39477   0.00000  Uiso   1.00
H784   H     0.61325   0.69331   0.41862   0.00000  Uiso   1.00
C785   C     0.75401   0.83341   0.24872   0.00000  Uiso   1.00
C786   C     0.91265   0.83329   0.24950   0.00000  Uiso   1.00
C787   C     0.76305   0.80594   0.02384   0.00000  Uiso   1.00
C788   C     0.90064   0.87173   0.47642   0.00000  Uiso   1.00
C789   C     0.68810   0.79083   0.24866   0.00000  Uiso   1.00
C790   C     0.97846   0.87590   0.24553   0.00000  Uiso   1.00
C791   C     0.97890   0.79077   0.24926   0.00000  Uiso   1.00
C792   C     0.68770   0.87597   0.24514   0.00000  Uiso   1.00
C793   C     0.95724   0.83330   0.24811   0.00000  Uiso   1.00
C794   C     0.70937   0.83344   0.24716   0.00000  Uiso   1.00
C795   C     0.80780   0.69171   0.22195   0.00000  Uiso   1.00
C796   C     0.85893   0.97494   0.27799   0.00000  Uiso   1.00
C797   C     0.85893   0.69125   0.27799   0.00000  Uiso   1.00
C798   C     0.80782   0.97541   0.22193   0.00000  Uiso   1.00
C799   C     0.83460   0.83352   0.16452   0.00000  Uiso   1.00
C800   C     0.83322   0.83326   0.33556   0.00000  Uiso   1.00
C801   C     0.86575   0.85221   0.40669   0.00000  Uiso   1.00
C802   C     0.80059   0.81786   0.09348   0.00000  Uiso   1.00
C803   C     0.83203   0.83362   0.38377   0.00000  Uiso   1.00
C804   C     0.83511   0.83437   0.11641   0.00000  Uiso   1.00
C805   C     0.79739   0.81708   0.40673   0.00000  Uiso   1.00
C806   C     0.86876   0.85330   0.09354   0.00000  Uiso   1.00
C807   C     0.79804   0.81745   0.45349   0.00000  Uiso   1.00
C808   C     0.86836   0.85250   0.04678   0.00000  Uiso   1.00
C809   C     0.83268   0.83543   0.47668   0.00000  Uiso   1.00
C810   C     0.83339   0.83556   0.02352   0.00000  Uiso   1.00
C811   C     0.86659   0.85322   0.45312   0.00000  Uiso   1.00
C812   C     0.79893   0.81929   0.04708   0.00000  Uiso   1.00
C813   C     0.76401   0.80177   0.47750   0.00000  Uiso   1.00
C814   C     0.90200   0.86910   0.02288   0.00000  Uiso   1.00
Cu815  Cu    0.83333   0.88022   0.25000   0.00000  Uiso   1.00
Cu816  Cu    0.83333   0.78645   0.25000   0.00000  Uiso   1.00
H817   H     0.89167   0.86511   0.38796   0.00000  Uiso   1.00
H818   H     0.77471   0.80470   0.11214   0.00000  Uiso   1.00
H819   H     0.73711   0.78806   0.46052   0.00000  Uiso   1.00
H820   H     0.92945   0.88055   0.04010   0.00000  Uiso   1.00
H821   H     0.70427   0.75755   0.25008   0.00000  Uiso   1.00
H822   H     0.96226   0.90917   0.24422   0.00000  Uiso   1.00
H823   H     0.96307   0.75747   0.25098   0.00000  Uiso   1.00
H824   H     0.70356   0.90925   0.24373   0.00000  Uiso   1.00
H825   H     0.78734   0.71064   0.19951   0.00000  Uiso   1.00
H826   H     0.87941   0.95602   0.30042   0.00000  Uiso   1.00
H827   H     0.87942   0.70979   0.30040   0.00000  Uiso   1.00
H828   H     0.78738   0.95685   0.19948   0.00000  Uiso   1.00
N829   N     0.83333   0.95069   0.25000   0.00000  Uiso   1.00
N830   N     0.83333   0.71598   0.25000   0.00000  Uiso   1.00
O831   O     0.77321   0.87291   0.25000   0.00000  Uiso   1.00
O832   O     0.89345   0.79375   0.25001   0.00000  Uiso   1.00
O833   O     0.89345   0.87291   0.25001   0.00000  Uiso   1.00
O834   O     0.77321   0.79375   0.25000   0.00000  Uiso   1.00
O835   O     0.83332   0.87293   0.18513   0.00000  Uiso   1.00
O836   O     0.83334   0.79373   0.31487   0.00000  Uiso   1.00
O837   O     0.83334   0.87293   0.31487   0.00000  Uiso   1.00
O838   O     0.83332   0.79373   0.18513   0.00000  Uiso   1.00
O839   O     0.76442   0.79679   0.38425   0.00000  Uiso   1.00
C840   C     0.73972   0.83135   0.36277   0.00000  Uiso   1.00
H841   H     0.72311   0.81353   0.33528   0.00000  Uiso   1.00
H842   H     0.75771   0.86021   0.34759   0.00000  Uiso   1.00
C843   C     0.70755   0.85210   0.39392   0.00000  Uiso   1.00
H844   H     0.68931   0.82347   0.40908   0.00000  Uiso   1.00
H845   H     0.72315   0.87218   0.42085   0.00000  Uiso   1.00
C846   C     0.67837   0.88490   0.36840   0.00000  Uiso   1.00
H847   H     0.69586   0.91295   0.35136   0.00000  Uiso   1.00
H848   H     0.99013   0.90155   0.39178   0.00000  Uiso   1.00
H849   H     0.99356   0.86490   0.34336   0.00000  Uiso   1.00
O850   O     0.90333   0.86914   0.11652   0.00000  Uiso   1.00
C851   C     0.89726   0.91582   0.13136   0.00000  Uiso   1.00
H852   H     0.89767   0.91540   0.16830   0.00000  Uiso   1.00
H853   H     0.86759   0.93222   0.12000   0.00000  Uiso   1.00
C854   C     0.93271   0.94680   0.11621   0.00000  Uiso   1.00
H855   H     0.96252   0.92955   0.12483   0.00000  Uiso   1.00
H856   H     0.93073   0.95176   0.07960   0.00000  Uiso   1.00
C857   C     0.93121   0.99487   0.13836   0.00000  Uiso   1.00
H858   H     0.90173   0.67961   0.13005   0.00000  Uiso   1.00
H859   H     0.95699   0.68335   0.12624   0.00000  Uiso   1.00
H860   H     0.93425   0.99119   0.17509   0.00000  Uiso   1.00
O861   O     0.72687   0.79763   0.04652   0.00000  Uiso   1.00
C862   C     0.69846   0.83463   0.03763   0.00000  Uiso   1.00
H863   H     0.66712   0.82169   0.04515   0.00000  Uiso   1.00
H864   H     0.69723   0.84477   0.00176   0.00000  Uiso   1.00
C865   C     0.70707   0.87755   0.06732   0.00000  Uiso   1.00
H866   H     0.69321   0.87191   0.10052   0.00000  Uiso   1.00
H867   H     0.74056   0.88265   0.07244   0.00000  Uiso   1.00
C868   C     0.68994   0.92261   0.04660   0.00000  Uiso   1.00
H869   H     0.70607   0.93059   0.01512   0.00000  Uiso   1.00
H870   H     0.69464   0.95224   0.06997   0.00000  Uiso   1.00
H871   H     0.99000   0.91921   0.03937   0.00000  Uiso   1.00
O872   O     0.93389   0.88967   0.45370   0.00000  Uiso   1.00
C873   C     0.93500   0.93914   0.45816   0.00000  Uiso   1.00
H874   H     0.96763   0.95016   0.45564   0.00000  Uiso   1.00
H875   H     0.92431   0.95186   0.49114   0.00000  Uiso   1.00
C876   C     0.91012   0.96283   0.42055   0.00000  Uiso   1.00
H877   H     0.92129   0.95029   0.38786   0.00000  Uiso   1.00
H878   H     0.87713   0.95339   0.42342   0.00000  Uiso   1.00
C879   C     0.91395   0.68277   0.42234   0.00000  Uiso   1.00
H880   H     0.90225   0.69622   0.45445   0.00000  Uiso   1.00
H881   H     0.89554   0.69875   0.39477   0.00000  Uiso   1.00
H882   H     0.94659   0.69331   0.41862   0.00000  Uiso   1.00
C883   C     0.08734   0.16674   0.74872   0.00000  Uiso   1.00
C884   C     0.24599   0.16662   0.74950   0.00000  Uiso   1.00
C885   C     0.09638   0.13927   0.52384   0.00000  Uiso   1.00
C886   C     0.23398   0.20506   0.97642   0.00000  Uiso   1.00
C887   C     0.02144   0.12416   0.74866   0.00000  Uiso   1.00
C888   C     0.31179   0.20923   0.74553   0.00000  Uiso   1.00
C889   C     0.31223   0.12410   0.74926   0.00000  Uiso   1.00
C890   C     0.02103   0.20930   0.74514   0.00000  Uiso   1.00
C891   C     0.29057   0.16664   0.74811   0.00000  Uiso   1.00
C892   C     0.04270   0.16678   0.74716   0.00000  Uiso   1.00
C893   C     0.14114   0.02505   0.72195   0.00000  Uiso   1.00
C894   C     0.19226   0.30827   0.77799   0.00000  Uiso   1.00
C895   C     0.19227   0.02458   0.77799   0.00000  Uiso   1.00
C896   C     0.14115   0.30874   0.72193   0.00000  Uiso   1.00
C897   C     0.16793   0.16685   0.66452   0.00000  Uiso   1.00
C898   C     0.16655   0.16659   0.83556   0.00000  Uiso   1.00
C899   C     0.19909   0.18554   0.90669   0.00000  Uiso   1.00
C900   C     0.13393   0.15119   0.59348   0.00000  Uiso   1.00
C901   C     0.16536   0.16695   0.88377   0.00000  Uiso   1.00
C902   C     0.16844   0.16770   0.61641   0.00000  Uiso   1.00
C903   C     0.13072   0.15041   0.90673   0.00000  Uiso   1.00
C904   C     0.20209   0.18663   0.59354   0.00000  Uiso   1.00
C905   C     0.13138   0.15079   0.95349   0.00000  Uiso   1.00
C906   C     0.20169   0.18583   0.54678   0.00000  Uiso   1.00
C907   C     0.16601   0.16877   0.97668   0.00000  Uiso   1.00
C908   C     0.16672   0.16889   0.52352   0.00000  Uiso   1.00
C909   C     0.19992   0.18655   0.95312   0.00000  Uiso   1.00
C910   C     0.13226   0.15263   0.54708   0.00000  Uiso   1.00
C911   C     0.09734   0.13510   0.97750   0.00000  Uiso   1.00
C912   C     0.23533   0.20243   0.52288   0.00000  Uiso   1.00
Cu913  Cu    0.16667   0.21355   0.75000   0.00000  Uiso   1.00
Cu914  Cu    0.16667   0.11978   0.75000   0.00000  Uiso   1.00
H915   H     0.22501   0.19844   0.88796   0.00000  Uiso   1.00
H916   H     0.10804   0.13804   0.61214   0.00000  Uiso   1.00
H917   H     0.07045   0.12139   0.96052   0.00000  Uiso   1.00
H918   H     0.26278   0.21388   0.54010   0.00000  Uiso   1.00
H919   H     0.03761   0.09089   0.75008   0.00000  Uiso   1.00
H920   H     0.29559   0.24250   0.74422   0.00000  Uiso   1.00
H921   H     0.29640   0.09081   0.75098   0.00000  Uiso   1.00
H922   H     0.03689   0.24258   0.74373   0.00000  Uiso   1.00
H923   H     0.12067   0.04397   0.69951   0.00000  Uiso   1.00
H924   H     0.21274   0.28935   0.80042   0.00000  Uiso   1.00
H925   H     0.21275   0.04313   0.80040   0.00000  Uiso   1.00
H926   H     0.12072   0.29018   0.69948   0.00000  Uiso   1.00
N927   N     0.16667   0.28402   0.75000   0.00000  Uiso   1.00
N928   N     0.16667   0.04931   0.75000   0.00000  Uiso   1.00
O929   O     0.10655   0.20625   0.75000   0.00000  Uiso   1.00
O930   O     0.22679   0.12709   0.75001   0.00000  Uiso   1.00
O931   O     0.22679   0.20625   0.75001   0.00000  Uiso   1.00
O932   O     0.10655   0.12709   0.75000   0.00000  Uiso   1.00
O933   O     0.16666   0.20627   0.68513   0.00000  Uiso   1.00
O934   O     0.16668   0.12707   0.81487   0.00000  Uiso   1.00
O935   O     0.16668   0.20627   0.81487   0.00000  Uiso   1.00
O936   O     0.16666   0.12707   0.68513   0.00000  Uiso   1.00
O937   O     0.09775   0.13012   0.88425   0.00000  Uiso   1.00
C938   C     0.07305   0.16469   0.86277   0.00000  Uiso   1.00
H939   H     0.05644   0.14687   0.83528   0.00000  Uiso   1.00
H940   H     0.09104   0.19354   0.84759   0.00000  Uiso   1.00
C941   C     0.04088   0.18544   0.89392   0.00000  Uiso   1.00
H942   H     0.02265   0.15681   0.90908   0.00000  Uiso   1.00
H943   H     0.05648   0.20551   0.92085   0.00000  Uiso   1.00
C944   C     0.01170   0.21823   0.86840   0.00000  Uiso   1.00
H945   H     0.02919   0.24628   0.85136   0.00000  Uiso   1.00
H946   H     0.32346   0.23488   0.89178   0.00000  Uiso   1.00
H947   H     0.32689   0.19824   0.84336   0.00000  Uiso   1.00
O948   O     0.23666   0.20247   0.61652   0.00000  Uiso   1.00
C949   C     0.23059   0.24915   0.63136   0.00000  Uiso   1.00
H950   H     0.23100   0.24873   0.66830   0.00000  Uiso   1.00
H951   H     0.20092   0.26555   0.62000   0.00000  Uiso   1.00
C952   C     0.26605   0.28013   0.61621   0.00000  Uiso   1.00
H953   H     0.29585   0.26288   0.62483   0.00000  Uiso   1.00
H954   H     0.26406   0.28510   0.57960   0.00000  Uiso   1.00
C955   C     0.26454   0.32820   0.63836   0.00000  Uiso   1.00
H956   H     0.23506   0.01295   0.63005   0.00000  Uiso   1.00
H957   H     0.29032   0.01668   0.62624   0.00000  Uiso   1.00
H958   H     0.26758   0.32452   0.67509   0.00000  Uiso   1.00
O959   O     0.06020   0.13097   0.54652   0.00000  Uiso   1.00
C960   C     0.03179   0.16797   0.53763   0.00000  Uiso   1.00
H961   H     0.00045   0.15502   0.54515   0.00000  Uiso   1.00
H962   H     0.03057   0.17811   0.50176   0.00000  Uiso   1.00
C963   C     0.04041   0.21088   0.56732   0.00000  Uiso   1.00
H964   H     0.02654   0.20524   0.60052   0.00000  Uiso   1.00
H965   H     0.07390   0.21598   0.57244   0.00000  Uiso   1.00
C966   C     0.02327   0.25595   0.54660   0.00000  Uiso   1.00
H967   H     0.03941   0.26392   0.51512   0.00000  Uiso   1.00
H968   H     0.02798   0.28557   0.56997   0.00000  Uiso   1.00
H969   H     0.32334   0.25254   0.53937   0.00000  Uiso   1.00
O970   O     0.26722   0.22301   0.95370   0.00000  Uiso   1.00
C971   C     0.26834   0.27247   0.95816   0.00000  Uiso   1.00
H972   H     0.30096   0.28349   0.95564   0.00000  Uiso   1.00
H973   H     0.25764   0.28520   0.99114   0.00000  Uiso   1.00
C974   C     0.24345   0.29616   0.92055   0.00000  Uiso   1.00
H975   H     0.25463   0.28362   0.88786   0.00000  Uiso   1.00
H976   H     0.21046   0.28672   0.92342   0.00000  Uiso   1.00
C977   C     0.24729   0.01610   0.92234   0.00000  Uiso   1.00
H978   H     0.23558   0.02955   0.95445   0.00000  Uiso   1.00
H979   H     0.22887   0.03209   0.89477   0.00000  Uiso   1.00
H980   H     0.27992   0.02664   0.91862   0.00000  Uiso   1.00
C981   C     0.42068   0.16674   0.74872   0.00000  Uiso   1.00
C982   C     0.57932   0.16662   0.74950   0.00000  Uiso   1.00
C983   C     0.42972   0.13927   0.52384   0.00000  Uiso   1.00
C984   C     0.56731   0.20506   0.97642   0.00000  Uiso   1.00
C985   C     0.35477   0.12416   0.74866   0.00000  Uiso   1.00
C986   C     0.64512   0.20923   0.74553   0.00000  Uiso   1.00
C987   C     0.64556   0.12410   0.74926   0.00000  Uiso   1.00
C988   C     0.35437   0.20930   0.74514   0.00000  Uiso   1.00
C989   C     0.62390   0.16664   0.74811   0.00000  Uiso   1.00
C990   C     0.37603   0.16678   0.74716   0.00000  Uiso   1.00
C991   C     0.47447   0.02505   0.72195   0.00000  Uiso   1.00
C992   C     0.52560   0.30827   0.77799   0.00000  Uiso   1.00
C993   C     0.52560   0.02458   0.77799   0.00000  Uiso   1.00
C994   C     0.47449   0.30874   0.72193   0.00000  Uiso   1.00
C995   C     0.50127   0.16685   0.66452   0.00000  Uiso   1.00
C996   C     0.49989   0.16659   0.83556   0.00000  Uiso   1.00
C997   C     0.53242   0.18554   0.90669   0.00000  Uiso   1.00
C998   C     0.46726   0.15119   0.59348   0.00000  Uiso   1.00
C999   C     0.49870   0.16695   0.88377   0.00000  Uiso   1.00
C1000  C     0.50178   0.16770   0.61641   0.00000  Uiso   1.00
C1001  C     0.46405   0.15041   0.90673   0.00000  Uiso   1.00
C1002  C     0.53542   0.18663   0.59354   0.00000  Uiso   1.00
C1003  C     0.46471   0.15079   0.95349   0.00000  Uiso   1.00
C1004  C     0.53502   0.18583   0.54678   0.00000  Uiso   1.00
C1005  C     0.49934   0.16877   0.97668   0.00000  Uiso   1.00
C1006  C     0.50006   0.16889   0.52352   0.00000  Uiso   1.00
C1007  C     0.53326   0.18655   0.95312   0.00000  Uiso   1.00
C1008  C     0.46559   0.15263   0.54708   0.00000  Uiso   1.00
C1009  C     0.43067   0.13510   0.97750   0.00000  Uiso   1.00
C1010  C     0.56867   0.20243   0.52288   0.00000  Uiso   1.00
Cu1011 Cu    0.50000   0.21355   0.75000   0.00000  Uiso   1.00
Cu1012 Cu    0.50000   0.11978   0.75000   0.00000  Uiso   1.00
H1013  H     0.55834   0.19844   0.88796   0.00000  Uiso   1.00
H1014  H     0.44138   0.13804   0.61214   0.00000  Uiso   1.00
H1015  H     0.40378   0.12139   0.96052   0.00000  Uiso   1.00
H1016  H     0.59612   0.21388   0.54010   0.00000  Uiso   1.00
H1017  H     0.37094   0.09089   0.75008   0.00000  Uiso   1.00
H1018  H     0.62893   0.24250   0.74422   0.00000  Uiso   1.00
H1019  H     0.62974   0.09081   0.75098   0.00000  Uiso   1.00
H1020  H     0.37023   0.24258   0.74373   0.00000  Uiso   1.00
H1021  H     0.45401   0.04397   0.69951   0.00000  Uiso   1.00
H1022  H     0.54608   0.28935   0.80042   0.00000  Uiso   1.00
H1023  H     0.54609   0.04313   0.80040   0.00000  Uiso   1.00
H1024  H     0.45405   0.29018   0.69948   0.00000  Uiso   1.00
N1025  N     0.50000   0.28402   0.75000   0.00000  Uiso   1.00
N1026  N     0.50000   0.04931   0.75000   0.00000  Uiso   1.00
O1027  O     0.43988   0.20625   0.75000   0.00000  Uiso   1.00
O1028  O     0.56012   0.12709   0.75001   0.00000  Uiso   1.00
O1029  O     0.56012   0.20625   0.75001   0.00000  Uiso   1.00
O1030  O     0.43988   0.12709   0.75000   0.00000  Uiso   1.00
O1031  O     0.49999   0.20627   0.68513   0.00000  Uiso   1.00
O1032  O     0.50001   0.12707   0.81487   0.00000  Uiso   1.00
O1033  O     0.50001   0.20627   0.81487   0.00000  Uiso   1.00
O1034  O     0.49999   0.12707   0.68513   0.00000  Uiso   1.00
O1035  O     0.43109   0.13012   0.88425   0.00000  Uiso   1.00
C1036  C     0.40639   0.16469   0.86277   0.00000  Uiso   1.00
H1037  H     0.38978   0.14687   0.83528   0.00000  Uiso   1.00
H1038  H     0.42437   0.19354   0.84759   0.00000  Uiso   1.00
C1039  C     0.37422   0.18544   0.89392   0.00000  Uiso   1.00
H1040  H     0.35598   0.15681   0.90908   0.00000  Uiso   1.00
H1041  H     0.38982   0.20551   0.92085   0.00000  Uiso   1.00
C1042  C     0.34504   0.21823   0.86840   0.00000  Uiso   1.00
H1043  H     0.36252   0.24628   0.85136   0.00000  Uiso   1.00
H1044  H     0.65679   0.23488   0.89178   0.00000  Uiso   1.00
H1045  H     0.66023   0.19824   0.84336   0.00000  Uiso   1.00
O1046  O     0.57000   0.20247   0.61652   0.00000  Uiso   1.00
C1047  C     0.56393   0.24915   0.63136   0.00000  Uiso   1.00
H1048  H     0.56433   0.24873   0.66830   0.00000  Uiso   1.00
H1049  H     0.53426   0.26555   0.62000   0.00000  Uiso   1.00
C1050  C     0.59938   0.28013   0.61621   0.00000  Uiso   1.00
H1051  H     0.62918   0.26288   0.62483   0.00000  Uiso   1.00
H1052  H     0.59739   0.28510   0.57960   0.00000  Uiso   1.00
C1053  C     0.59788   0.32820   0.63836   0.00000  Uiso   1.00
H1054  H     0.56840   0.01295   0.63005   0.00000  Uiso   1.00
H1055  H     0.62366   0.01668   0.62624   0.00000  Uiso   1.00
H1056  H     0.60092   0.32452   0.67509   0.00000  Uiso   1.00
O1057  O     0.39354   0.13097   0.54652   0.00000  Uiso   1.00
C1058  C     0.36513   0.16797   0.53763   0.00000  Uiso   1.00
H1059  H     0.33378   0.15502   0.54515   0.00000  Uiso   1.00
H1060  H     0.36390   0.17811   0.50176   0.00000  Uiso   1.00
C1061  C     0.37374   0.21088   0.56732   0.00000  Uiso   1.00
H1062  H     0.35988   0.20524   0.60052   0.00000  Uiso   1.00
H1063  H     0.40723   0.21598   0.57244   0.00000  Uiso   1.00
C1064  C     0.35661   0.25595   0.54660   0.00000  Uiso   1.00
H1065  H     0.37274   0.26392   0.51512   0.00000  Uiso   1.00
H1066  H     0.36131   0.28557   0.56997   0.00000  Uiso   1.00
H1067  H     0.65667   0.25254   0.53937   0.00000  Uiso   1.00
O1068  O     0.60056   0.22301   0.95370   0.00000  Uiso   1.00
C1069  C     0.60167   0.27247   0.95816   0.00000  Uiso   1.00
H1070  H     0.63429   0.28349   0.95564   0.00000  Uiso   1.00
H1071  H     0.59097   0.28520   0.99114   0.00000  Uiso   1.00
C1072  C     0.57678   0.29616   0.92055   0.00000  Uiso   1.00
H1073  H     0.58796   0.28362   0.88786   0.00000  Uiso   1.00
H1074  H     0.54380   0.28672   0.92342   0.00000  Uiso   1.00
C1075  C     0.58062   0.01610   0.92234   0.00000  Uiso   1.00
H1076  H     0.56891   0.02955   0.95445   0.00000  Uiso   1.00
H1077  H     0.56220   0.03209   0.89477   0.00000  Uiso   1.00
H1078  H     0.61325   0.02664   0.91862   0.00000  Uiso   1.00
C1079  C     0.75401   0.16674   0.74872   0.00000  Uiso   1.00
C1080  C     0.91265   0.16662   0.74950   0.00000  Uiso   1.00
C1081  C     0.76305   0.13927   0.52384   0.00000  Uiso   1.00
C1082  C     0.90064   0.20506   0.97642   0.00000  Uiso   1.00
C1083  C     0.68810   0.12416   0.74866   0.00000  Uiso   1.00
C1084  C     0.97846   0.20923   0.74553   0.00000  Uiso   1.00
C1085  C     0.97890   0.12410   0.74926   0.00000  Uiso   1.00
C1086  C     0.68770   0.20930   0.74514   0.00000  Uiso   1.00
C1087  C     0.95724   0.16664   0.74811   0.00000  Uiso   1.00
C1088  C     0.70937   0.16678   0.74716   0.00000  Uiso   1.00
C1089  C     0.80780   0.02505   0.72195   0.00000  Uiso   1.00
C1090  C     0.85893   0.30827   0.77799   0.00000  Uiso   1.00
C1091  C     0.85893   0.02458   0.77799   0.00000  Uiso   1.00
C1092  C     0.80782   0.30874   0.72193   0.00000  Uiso   1.00
C1093  C     0.83460   0.16685   0.66452   0.00000  Uiso   1.00
C1094  C     0.83322   0.16659   0.83556   0.00000  Uiso   1.00
C1095  C     0.86575   0.18554   0.90669   0.00000  Uiso   1.00
C1096  C     0.80059   0.15119   0.59348   0.00000  Uiso   1.00
C1097  C     0.83203   0.16695   0.88377   0.00000  Uiso   1.00
C1098  C     0.83511   0.16770   0.61641   0.00000  Uiso   1.00
C1099  C     0.79739   0.15041   0.90673   0.00000  Uiso   1.00
C1100  C     0.86876   0.18663   0.59354   0.00000  Uiso   1.00
C1101  C     0.79804   0.15079   0.95349   0.00000  Uiso   1.00
C1102  C     0.86836   0.18583   0.54678   0.00000  Uiso   1.00
C1103  C     0.83268   0.16877   0.97668   0.00000  Uiso   1.00
C1104  C     0.83339   0.16889   0.52352   0.00000  Uiso   1.00
C1105  C     0.86659   0.18655   0.95312   0.00000  Uiso   1.00
C1106  C     0.79893   0.15263   0.54708   0.00000  Uiso   1.00
C1107  C     0.76401   0.13510   0.97750   0.00000  Uiso   1.00
C1108  C     0.90200   0.20243   0.52288   0.00000  Uiso   1.00
Cu1109 Cu    0.83333   0.21355   0.75000   0.00000  Uiso   1.00
Cu1110 Cu    0.83333   0.11978   0.75000   0.00000  Uiso   1.00
H1111  H     0.89167   0.19844   0.88796   0.00000  Uiso   1.00
H1112  H     0.77471   0.13804   0.61214   0.00000  Uiso   1.00
H1113  H     0.73711   0.12139   0.96052   0.00000  Uiso   1.00
H1114  H     0.92945   0.21388   0.54010   0.00000  Uiso   1.00
H1115  H     0.70427   0.09089   0.75008   0.00000  Uiso   1.00
H1116  H     0.96226   0.24250   0.74422   0.00000  Uiso   1.00
H1117  H     0.96307   0.09081   0.75098   0.00000  Uiso   1.00
H1118  H     0.70356   0.24258   0.74373   0.00000  Uiso   1.00
H1119  H     0.78734   0.04397   0.69951   0.00000  Uiso   1.00
H1120  H     0.87941   0.28935   0.80042   0.00000  Uiso   1.00
H1121  H     0.87942   0.04313   0.80040   0.00000  Uiso   1.00
H1122  H     0.78738   0.29018   0.69948   0.00000  Uiso   1.00
N1123  N     0.83333   0.28402   0.75000   0.00000  Uiso   1.00
N1124  N     0.83333   0.04931   0.75000   0.00000  Uiso   1.00
O1125  O     0.77321   0.20625   0.75000   0.00000  Uiso   1.00
O1126  O     0.89345   0.12709   0.75001   0.00000  Uiso   1.00
O1127  O     0.89345   0.20625   0.75001   0.00000  Uiso   1.00
O1128  O     0.77321   0.12709   0.75000   0.00000  Uiso   1.00
O1129  O     0.83332   0.20627   0.68513   0.00000  Uiso   1.00
O1130  O     0.83334   0.12707   0.81487   0.00000  Uiso   1.00
O1131  O     0.83334   0.20627   0.81487   0.00000  Uiso   1.00
O1132  O     0.83332   0.12707   0.68513   0.00000  Uiso   1.00
O1133  O     0.76442   0.13012   0.88425   0.00000  Uiso   1.00
C1134  C     0.73972   0.16469   0.86277   0.00000  Uiso   1.00
H1135  H     0.72311   0.14687   0.83528   0.00000  Uiso   1.00
H1136  H     0.75771   0.19354   0.84759   0.00000  Uiso   1.00
C1137  C     0.70755   0.18544   0.89392   0.00000  Uiso   1.00
H1138  H     0.68931   0.15681   0.90908   0.00000  Uiso   1.00
H1139  H     0.72315   0.20551   0.92085   0.00000  Uiso   1.00
C1140  C     0.67837   0.21823   0.86840   0.00000  Uiso   1.00
H1141  H     0.69586   0.24628   0.85136   0.00000  Uiso   1.00
H1142  H     0.99013   0.23488   0.89178   0.00000  Uiso   1.00
H1143  H     0.99356   0.19824   0.84336   0.00000  Uiso   1.00
O1144  O     0.90333   0.20247   0.61652   0.00000  Uiso   1.00
C1145  C     0.89726   0.24915   0.63136   0.00000  Uiso   1.00
H1146  H     0.89767   0.24873   0.66830   0.00000  Uiso   1.00
H1147  H     0.86759   0.26555   0.62000   0.00000  Uiso   1.00
C1148  C     0.93271   0.28013   0.61621   0.00000  Uiso   1.00
H1149  H     0.96252   0.26288   0.62483   0.00000  Uiso   1.00
H1150  H     0.93073   0.28510   0.57960   0.00000  Uiso   1.00
C1151  C     0.93121   0.32820   0.63836   0.00000  Uiso   1.00
H1152  H     0.90173   0.01295   0.63005   0.00000  Uiso   1.00
H1153  H     0.95699   0.01668   0.62624   0.00000  Uiso   1.00
H1154  H     0.93425   0.32452   0.67509   0.00000  Uiso   1.00
O1155  O     0.72687   0.13097   0.54652   0.00000  Uiso   1.00
C1156  C     0.69846   0.16797   0.53763   0.00000  Uiso   1.00
H1157  H     0.66712   0.15502   0.54515   0.00000  Uiso   1.00
H1158  H     0.69723   0.17811   0.50176   0.00000  Uiso   1.00
C1159  C     0.70707   0.21088   0.56732   0.00000  Uiso   1.00
H1160  H     0.69321   0.20524   0.60052   0.00000  Uiso   1.00
H1161  H     0.74056   0.21598   0.57244   0.00000  Uiso   1.00
C1162  C     0.68994   0.25595   0.54660   0.00000  Uiso   1.00
H1163  H     0.70607   0.26392   0.51512   0.00000  Uiso   1.00
H1164  H     0.69464   0.28557   0.56997   0.00000  Uiso   1.00
H1165  H     0.99000   0.25254   0.53937   0.00000  Uiso   1.00
O1166  O     0.93389   0.22301   0.95370   0.00000  Uiso   1.00
C1167  C     0.93500   0.27247   0.95816   0.00000  Uiso   1.00
H1168  H     0.96763   0.28349   0.95564   0.00000  Uiso   1.00
H1169  H     0.92431   0.28520   0.99114   0.00000  Uiso   1.00
C1170  C     0.91012   0.29616   0.92055   0.00000  Uiso   1.00
H1171  H     0.92129   0.28362   0.88786   0.00000  Uiso   1.00
H1172  H     0.87713   0.28672   0.92342   0.00000  Uiso   1.00
C1173  C     0.91395   0.01610   0.92234   0.00000  Uiso   1.00
H1174  H     0.90225   0.02955   0.95445   0.00000  Uiso   1.00
H1175  H     0.89554   0.03209   0.89477   0.00000  Uiso   1.00
H1176  H     0.94659   0.02664   0.91862   0.00000  Uiso   1.00
C1177  C     0.08734   0.50008   0.74872   0.00000  Uiso   1.00
C1178  C     0.24599   0.49995   0.74950   0.00000  Uiso   1.00
C1179  C     0.09638   0.47261   0.52384   0.00000  Uiso   1.00
C1180  C     0.23398   0.53840   0.97642   0.00000  Uiso   1.00
C1181  C     0.02144   0.45749   0.74866   0.00000  Uiso   1.00
C1182  C     0.31179   0.54257   0.74553   0.00000  Uiso   1.00
C1183  C     0.31223   0.45743   0.74926   0.00000  Uiso   1.00
C1184  C     0.02103   0.54263   0.74514   0.00000  Uiso   1.00
C1185  C     0.29057   0.49997   0.74811   0.00000  Uiso   1.00
C1186  C     0.04270   0.50011   0.74716   0.00000  Uiso   1.00
C1187  C     0.14114   0.35838   0.72195   0.00000  Uiso   1.00
C1188  C     0.19226   0.64161   0.77799   0.00000  Uiso   1.00
C1189  C     0.19227   0.35791   0.77799   0.00000  Uiso   1.00
C1190  C     0.14115   0.64208   0.72193   0.00000  Uiso   1.00
C1191  C     0.16793   0.50018   0.66452   0.00000  Uiso   1.00
C1192  C     0.16655   0.49993   0.83556   0.00000  Uiso   1.00
C1193  C     0.19909   0.51887   0.90669   0.00000  Uiso   1.00
C1194  C     0.13393   0.48453   0.59348   0.00000  Uiso   1.00
C1195  C     0.16536   0.50029   0.88377   0.00000  Uiso   1.00
C1196  C     0.16844   0.50103   0.61641   0.00000  Uiso   1.00
C1197  C     0.13072   0.48375   0.90673   0.00000  Uiso   1.00
C1198  C     0.20209   0.51997   0.59354   0.00000  Uiso   1.00
C1199  C     0.13138   0.48412   0.95349   0.00000  Uiso   1.00
C1200  C     0.20169   0.51916   0.54678   0.00000  Uiso   1.00
C1201  C     0.16601   0.50210   0.97668   0.00000  Uiso   1.00
C1202  C     0.16672   0.50222   0.52352   0.00000  Uiso   1.00
C1203  C     0.19992   0.51989   0.95312   0.00000  Uiso   1.00
C1204  C     0.13226   0.48596   0.54708   0.00000  Uiso   1.00
C1205  C     0.09734   0.46843   0.97750   0.00000  Uiso   1.00
C1206  C     0.23533   0.53576   0.52288   0.00000  Uiso   1.00
Cu1207 Cu    0.16667   0.54689   0.75000   0.00000  Uiso   1.00
Cu1208 Cu    0.16667   0.45311   0.75000   0.00000  Uiso   1.00
H1209  H     0.22501   0.53178   0.88796   0.00000  Uiso   1.00
H1210  H     0.10804   0.47137   0.61214   0.00000  Uiso   1.00
H1211  H     0.07045   0.45472   0.96052   0.00000  Uiso   1.00
H1212  H     0.26278   0.54722   0.54010   0.00000  Uiso   1.00
H1213  H     0.03761   0.42422   0.75008   0.00000  Uiso   1.00
H1214  H     0.29559   0.57583   0.74422   0.00000  Uiso   1.00
H1215  H     0.29640   0.42414   0.75098   0.00000  Uiso   1.00
H1216  H     0.03689   0.57591   0.74373   0.00000  Uiso   1.00
H1217  H     0.12067   0.37730   0.69951   0.00000  Uiso   1.00
H1218  H     0.21274   0.62269   0.80042   0.00000  Uiso   1.00
H1219  H     0.21275   0.37646   0.80040   0.00000  Uiso   1.00
H1220  H     0.12072   0.62352   0.69948   0.00000  Uiso   1.00
N1221  N     0.16667   0.61736   0.75000   0.00000  Uiso   1.00
N1222  N     0.16667   0.38264   0.75000   0.00000  Uiso   1.00
O1223  O     0.10655   0.53958   0.75000   0.00000  Uiso   1.00
O1224  O     0.22679   0.46042   0.75001   0.00000  Uiso   1.00
O1225  O     0.22679   0.53958   0.75001   0.00000  Uiso   1.00
O1226  O     0.10655   0.46042   0.75000   0.00000  Uiso   1.00
O1227  O     0.16666   0.53960   0.68513   0.00000  Uiso   1.00
O1228  O     0.16668   0.46040   0.81487   0.00000  Uiso   1.00
O1229  O     0.16668   0.53960   0.81487   0.00000  Uiso   1.00
O1230  O     0.16666   0.46040   0.68513   0.00000  Uiso   1.00
O1231  O     0.09775   0.46345   0.88425   0.00000  Uiso   1.00
C1232  C     0.07305   0.49802   0.86277   0.00000  Uiso   1.00
H1233  H     0.05644   0.48020   0.83528   0.00000  Uiso   1.00
H1234  H     0.09104   0.52687   0.84759   0.00000  Uiso   1.00
C1235  C     0.04088   0.51877   0.89392   0.00000  Uiso   1.00
H1236  H     0.02265   0.49014   0.90908   0.00000  Uiso   1.00
H1237  H     0.05648   0.53885   0.92085   0.00000  Uiso   1.00
C1238  C     0.01170   0.55157   0.86840   0.00000  Uiso   1.00
H1239  H     0.02919   0.57962   0.85136   0.00000  Uiso   1.00
H1240  H     0.32346   0.56821   0.89178   0.00000  Uiso   1.00
H1241  H     0.32689   0.53157   0.84336   0.00000  Uiso   1.00
O1242  O     0.23666   0.53581   0.61652   0.00000  Uiso   1.00
C1243  C     0.23059   0.58249   0.63136   0.00000  Uiso   1.00
H1244  H     0.23100   0.58207   0.66830   0.00000  Uiso   1.00
H1245  H     0.20092   0.59888   0.62000   0.00000  Uiso   1.00
C1246  C     0.26605   0.61346   0.61621   0.00000  Uiso   1.00
H1247  H     0.29585   0.59621   0.62483   0.00000  Uiso   1.00
H1248  H     0.26406   0.61843   0.57960   0.00000  Uiso   1.00
C1249  C     0.26454   0.66153   0.63836   0.00000  Uiso   1.00
H1250  H     0.23506   0.34628   0.63005   0.00000  Uiso   1.00
H1251  H     0.29032   0.35002   0.62624   0.00000  Uiso   1.00
H1252  H     0.26758   0.65785   0.67509   0.00000  Uiso   1.00
O1253  O     0.06020   0.46430   0.54652   0.00000  Uiso   1.00
C1254  C     0.03179   0.50130   0.53763   0.00000  Uiso   1.00
H1255  H     0.00045   0.48836   0.54515   0.00000  Uiso   1.00
H1256  H     0.03057   0.51144   0.50176   0.00000  Uiso   1.00
C1257  C     0.04041   0.54422   0.56732   0.00000  Uiso   1.00
H1258  H     0.02654   0.53858   0.60052   0.00000  Uiso   1.00
H1259  H     0.07390   0.54932   0.57244   0.00000  Uiso   1.00
C1260  C     0.02327   0.58928   0.54660   0.00000  Uiso   1.00
H1261  H     0.03941   0.59726   0.51512   0.00000  Uiso   1.00
H1262  H     0.02798   0.61891   0.56997   0.00000  Uiso   1.00
H1263  H     0.32334   0.58588   0.53937   0.00000  Uiso   1.00
O1264  O     0.26722   0.55634   0.95370   0.00000  Uiso   1.00
C1265  C     0.26834   0.60580   0.95816   0.00000  Uiso   1.00
H1266  H     0.30096   0.61683   0.95564   0.00000  Uiso   1.00
H1267  H     0.25764   0.61853   0.99114   0.00000  Uiso   1.00
C1268  C     0.24345   0.62949   0.92055   0.00000  Uiso   1.00
H1269  H     0.25463   0.61695   0.88786   0.00000  Uiso   1.00
H1270  H     0.21046   0.62006   0.92342   0.00000  Uiso   1.00
C1271  C     0.24729   0.34943   0.92234   0.00000  Uiso   1.00
H1272  H     0.23558   0.36289   0.95445   0.00000  Uiso   1.00
H1273  H     0.22887   0.36542   0.89477   0.00000  Uiso   1.00
H1274  H     0.27992   0.35998   0.91862   0.00000  Uiso   1.00
C1275  C     0.42068   0.50008   0.74872   0.00000  Uiso   1.00
C1276  C     0.57932   0.49995   0.74950   0.00000  Uiso   1.00
C1277  C     0.42972   0.47261   0.52384   0.00000  Uiso   1.00
C1278  C     0.56731   0.53840   0.97642   0.00000  Uiso   1.00
C1279  C     0.35477   0.45749   0.74866   0.00000  Uiso   1.00
C1280  C     0.64512   0.54257   0.74553   0.00000  Uiso   1.00
C1281  C     0.64556   0.45743   0.74926   0.00000  Uiso   1.00
C1282  C     0.35437   0.54263   0.74514   0.00000  Uiso   1.00
C1283  C     0.62390   0.49997   0.74811   0.00000  Uiso   1.00
C1284  C     0.37603   0.50011   0.74716   0.00000  Uiso   1.00
C1285  C     0.47447   0.35838   0.72195   0.00000  Uiso   1.00
C1286  C     0.52560   0.64161   0.77799   0.00000  Uiso   1.00
C1287  C     0.52560   0.35791   0.77799   0.00000  Uiso   1.00
C1288  C     0.47449   0.64208   0.72193   0.00000  Uiso   1.00
C1289  C     0.50127   0.50018   0.66452   0.00000  Uiso   1.00
C1290  C     0.49989   0.49993   0.83556   0.00000  Uiso   1.00
C1291  C     0.53242   0.51887   0.90669   0.00000  Uiso   1.00
C1292  C     0.46726   0.48453   0.59348   0.00000  Uiso   1.00
C1293  C     0.49870   0.50029   0.88377   0.00000  Uiso   1.00
C1294  C     0.50178   0.50103   0.61641   0.00000  Uiso   1.00
C1295  C     0.46405   0.48375   0.90673   0.00000  Uiso   1.00
C1296  C     0.53542   0.51997   0.59354   0.00000  Uiso   1.00
C1297  C     0.46471   0.48412   0.95349   0.00000  Uiso   1.00
C1298  C     0.53502   0.51916   0.54678   0.00000  Uiso   1.00
C1299  C     0.49934   0.50210   0.97668   0.00000  Uiso   1.00
C1300  C     0.50006   0.50222   0.52352   0.00000  Uiso   1.00
C1301  C     0.53326   0.51989   0.95312   0.00000  Uiso   1.00
C1302  C     0.46559   0.48596   0.54708   0.00000  Uiso   1.00
C1303  C     0.43067   0.46843   0.97750   0.00000  Uiso   1.00
C1304  C     0.56867   0.53576   0.52288   0.00000  Uiso   1.00
Cu1305 Cu    0.50000   0.54689   0.75000   0.00000  Uiso   1.00
Cu1306 Cu    0.50000   0.45311   0.75000   0.00000  Uiso   1.00
H1307  H     0.55834   0.53178   0.88796   0.00000  Uiso   1.00
H1308  H     0.44138   0.47137   0.61214   0.00000  Uiso   1.00
H1309  H     0.40378   0.45472   0.96052   0.00000  Uiso   1.00
H1310  H     0.59612   0.54722   0.54010   0.00000  Uiso   1.00
H1311  H     0.37094   0.42422   0.75008   0.00000  Uiso   1.00
H1312  H     0.62893   0.57583   0.74422   0.00000  Uiso   1.00
H1313  H     0.62974   0.42414   0.75098   0.00000  Uiso   1.00
H1314  H     0.37023   0.57591   0.74373   0.00000  Uiso   1.00
H1315  H     0.45401   0.37730   0.69951   0.00000  Uiso   1.00
H1316  H     0.54608   0.62269   0.80042   0.00000  Uiso   1.00
H1317  H     0.54609   0.37646   0.80040   0.00000  Uiso   1.00
H1318  H     0.45405   0.62352   0.69948   0.00000  Uiso   1.00
N1319  N     0.50000   0.61736   0.75000   0.00000  Uiso   1.00
N1320  N     0.50000   0.38264   0.75000   0.00000  Uiso   1.00
O1321  O     0.43988   0.53958   0.75000   0.00000  Uiso   1.00
O1322  O     0.56012   0.46042   0.75001   0.00000  Uiso   1.00
O1323  O     0.56012   0.53958   0.75001   0.00000  Uiso   1.00
O1324  O     0.43988   0.46042   0.75000   0.00000  Uiso   1.00
O1325  O     0.49999   0.53960   0.68513   0.00000  Uiso   1.00
O1326  O     0.50001   0.46040   0.81487   0.00000  Uiso   1.00
O1327  O     0.50001   0.53960   0.81487   0.00000  Uiso   1.00
O1328  O     0.49999   0.46040   0.68513   0.00000  Uiso   1.00
O1329  O     0.43109   0.46345   0.88425   0.00000  Uiso   1.00
C1330  C     0.40639   0.49802   0.86277   0.00000  Uiso   1.00
H1331  H     0.38978   0.48020   0.83528   0.00000  Uiso   1.00
H1332  H     0.42437   0.52687   0.84759   0.00000  Uiso   1.00
C1333  C     0.37422   0.51877   0.89392   0.00000  Uiso   1.00
H1334  H     0.35598   0.49014   0.90908   0.00000  Uiso   1.00
H1335  H     0.38982   0.53885   0.92085   0.00000  Uiso   1.00
C1336  C     0.34504   0.55157   0.86840   0.00000  Uiso   1.00
H1337  H     0.36252   0.57962   0.85136   0.00000  Uiso   1.00
H1338  H     0.65679   0.56821   0.89178   0.00000  Uiso   1.00
H1339  H     0.66023   0.53157   0.84336   0.00000  Uiso   1.00
O1340  O     0.57000   0.53581   0.61652   0.00000  Uiso   1.00
C1341  C     0.56393   0.58249   0.63136   0.00000  Uiso   1.00
H1342  H     0.56433   0.58207   0.66830   0.00000  Uiso   1.00
H1343  H     0.53426   0.59888   0.62000   0.00000  Uiso   1.00
C1344  C     0.59938   0.61346   0.61621   0.00000  Uiso   1.00
H1345  H     0.62918   0.59621   0.62483   0.00000  Uiso   1.00
H1346  H     0.59739   0.61843   0.57960   0.00000  Uiso   1.00
C1347  C     0.59788   0.66153   0.63836   0.00000  Uiso   1.00
H1348  H     0.56840   0.34628   0.63005   0.00000  Uiso   1.00
H1349  H     0.62366   0.35002   0.62624   0.00000  Uiso   1.00
H1350  H     0.60092   0.65785   0.67509   0.00000  Uiso   1.00
O1351  O     0.39354   0.46430   0.54652   0.00000  Uiso   1.00
C1352  C     0.36513   0.50130   0.53763   0.00000  Uiso   1.00
H1353  H     0.33378   0.48836   0.54515   0.00000  Uiso   1.00
H1354  H     0.36390   0.51144   0.50176   0.00000  Uiso   1.00
C1355  C     0.37374   0.54422   0.56732   0.00000  Uiso   1.00
H1356  H     0.35988   0.53858   0.60052   0.00000  Uiso   1.00
H1357  H     0.40723   0.54932   0.57244   0.00000  Uiso   1.00
C1358  C     0.35661   0.58928   0.54660   0.00000  Uiso   1.00
H1359  H     0.37274   0.59726   0.51512   0.00000  Uiso   1.00
H1360  H     0.36131   0.61891   0.56997   0.00000  Uiso   1.00
H1361  H     0.65667   0.58588   0.53937   0.00000  Uiso   1.00
O1362  O     0.60056   0.55634   0.95370   0.00000  Uiso   1.00
C1363  C     0.60167   0.60580   0.95816   0.00000  Uiso   1.00
H1364  H     0.63429   0.61683   0.95564   0.00000  Uiso   1.00
H1365  H     0.59097   0.61853   0.99114   0.00000  Uiso   1.00
C1366  C     0.57678   0.62949   0.92055   0.00000  Uiso   1.00
H1367  H     0.58796   0.61695   0.88786   0.00000  Uiso   1.00
H1368  H     0.54380   0.62006   0.92342   0.00000  Uiso   1.00
C1369  C     0.58062   0.34943   0.92234   0.00000  Uiso   1.00
H1370  H     0.56891   0.36289   0.95445   0.00000  Uiso   1.00
H1371  H     0.56220   0.36542   0.89477   0.00000  Uiso   1.00
H1372  H     0.61325   0.35998   0.91862   0.00000  Uiso   1.00
C1373  C     0.75401   0.50008   0.74872   0.00000  Uiso   1.00
C1374  C     0.91265   0.49995   0.74950   0.00000  Uiso   1.00
C1375  C     0.76305   0.47261   0.52384   0.00000  Uiso   1.00
C1376  C     0.90064   0.53840   0.97642   0.00000  Uiso   1.00
C1377  C     0.68810   0.45749   0.74866   0.00000  Uiso   1.00
C1378  C     0.97846   0.54257   0.74553   0.00000  Uiso   1.00
C1379  C     0.97890   0.45743   0.74926   0.00000  Uiso   1.00
C1380  C     0.68770   0.54263   0.74514   0.00000  Uiso   1.00
C1381  C     0.95724   0.49997   0.74811   0.00000  Uiso   1.00
C1382  C     0.70937   0.50011   0.74716   0.00000  Uiso   1.00
C1383  C     0.80780   0.35838   0.72195   0.00000  Uiso   1.00
C1384  C     0.85893   0.64161   0.77799   0.00000  Uiso   1.00
C1385  C     0.85893   0.35791   0.77799   0.00000  Uiso   1.00
C1386  C     0.80782   0.64208   0.72193   0.00000  Uiso   1.00
C1387  C     0.83460   0.50018   0.66452   0.00000  Uiso   1.00
C1388  C     0.83322   0.49993   0.83556   0.00000  Uiso   1.00
C1389  C     0.86575   0.51887   0.90669   0.00000  Uiso   1.00
C1390  C     0.80059   0.48453   0.59348   0.00000  Uiso   1.00
C1391  C     0.83203   0.50029   0.88377   0.00000  Uiso   1.00
C1392  C     0.83511   0.50103   0.61641   0.00000  Uiso   1.00
C1393  C     0.79739   0.48375   0.90673   0.00000  Uiso   1.00
C1394  C     0.86876   0.51997   0.59354   0.00000  Uiso   1.00
C1395  C     0.79804   0.48412   0.95349   0.00000  Uiso   1.00
C1396  C     0.86836   0.51916   0.54678   0.00000  Uiso   1.00
C1397  C     0.83268   0.50210   0.97668   0.00000  Uiso   1.00
C1398  C     0.83339   0.50222   0.52352   0.00000  Uiso   1.00
C1399  C     0.86659   0.51989   0.95312   0.00000  Uiso   1.00
C1400  C     0.79893   0.48596   0.54708   0.00000  Uiso   1.00
C1401  C     0.76401   0.46843   0.97750   0.00000  Uiso   1.00
C1402  C     0.90200   0.53576   0.52288   0.00000  Uiso   1.00
Cu1403 Cu    0.83333   0.54689   0.75000   0.00000  Uiso   1.00
Cu1404 Cu    0.83333   0.45311   0.75000   0.00000  Uiso   1.00
H1405  H     0.89167   0.53178   0.88796   0.00000  Uiso   1.00
H1406  H     0.77471   0.47137   0.61214   0.00000  Uiso   1.00
H1407  H     0.73711   0.45472   0.96052   0.00000  Uiso   1.00
H1408  H     0.92945   0.54722   0.54010   0.00000  Uiso   1.00
H1409  H     0.70427   0.42422   0.75008   0.00000  Uiso   1.00
H1410  H     0.96226   0.57583   0.74422   0.00000  Uiso   1.00
H1411  H     0.96307   0.42414   0.75098   0.00000  Uiso   1.00
H1412  H     0.70356   0.57591   0.74373   0.00000  Uiso   1.00
H1413  H     0.78734   0.37730   0.69951   0.00000  Uiso   1.00
H1414  H     0.87941   0.62269   0.80042   0.00000  Uiso   1.00
H1415  H     0.87942   0.37646   0.80040   0.00000  Uiso   1.00
H1416  H     0.78738   0.62352   0.69948   0.00000  Uiso   1.00
N1417  N     0.83333   0.61736   0.75000   0.00000  Uiso   1.00
N1418  N     0.83333   0.38264   0.75000   0.00000  Uiso   1.00
O1419  O     0.77321   0.53958   0.75000   0.00000  Uiso   1.00
O1420  O     0.89345   0.46042   0.75001   0.00000  Uiso   1.00
O1421  O     0.89345   0.53958   0.75001   0.00000  Uiso   1.00
O1422  O     0.77321   0.46042   0.75000   0.00000  Uiso   1.00
O1423  O     0.83332   0.53960   0.68513   0.00000  Uiso   1.00
O1424  O     0.83334   0.46040   0.81487   0.00000  Uiso   1.00
O1425  O     0.83334   0.53960   0.81487   0.00000  Uiso   1.00
O1426  O     0.83332   0.46040   0.68513   0.00000  Uiso   1.00
O1427  O     0.76442   0.46345   0.88425   0.00000  Uiso   1.00
C1428  C     0.73972   0.49802   0.86277   0.00000  Uiso   1.00
H1429  H     0.72311   0.48020   0.83528   0.00000  Uiso   1.00
H1430  H     0.75771   0.52687   0.84759   0.00000  Uiso   1.00
C1431  C     0.70755   0.51877   0.89392   0.00000  Uiso   1.00
H1432  H     0.68931   0.49014   0.90908   0.00000  Uiso   1.00
H1433  H     0.72315   0.53885   0.92085   0.00000  Uiso   1.00
C1434  C     0.67837   0.55157   0.86840   0.00000  Uiso   1.00
H1435  H     0.69586   0.57962   0.85136   0.00000  Uiso   1.00
H1436  H     0.99013   0.56821   0.89178   0.00000  Uiso   1.00
H1437  H     0.99356   0.53157   0.84336   0.00000  Uiso   1.00
O1438  O     0.90333   0.53581   0.61652   0.00000  Uiso   1.00
C1439  C     0.89726   0.58249   0.63136   0.00000  Uiso   1.00
H1440  H     0.89767   0.58207   0.66830   0.00000  Uiso   1.00
H1441  H     0.86759   0.59888   0.62000   0.00000  Uiso   1.00
C1442  C     0.93271   0.61346   0.61621   0.00000  Uiso   1.00
H1443  H     0.96252   0.59621   0.62483   0.00000  Uiso   1.00
H1444  H     0.93073   0.61843   0.57960   0.00000  Uiso   1.00
C1445  C     0.93121   0.66153   0.63836   0.00000  Uiso   1.00
H1446  H     0.90173   0.34628   0.63005   0.00000  Uiso   1.00
H1447  H     0.95699   0.35002   0.62624   0.00000  Uiso   1.00
H1448  H     0.93425   0.65785   0.67509   0.00000  Uiso   1.00
O1449  O     0.72687   0.46430   0.54652   0.00000  Uiso   1.00
C1450  C     0.69846   0.50130   0.53763   0.00000  Uiso   1.00
H1451  H     0.66712   0.48836   0.54515   0.00000  Uiso   1.00
H1452  H     0.69723   0.51144   0.50176   0.00000  Uiso   1.00
C1453  C     0.70707   0.54422   0.56732   0.00000  Uiso   1.00
H1454  H     0.69321   0.53858   0.60052   0.00000  Uiso   1.00
H1455  H     0.74056   0.54932   0.57244   0.00000  Uiso   1.00
C1456  C     0.68994   0.58928   0.54660   0.00000  Uiso   1.00
H1457  H     0.70607   0.59726   0.51512   0.00000  Uiso   1.00
H1458  H     0.69464   0.61891   0.56997   0.00000  Uiso   1.00
H1459  H     0.99000   0.58588   0.53937   0.00000  Uiso   1.00
O1460  O     0.93389   0.55634   0.95370   0.00000  Uiso   1.00
C1461  C     0.93500   0.60580   0.95816   0.00000  Uiso   1.00
H1462  H     0.96763   0.61683   0.95564   0.00000  Uiso   1.00
H1463  H     0.92431   0.61853   0.99114   0.00000  Uiso   1.00
C1464  C     0.91012   0.62949   0.92055   0.00000  Uiso   1.00
H1465  H     0.92129   0.61695   0.88786   0.00000  Uiso   1.00
H1466  H     0.87713   0.62006   0.92342   0.00000  Uiso   1.00
C1467  C     0.91395   0.34943   0.92234   0.00000  Uiso   1.00
H1468  H     0.90225   0.36289   0.95445   0.00000  Uiso   1.00
H1469  H     0.89554   0.36542   0.89477   0.00000  Uiso   1.00
H1470  H     0.94659   0.35998   0.91862   0.00000  Uiso   1.00
C1471  C     0.08734   0.83341   0.74872   0.00000  Uiso   1.00
C1472  C     0.24599   0.83329   0.74950   0.00000  Uiso   1.00
C1473  C     0.09638   0.80594   0.52384   0.00000  Uiso   1.00
C1474  C     0.23398   0.87173   0.97642   0.00000  Uiso   1.00
C1475  C     0.02144   0.79083   0.74866   0.00000  Uiso   1.00
C1476  C     0.31179   0.87590   0.74553   0.00000  Uiso   1.00
C1477  C     0.31223   0.79077   0.74926   0.00000  Uiso   1.00
C1478  C     0.02103   0.87597   0.74514   0.00000  Uiso   1.00
C1479  C     0.29057   0.83330   0.74811   0.00000  Uiso   1.00
C1480  C     0.04270   0.83344   0.74716   0.00000  Uiso   1.00
C1481  C     0.14114   0.69171   0.72195   0.00000  Uiso   1.00
C1482  C     0.19226   0.97494   0.77799   0.00000  Uiso   1.00
C1483  C     0.19227   0.69125   0.77799   0.00000  Uiso   1.00
C1484  C     0.14115   0.97541   0.72193   0.00000  Uiso   1.00
C1485  C     0.16793   0.83352   0.66452   0.00000  Uiso   1.00
C1486  C     0.16655   0.83326   0.83556   0.00000  Uiso   1.00
C1487  C     0.19909   0.85221   0.90669   0.00000  Uiso   1.00
C1488  C     0.13393   0.81786   0.59348   0.00000  Uiso   1.00
C1489  C     0.16536   0.83362   0.88377   0.00000  Uiso   1.00
C1490  C     0.16844   0.83437   0.61641   0.00000  Uiso   1.00
C1491  C     0.13072   0.81708   0.90673   0.00000  Uiso   1.00
C1492  C     0.20209   0.85330   0.59354   0.00000  Uiso   1.00
C1493  C     0.13138   0.81745   0.95349   0.00000  Uiso   1.00
C1494  C     0.20169   0.85250   0.54678   0.00000  Uiso   1.00
C1495  C     0.16601   0.83543   0.97668   0.00000  Uiso   1.00
C1496  C     0.16672   0.83556   0.52352   0.00000  Uiso   1.00
C1497  C     0.19992   0.85322   0.95312   0.00000  Uiso   1.00
C1498  C     0.13226   0.81929   0.54708   0.00000  Uiso   1.00
C1499  C     0.09734   0.80177   0.97750   0.00000  Uiso   1.00
C1500  C     0.23533   0.86910   0.52288   0.00000  Uiso   1.00
Cu1501 Cu    0.16667   0.88022   0.75000   0.00000  Uiso   1.00
Cu1502 Cu    0.16667   0.78645   0.75000   0.00000  Uiso   1.00
H1503  H     0.22501   0.86511   0.88796   0.00000  Uiso   1.00
H1504  H     0.10804   0.80470   0.61214   0.00000  Uiso   1.00
H1505  H     0.07045   0.78806   0.96052   0.00000  Uiso   1.00
H1506  H     0.26278   0.88055   0.54010   0.00000  Uiso   1.00
H1507  H     0.03761   0.75755   0.75008   0.00000  Uiso   1.00
H1508  H     0.29559   0.90917   0.74422   0.00000  Uiso   1.00
H1509  H     0.29640   0.75747   0.75098   0.00000  Uiso   1.00
H1510  H     0.03689   0.90925   0.74373   0.00000  Uiso   1.00
H1511  H     0.12067   0.71064   0.69951   0.00000  Uiso   1.00
H1512  H     0.21274   0.95602   0.80042   0.00000  Uiso   1.00
H1513  H     0.21275   0.70979   0.80040   0.00000  Uiso   1.00
H1514  H     0.12072   0.95685   0.69948   0.00000  Uiso   1.00
N1515  N     0.16667   0.95069   0.75000   0.00000  Uiso   1.00
N1516  N     0.16667   0.71598   0.75000   0.00000  Uiso   1.00
O1517  O     0.10655   0.87291   0.75000   0.00000  Uiso   1.00
O1518  O     0.22679   0.79375   0.75001   0.00000  Uiso   1.00
O1519  O     0.22679   0.87291   0.75001   0.00000  Uiso   1.00
O1520  O     0.10655   0.79375   0.75000   0.00000  Uiso   1.00
O1521  O     0.16666   0.87293   0.68513   0.00000  Uiso   1.00
O1522  O     0.16668   0.79373   0.81487   0.00000  Uiso   1.00
O1523  O     0.16668   0.87293   0.81487   0.00000  Uiso   1.00
O1524  O     0.16666   0.79373   0.68513   0.00000  Uiso   1.00
O1525  O     0.09775   0.79679   0.88425   0.00000  Uiso   1.00
C1526  C     0.07305   0.83135   0.86277   0.00000  Uiso   1.00
H1527  H     0.05644   0.81353   0.83528   0.00000  Uiso   1.00
H1528  H     0.09104   0.86021   0.84759   0.00000  Uiso   1.00
C1529  C     0.04088   0.85210   0.89392   0.00000  Uiso   1.00
H1530  H     0.02265   0.82347   0.90908   0.00000  Uiso   1.00
H1531  H     0.05648   0.87218   0.92085   0.00000  Uiso   1.00
C1532  C     0.01170   0.88490   0.86840   0.00000  Uiso   1.00
H1533  H     0.02919   0.91295   0.85136   0.00000  Uiso   1.00
H1534  H     0.32346   0.90155   0.89178   0.00000  Uiso   1.00
H1535  H     0.32689   0.86490   0.84336   0.00000  Uiso   1.00
O1536  O     0.23666   0.86914   0.61652   0.00000  Uiso   1.00
C1537  C     0.23059   0.91582   0.63136   0.00000  Uiso   1.00
H1538  H     0.23100   0.91540   0.66830   0.00000  Uiso   1.00
H1539  H     0.20092   0.93222   0.62000   0.00000  Uiso   1.00
C1540  C     0.26605   0.94680   0.61621   0.00000  Uiso   1.00
H1541  H     0.29585   0.92955   0.62483   0.00000  Uiso   1.00
H1542  H     0.26406   0.95176   0.57960   0.00000  Uiso   1.00
C1543  C     0.26454   0.99487   0.63836   0.00000  Uiso   1.00
H1544  H     0.23506   0.67961   0.63005   0.00000  Uiso   1.00
H1545  H     0.29032   0.68335   0.62624   0.00000  Uiso   1.00
H1546  H     0.26758   0.99119   0.67509   0.00000  Uiso   1.00
O1547  O     0.06020   0.79763   0.54652   0.00000  Uiso   1.00
C1548  C     0.03179   0.83463   0.53763   0.00000  Uiso   1.00
H1549  H     0.00045   0.82169   0.54515   0.00000  Uiso   1.00
H1550  H     0.03057   0.84477   0.50176   0.00000  Uiso   1.00
C1551  C     0.04041   0.87755   0.56732   0.00000  Uiso   1.00
H1552  H     0.02654   0.87191   0.60052   0.00000  Uiso   1.00
H1553  H     0.07390   0.88265   0.57244   0.00000  Uiso   1.00
C1554  C     0.02327   0.92261   0.54660   0.00000  Uiso   1.00
H1555  H     0.03941   0.93059   0.51512   0.00000  Uiso   1.00
H1556  H     0.02798   0.95224   0.56997   0.00000  Uiso   1.00
H1557  H     0.32334   0.91921   0.53937   0.00000  Uiso   1.00
O1558  O     0.26722   0.88967   0.95370   0.00000  Uiso   1.00
C1559  C     0.26834   0.93914   0.95816   0.00000  Uiso   1.00
H1560  H     0.30096   0.95016   0.95564   0.00000  Uiso   1.00
H1561  H     0.25764   0.95186   0.99114   0.00000  Uiso   1.00
C1562  C     0.24345   0.96283   0.92055   0.00000  Uiso   1.00
H1563  H     0.25463   0.95029   0.88786   0.00000  Uiso   1.00
H1564  H     0.21046   0.95339   0.92342   0.00000  Uiso   1.00
C1565  C     0.24729   0.68277   0.92234   0.00000  Uiso   1.00
H1566  H     0.23558   0.69622   0.95445   0.00000  Uiso   1.00
H1567  H     0.22887   0.69875   0.89477   0.00000  Uiso   1.00
H1568  H     0.27992   0.69331   0.91862   0.00000  Uiso   1.00
C1569  C     0.42068   0.83341   0.74872   0.00000  Uiso   1.00
C1570  C     0.57932   0.83329   0.74950   0.00000  Uiso   1.00
C1571  C     0.42972   0.80594   0.52384   0.00000  Uiso   1.00
C1572  C     0.56731   0.87173   0.97642   0.00000  Uiso   1.00
C1573  C     0.35477   0.79083   0.74866   0.00000  Uiso   1.00
C1574  C     0.64512   0.87590   0.74553   0.00000  Uiso   1.00
C1575  C     0.64556   0.79077   0.74926   0.00000  Uiso   1.00
C1576  C     0.35437   0.87597   0.74514   0.00000  Uiso   1.00
C1577  C     0.62390   0.83330   0.74811   0.00000  Uiso   1.00
C1578  C     0.37603   0.83344   0.74716   0.00000  Uiso   1.00
C1579  C     0.47447   0.69171   0.72195   0.00000  Uiso   1.00
C1580  C     0.52560   0.97494   0.77799   0.00000  Uiso   1.00
C1581  C     0.52560   0.69125   0.77799   0.00000  Uiso   1.00
C1582  C     0.47449   0.97541   0.72193   0.00000  Uiso   1.00
C1583  C     0.50127   0.83352   0.66452   0.00000  Uiso   1.00
C1584  C     0.49989   0.83326   0.83556   0.00000  Uiso   1.00
C1585  C     0.53242   0.85221   0.90669   0.00000  Uiso   1.00
C1586  C     0.46726   0.81786   0.59348   0.00000  Uiso   1.00
C1587  C     0.49870   0.83362   0.88377   0.00000  Uiso   1.00
C1588  C     0.50178   0.83437   0.61641   0.00000  Uiso   1.00
C1589  C     0.46405   0.81708   0.90673   0.00000  Uiso   1.00
C1590  C     0.53542   0.85330   0.59354   0.00000  Uiso   1.00
C1591  C     0.46471   0.81745   0.95349   0.00000  Uiso   1.00
C1592  C     0.53502   0.85250   0.54678   0.00000  Uiso   1.00
C1593  C     0.49934   0.83543   0.97668   0.00000  Uiso   1.00
C1594  C     0.50006   0.83556   0.52352   0.00000  Uiso   1.00
C1595  C     0.53326   0.85322   0.95312   0.00000  Uiso   1.00
C1596  C     0.46559   0.81929   0.54708   0.00000  Uiso   1.00
C1597  C     0.43067   0.80177   0.97750   0.00000  Uiso   1.00
C1598  C     0.56867   0.86910   0.52288   0.00000  Uiso   1.00
Cu1599 Cu    0.50000   0.88022   0.75000   0.00000  Uiso   1.00
Cu1600 Cu    0.50000   0.78645   0.75000   0.00000  Uiso   1.00
H1601  H     0.55834   0.86511   0.88796   0.00000  Uiso   1.00
H1602  H     0.44138   0.80470   0.61214   0.00000  Uiso   1.00
H1603  H     0.40378   0.78806   0.96052   0.00000  Uiso   1.00
H1604  H     0.59612   0.88055   0.54010   0.00000  Uiso   1.00
H1605  H     0.37094   0.75755   0.75008   0.00000  Uiso   1.00
H1606  H     0.62893   0.90917   0.74422   0.00000  Uiso   1.00
H1607  H     0.62974   0.75747   0.75098   0.00000  Uiso   1.00
H1608  H     0.37023   0.90925   0.74373   0.00000  Uiso   1.00
H1609  H     0.45401   0.71064   0.69951   0.00000  Uiso   1.00
H1610  H     0.54608   0.95602   0.80042   0.00000  Uiso   1.00
H1611  H     0.54609   0.70979   0.80040   0.00000  Uiso   1.00
H1612  H     0.45405   0.95685   0.69948   0.00000  Uiso   1.00
N1613  N     0.50000   0.95069   0.75000   0.00000  Uiso   1.00
N1614  N     0.50000   0.71598   0.75000   0.00000  Uiso   1.00
O1615  O     0.43988   0.87291   0.75000   0.00000  Uiso   1.00
O1616  O     0.56012   0.79375   0.75001   0.00000  Uiso   1.00
O1617  O     0.56012   0.87291   0.75001   0.00000  Uiso   1.00
O1618  O     0.43988   0.79375   0.75000   0.00000  Uiso   1.00
O1619  O     0.49999   0.87293   0.68513   0.00000  Uiso   1.00
O1620  O     0.50001   0.79373   0.81487   0.00000  Uiso   1.00
O1621  O     0.50001   0.87293   0.81487   0.00000  Uiso   1.00
O1622  O     0.49999   0.79373   0.68513   0.00000  Uiso   1.00
O1623  O     0.43109   0.79679   0.88425   0.00000  Uiso   1.00
C1624  C     0.40639   0.83135   0.86277   0.00000  Uiso   1.00
H1625  H     0.38978   0.81353   0.83528   0.00000  Uiso   1.00
H1626  H     0.42437   0.86021   0.84759   0.00000  Uiso   1.00
C1627  C     0.37422   0.85210   0.89392   0.00000  Uiso   1.00
H1628  H     0.35598   0.82347   0.90908   0.00000  Uiso   1.00
H1629  H     0.38982   0.87218   0.92085   0.00000  Uiso   1.00
C1630  C     0.34504   0.88490   0.86840   0.00000  Uiso   1.00
H1631  H     0.36252   0.91295   0.85136   0.00000  Uiso   1.00
H1632  H     0.65679   0.90155   0.89178   0.00000  Uiso   1.00
H1633  H     0.66023   0.86490   0.84336   0.00000  Uiso   1.00
O1634  O     0.57000   0.86914   0.61652   0.00000  Uiso   1.00
C1635  C     0.56393   0.91582   0.63136   0.00000  Uiso   1.00
H1636  H     0.56433   0.91540   0.66830   0.00000  Uiso   1.00
H1637  H     0.53426   0.93222   0.62000   0.00000  Uiso   1.00
C1638  C     0.59938   0.94680   0.61621   0.00000  Uiso   1.00
H1639  H     0.62918   0.92955   0.62483   0.00000  Uiso   1.00
H1640  H     0.59739   0.95176   0.57960   0.00000  Uiso   1.00
C1641  C     0.59788   0.99487   0.63836   0.00000  Uiso   1.00
H1642  H     0.56840   0.67961   0.63005   0.00000  Uiso   1.00
H1643  H     0.62366   0.68335   0.62624   0.00000  Uiso   1.00
H1644  H     0.60092   0.99119   0.67509   0.00000  Uiso   1.00
O1645  O     0.39354   0.79763   0.54652   0.00000  Uiso   1.00
C1646  C     0.36513   0.83463   0.53763   0.00000  Uiso   1.00
H1647  H     0.33378   0.82169   0.54515   0.00000  Uiso   1.00
H1648  H     0.36390   0.84477   0.50176   0.00000  Uiso   1.00
C1649  C     0.37374   0.87755   0.56732   0.00000  Uiso   1.00
H1650  H     0.35988   0.87191   0.60052   0.00000  Uiso   1.00
H1651  H     0.40723   0.88265   0.57244   0.00000  Uiso   1.00
C1652  C     0.35661   0.92261   0.54660   0.00000  Uiso   1.00
H1653  H     0.37274   0.93059   0.51512   0.00000  Uiso   1.00
H1654  H     0.36131   0.95224   0.56997   0.00000  Uiso   1.00
H1655  H     0.65667   0.91921   0.53937   0.00000  Uiso   1.00
O1656  O     0.60056   0.88967   0.95370   0.00000  Uiso   1.00
C1657  C     0.60167   0.93914   0.95816   0.00000  Uiso   1.00
H1658  H     0.63429   0.95016   0.95564   0.00000  Uiso   1.00
H1659  H     0.59097   0.95186   0.99114   0.00000  Uiso   1.00
C1660  C     0.57678   0.96283   0.92055   0.00000  Uiso   1.00
H1661  H     0.58796   0.95029   0.88786   0.00000  Uiso   1.00
H1662  H     0.54380   0.95339   0.92342   0.00000  Uiso   1.00
C1663  C     0.58062   0.68277   0.92234   0.00000  Uiso   1.00
H1664  H     0.56891   0.69622   0.95445   0.00000  Uiso   1.00
H1665  H     0.56220   0.69875   0.89477   0.00000  Uiso   1.00
H1666  H     0.61325   0.69331   0.91862   0.00000  Uiso   1.00
C1667  C     0.75401   0.83341   0.74872   0.00000  Uiso   1.00
C1668  C     0.91265   0.83329   0.74950   0.00000  Uiso   1.00
C1669  C     0.76305   0.80594   0.52384   0.00000  Uiso   1.00
C1670  C     0.90064   0.87173   0.97642   0.00000  Uiso   1.00
C1671  C     0.68810   0.79083   0.74866   0.00000  Uiso   1.00
C1672  C     0.97846   0.87590   0.74553   0.00000  Uiso   1.00
C1673  C     0.97890   0.79077   0.74926   0.00000  Uiso   1.00
C1674  C     0.68770   0.87597   0.74514   0.00000  Uiso   1.00
C1675  C     0.95724   0.83330   0.74811   0.00000  Uiso   1.00
C1676  C     0.70937   0.83344   0.74716   0.00000  Uiso   1.00
C1677  C     0.80780   0.69171   0.72195   0.00000  Uiso   1.00
C1678  C     0.85893   0.97494   0.77799   0.00000  Uiso   1.00
C1679  C     0.85893   0.69125   0.77799   0.00000  Uiso   1.00
C1680  C     0.80782   0.97541   0.72193   0.00000  Uiso   1.00
C1681  C     0.83460   0.83352   0.66452   0.00000  Uiso   1.00
C1682  C     0.83322   0.83326   0.83556   0.00000  Uiso   1.00
C1683  C     0.86575   0.85221   0.90669   0.00000  Uiso   1.00
C1684  C     0.80059   0.81786   0.59348   0.00000  Uiso   1.00
C1685  C     0.83203   0.83362   0.88377   0.00000  Uiso   1.00
C1686  C     0.83511   0.83437   0.61641   0.00000  Uiso   1.00
C1687  C     0.79739   0.81708   0.90673   0.00000  Uiso   1.00
C1688  C     0.86876   0.85330   0.59354   0.00000  Uiso   1.00
C1689  C     0.79804   0.81745   0.95349   0.00000  Uiso   1.00
C1690  C     0.86836   0.85250   0.54678   0.00000  Uiso   1.00
C1691  C     0.83268   0.83543   0.97668   0.00000  Uiso   1.00
C1692  C     0.83339   0.83556   0.52352   0.00000  Uiso   1.00
C1693  C     0.86659   0.85322   0.95312   0.00000  Uiso   1.00
C1694  C     0.79893   0.81929   0.54708   0.00000  Uiso   1.00
C1695  C     0.76401   0.80177   0.97750   0.00000  Uiso   1.00
C1696  C     0.90200   0.86910   0.52288   0.00000  Uiso   1.00
Cu1697 Cu    0.83333   0.88022   0.75000   0.00000  Uiso   1.00
Cu1698 Cu    0.83333   0.78645   0.75000   0.00000  Uiso   1.00
H1699  H     0.89167   0.86511   0.88796   0.00000  Uiso   1.00
H1700  H     0.77471   0.80470   0.61214   0.00000  Uiso   1.00
H1701  H     0.73711   0.78806   0.96052   0.00000  Uiso   1.00
H1702  H     0.92945   0.88055   0.54010   0.00000  Uiso   1.00
H1703  H     0.70427   0.75755   0.75008   0.00000  Uiso   1.00
H1704  H     0.96226   0.90917   0.74422   0.00000  Uiso   1.00
H1705  H     0.96307   0.75747   0.75098   0.00000  Uiso   1.00
H1706  H     0.70356   0.90925   0.74373   0.00000  Uiso   1.00
H1707  H     0.78734   0.71064   0.69951   0.00000  Uiso   1.00
H1708  H     0.87941   0.95602   0.80042   0.00000  Uiso   1.00
H1709  H     0.87942   0.70979   0.80040   0.00000  Uiso   1.00
H1710  H     0.78738   0.95685   0.69948   0.00000  Uiso   1.00
N1711  N     0.83333   0.95069   0.75000   0.00000  Uiso   1.00
N1712  N     0.83333   0.71598   0.75000   0.00000  Uiso   1.00
O1713  O     0.77321   0.87291   0.75000   0.00000  Uiso   1.00
O1714  O     0.89345   0.79375   0.75001   0.00000  Uiso   1.00
O1715  O     0.89345   0.87291   0.75001   0.00000  Uiso   1.00
O1716  O     0.77321   0.79375   0.75000   0.00000  Uiso   1.00
O1717  O     0.83332   0.87293   0.68513   0.00000  Uiso   1.00
O1718  O     0.83334   0.79373   0.81487   0.00000  Uiso   1.00
O1719  O     0.83334   0.87293   0.81487   0.00000  Uiso   1.00
O1720  O     0.83332   0.79373   0.68513   0.00000  Uiso   1.00
O1721  O     0.76442   0.79679   0.88425   0.00000  Uiso   1.00
C1722  C     0.73972   0.83135   0.86277   0.00000  Uiso   1.00
H1723  H     0.72311   0.81353   0.83528   0.00000  Uiso   1.00
H1724  H     0.75771   0.86021   0.84759   0.00000  Uiso   1.00
C1725  C     0.70755   0.85210   0.89392   0.00000  Uiso   1.00
H1726  H     0.68931   0.82347   0.90908   0.00000  Uiso   1.00
H1727  H     0.72315   0.87218   0.92085   0.00000  Uiso   1.00
C1728  C     0.67837   0.88490   0.86840   0.00000  Uiso   1.00
H1729  H     0.69586   0.91295   0.85136   0.00000  Uiso   1.00
H1730  H     0.99013   0.90155   0.89178   0.00000  Uiso   1.00
H1731  H     0.99356   0.86490   0.84336   0.00000  Uiso   1.00
O1732  O     0.90333   0.86914   0.61652   0.00000  Uiso   1.00
C1733  C     0.89726   0.91582   0.63136   0.00000  Uiso   1.00
H1734  H     0.89767   0.91540   0.66830   0.00000  Uiso   1.00
H1735  H     0.86759   0.93222   0.62000   0.00000  Uiso   1.00
C1736  C     0.93271   0.94680   0.61621   0.00000  Uiso   1.00
H1737  H     0.96252   0.92955   0.62483   0.00000  Uiso   1.00
H1738  H     0.93073   0.95176   0.57960   0.00000  Uiso   1.00
C1739  C     0.93121   0.99487   0.63836   0.00000  Uiso   1.00
H1740  H     0.90173   0.67961   0.63005   0.00000  Uiso   1.00
H1741  H     0.95699   0.68335   0.62624   0.00000  Uiso   1.00
H1742  H     0.93425   0.99119   0.67509   0.00000  Uiso   1.00
O1743  O     0.72687   0.79763   0.54652   0.00000  Uiso   1.00
C1744  C     0.69846   0.83463   0.53763   0.00000  Uiso   1.00
H1745  H     0.66712   0.82169   0.54515   0.00000  Uiso   1.00
H1746  H     0.69723   0.84477   0.50176   0.00000  Uiso   1.00
C1747  C     0.70707   0.87755   0.56732   0.00000  Uiso   1.00
H1748  H     0.69321   0.87191   0.60052   0.00000  Uiso   1.00
H1749  H     0.74056   0.88265   0.57244   0.00000  Uiso   1.00
C1750  C     0.68994   0.92261   0.54660   0.00000  Uiso   1.00
H1751  H     0.70607   0.93059   0.51512   0.00000  Uiso   1.00
H1752  H     0.69464   0.95224   0.56997   0.00000  Uiso   1.00
H1753  H     0.99000   0.91921   0.53937   0.00000  Uiso   1.00
O1754  O     0.93389   0.88967   0.95370   0.00000  Uiso   1.00
C1755  C     0.93500   0.93914   0.95816   0.00000  Uiso   1.00
H1756  H     0.96763   0.95016   0.95564   0.00000  Uiso   1.00
H1757  H     0.92431   0.95186   0.99114   0.00000  Uiso   1.00
C1758  C     0.91012   0.96283   0.92055   0.00000  Uiso   1.00
H1759  H     0.92129   0.95029   0.88786   0.00000  Uiso   1.00
H1760  H     0.87713   0.95339   0.92342   0.00000  Uiso   1.00
C1761  C     0.91395   0.68277   0.92234   0.00000  Uiso   1.00
H1762  H     0.90225   0.69622   0.95445   0.00000  Uiso   1.00
H1763  H     0.89554   0.69875   0.89477   0.00000  Uiso   1.00
H1764  H     0.94659   0.69331   0.91862   0.00000  Uiso   1.00
loop_
_geom_bond_atom_site_label_1
_geom_bond_atom_site_label_2
_geom_bond_distance
_geom_bond_site_symmetry_2
_ccdc_geom_bond_type
C1     O50     1.290   .     A
C1     O47     1.291   .     A
C1     C10     1.451   .     S
C2     O48     1.291   .     A
C2     O49     1.289   .     A
C2     C9      1.450   .     S
C3     C28     1.406   .     A
C3     O77     1.388   .     S
C3     C911    1.399   1_554 S
C4     C27     1.407   .     A
C4     O88     1.385   .     S
C4     C912    1.398   .     S
C5     H37     1.083   .     S
C5     C10     1.402   .     A
C5     C203    1.383   1_455 S
C6     C9      1.402   .     A
C6     H38     1.083   .     S
C6     C106    1.384   .     S
C7     C9      1.400   .     A
C7     H39     1.083   .     S
C7     C103    1.383   .     S
C8     C10     1.401   .     A
C8     H40     1.083   .     S
C8     C202    1.384   1_455 S
C11    H41     1.082   .     S
C11    N46     1.367   .     A
C11    C602    1.416   1_545 S
C12    H42     1.082   .     S
C12    N45     1.367   .     A
C12    C307    1.416   .     S
C13    N46     1.367   .     A
C13    H43     1.082   .     S
C13    C600    1.416   1_545 S
C14    N45     1.367   .     A
C14    H44     1.082   .     S
C14    C305    1.416   .     S
C15    O51     1.286   .     A
C15    C20     1.446   .     S
C15    O54     1.292   .     A
C16    O53     1.289   .     A
C16    O52     1.289   .     A
C16    C19     1.449   .     S
C17    H33     1.085   .     S
C17    C27     1.395   .     A
C17    C19     1.395   .     A
C18    C28     1.395   .     A
C18    H34     1.085   .     S
C18    C20     1.393   .     A
C19    C21     1.411   .     A
C20    C22     1.408   .     A
C21    O55     1.389   .     S
C21    C23     1.405   .     A
C22    O66     1.389   .     S
C22    C24     1.405   .     A
C23    C29     1.403   .     A
C23    C25     1.415   .     A
C24    C26     1.414   .     A
C24    C30     1.400   .     A
C25    C27     1.413   .     A
C25    C908    1.407   .     S
C26    C28     1.412   .     A
C26    C907    1.407   1_554 S
C29    H35     1.082   .     S
C29    C885    1.399   .     S
C30    H36     1.078   .     S
C30    C886    1.398   1_554 S
Cu31   O47     1.966   .     S
Cu31   O49     1.964   .     S
Cu31   Cu32    2.675   .     S
Cu31   O53     1.959   .     S
Cu31   O51     1.961   .     S
Cu31   N45     2.010   .     S
Cu32   O48     1.966   .     S
Cu32   O52     1.961   .     S
Cu32   O54     1.959   .     S
Cu32   O50     1.964   .     S
Cu32   N46     2.010   .     S
O55    C56     1.417   .     S
C56    H57     1.107   .     S
C56    C59     1.531   .     S
C56    H58     1.112   .     S
C59    H60     1.111   .     S
C59    H61     1.111   .     S
C59    C62     1.526   .     S
C62    H63     1.111   .     S
C62    H260    1.106   1_455 S
C62    H261    1.110   1_455 S
H64    C160    1.106   .     S
H65    C160    1.110   .     S
O66    C67     1.419   .     S
C67    H68     1.110   .     S
C67    H69     1.119   .     S
C67    C70     1.528   .     S
C70    H71     1.112   .     S
C70    C73     1.527   .     S
C70    H72     1.110   .     S
C73    H76     1.111   .     S
C73    H368    1.111   .     S
C73    H369    1.110   .     S
H74    C661    1.111   1_545 S
H75    C661    1.110   1_545 S
O77    C78     1.421   .     S
C78    H80     1.115   .     S
C78    H79     1.111   .     S
C78    C81     1.542   .     S
C81    H82     1.112   .     S
C81    H83     1.108   .     S
C81    C84     1.526   .     S
C84    H85     1.111   .     S
C84    H86     1.110   .     S
C84    H283    1.105   1_455 S
H87    C182    1.105   .     S
O88    C89     1.418   .     S
C89    H91     1.116   .     S
C89    C92     1.534   .     S
C89    H90     1.111   .     S
C92    H94     1.111   .     S
C92    H93     1.112   .     S
C92    C389    1.526   .     S
C95    H96     1.111   .     S
C95    H98     1.111   .     S
C95    H97     1.111   .     S
C95    C680    1.526   1_545 S
C99    O148    1.290   .     A
C99    O145    1.291   .     A
C99    C108    1.451   .     S
C100   O146    1.291   .     A
C100   O147    1.289   .     A
C100   C107    1.450   .     S
C101   C126    1.406   .     A
C101   O175    1.388   .     S
C101   C1009   1.399   1_554 S
C102   C125    1.407   .     A
C102   O186    1.385   .     S
C102   C1010   1.398   .     S
C103   H135    1.083   .     S
C103   C108    1.402   .     A
C104   C107    1.402   .     A
C104   H136    1.083   .     S
C104   C204    1.384   .     S
C105   C107    1.400   .     A
C105   H137    1.083   .     S
C105   C201    1.383   .     S
C106   C108    1.401   .     A
C106   H138    1.083   .     S
C109   H139    1.082   .     S
C109   N144    1.367   .     A
C109   C700    1.416   1_545 S
C110   H140    1.082   .     S
C110   N143    1.367   .     A
C110   C405    1.416   .     S
C111   N144    1.367   .     A
C111   H141    1.082   .     S
C111   C698    1.416   1_545 S
C112   N143    1.367   .     A
C112   H142    1.082   .     S
C112   C403    1.416   .     S
C113   O149    1.286   .     A
C113   C118    1.446   .     S
C113   O152    1.292   .     A
C114   O151    1.289   .     A
C114   O150    1.289   .     A
C114   C117    1.449   .     S
C115   H131    1.085   .     S
C115   C125    1.395   .     A
C115   C117    1.395   .     A
C116   C126    1.395   .     A
C116   H132    1.085   .     S
C116   C118    1.393   .     A
C117   C119    1.411   .     A
C118   C120    1.408   .     A
C119   O153    1.389   .     S
C119   C121    1.405   .     A
C120   O164    1.389   .     S
C120   C122    1.405   .     A
C121   C127    1.403   .     A
C121   C123    1.415   .     A
C122   C124    1.414   .     A
C122   C128    1.400   .     A
C123   C125    1.413   .     A
C123   C1006   1.407   .     S
C124   C126    1.412   .     A
C124   C1005   1.407   1_554 S
C127   H133    1.082   .     S
C127   C983    1.399   .     S
C128   H134    1.078   .     S
C128   C984    1.398   1_554 S
Cu129  O145    1.966   .     S
Cu129  O147    1.964   .     S
Cu129  Cu130   2.675   .     S
Cu129  O151    1.959   .     S
Cu129  O149    1.961   .     S
Cu129  N143    2.010   .     S
Cu130  O146    1.966   .     S
Cu130  O150    1.961   .     S
Cu130  O152    1.959   .     S
Cu130  O148    1.964   .     S
Cu130  N144    2.010   .     S
O153   C154    1.417   .     S
C154   H155    1.107   .     S
C154   C157    1.531   .     S
C154   H156    1.112   .     S
C157   H158    1.111   .     S
C157   H159    1.111   .     S
C157   C160    1.526   .     S
C160   H161    1.111   .     S
H162   C258    1.106   .     S
H163   C258    1.110   .     S
O164   C165    1.419   .     S
C165   H166    1.110   .     S
C165   H167    1.119   .     S
C165   C168    1.528   .     S
C168   H169    1.112   .     S
C168   C171    1.527   .     S
C168   H170    1.110   .     S
C171   H174    1.111   .     S
C171   H466    1.111   .     S
C171   H467    1.110   .     S
H172   C759    1.111   1_545 S
H173   C759    1.110   1_545 S
O175   C176    1.421   .     S
C176   H178    1.115   .     S
C176   H177    1.111   .     S
C176   C179    1.542   .     S
C179   H180    1.112   .     S
C179   H181    1.108   .     S
C179   C182    1.526   .     S
C182   H183    1.111   .     S
C182   H184    1.110   .     S
H185   C280    1.105   .     S
O186   C187    1.418   .     S
C187   H189    1.116   .     S
C187   C190    1.534   .     S
C187   H188    1.111   .     S
C190   H192    1.111   .     S
C190   H191    1.112   .     S
C190   C487    1.526   .     S
C193   H194    1.111   .     S
C193   H196    1.111   .     S
C193   H195    1.111   .     S
C193   C778    1.526   1_545 S
C197   O246    1.290   .     A
C197   O243    1.291   .     A
C197   C206    1.451   .     S
C198   O244    1.291   .     A
C198   O245    1.289   .     A
C198   C205    1.450   .     S
C199   C224    1.406   .     A
C199   O273    1.388   .     S
C199   C1107   1.399   1_554 S
C200   C223    1.407   .     A
C200   O284    1.385   .     S
C200   C1108   1.398   .     S
C201   H233    1.083   .     S
C201   C206    1.402   .     A
C202   C205    1.402   .     A
C202   H234    1.083   .     S
C202   C8      1.384   1_655 S
C203   C205    1.400   .     A
C203   H235    1.083   .     S
C203   C5      1.383   1_655 S
C204   C206    1.401   .     A
C204   H236    1.083   .     S
C207   H237    1.082   .     S
C207   N242    1.367   .     A
C207   C798    1.416   1_545 S
C208   H238    1.082   .     S
C208   N241    1.367   .     A
C208   C503    1.416   .     S
C209   N242    1.367   .     A
C209   H239    1.082   .     S
C209   C796    1.416   1_545 S
C210   N241    1.367   .     A
C210   H240    1.082   .     S
C210   C501    1.416   .     S
C211   O247    1.286   .     A
C211   C216    1.446   .     S
C211   O250    1.292   .     A
C212   O249    1.289   .     A
C212   O248    1.289   .     A
C212   C215    1.449   .     S
C213   H229    1.085   .     S
C213   C223    1.395   .     A
C213   C215    1.395   .     A
C214   C224    1.395   .     A
C214   H230    1.085   .     S
C214   C216    1.393   .     A
C215   C217    1.411   .     A
C216   C218    1.408   .     A
C217   O251    1.389   .     S
C217   C219    1.405   .     A
C218   O262    1.389   .     S
C218   C220    1.405   .     A
C219   C225    1.403   .     A
C219   C221    1.415   .     A
C220   C222    1.414   .     A
C220   C226    1.400   .     A
C221   C223    1.413   .     A
C221   C1104   1.407   .     S
C222   C224    1.412   .     A
C222   C1103   1.407   1_554 S
C225   H231    1.082   .     S
C225   C1081   1.399   .     S
C226   H232    1.078   .     S
C226   C1082   1.398   1_554 S
Cu227  O243    1.966   .     S
Cu227  O245    1.964   .     S
Cu227  Cu228   2.675   .     S
Cu227  O249    1.959   .     S
Cu227  O247    1.961   .     S
Cu227  N241    2.010   .     S
Cu228  O244    1.966   .     S
Cu228  O248    1.961   .     S
Cu228  O250    1.959   .     S
Cu228  O246    1.964   .     S
Cu228  N242    2.010   .     S
O251   C252    1.417   .     S
C252   H253    1.107   .     S
C252   C255    1.531   .     S
C252   H254    1.112   .     S
C255   H256    1.111   .     S
C255   H257    1.111   .     S
C255   C258    1.526   .     S
C258   H259    1.111   .     S
H260   C62     1.106   1_655 S
H261   C62     1.110   1_655 S
O262   C263    1.419   .     S
C263   H264    1.110   .     S
C263   H265    1.119   .     S
C263   C266    1.528   .     S
C266   H267    1.112   .     S
C266   C269    1.527   .     S
C266   H268    1.110   .     S
C269   H272    1.111   .     S
C269   H564    1.111   .     S
C269   H565    1.110   .     S
H270   C857    1.111   1_545 S
H271   C857    1.110   1_545 S
O273   C274    1.421   .     S
C274   H276    1.115   .     S
C274   H275    1.111   .     S
C274   C277    1.542   .     S
C277   H278    1.112   .     S
C277   H279    1.108   .     S
C277   C280    1.526   .     S
C280   H281    1.111   .     S
C280   H282    1.110   .     S
H283   C84     1.105   1_655 S
O284   C285    1.418   .     S
C285   H287    1.116   .     S
C285   C288    1.534   .     S
C285   H286    1.111   .     S
C288   H290    1.111   .     S
C288   H289    1.112   .     S
C288   C585    1.526   .     S
C291   H292    1.111   .     S
C291   H294    1.111   .     S
C291   H293    1.111   .     S
C291   C876    1.526   1_545 S
C295   O344    1.290   .     A
C295   O341    1.291   .     A
C295   C304    1.451   .     S
C296   O342    1.291   .     A
C296   O343    1.289   .     A
C296   C303    1.450   .     S
C297   C322    1.406   .     A
C297   O371    1.388   .     S
C297   C1205   1.399   1_554 S
C298   C321    1.407   .     A
C298   O382    1.385   .     S
C298   C1206   1.398   .     S
C299   H331    1.083   .     S
C299   C304    1.402   .     A
C299   C497    1.383   1_455 S
C300   C303    1.402   .     A
C300   H332    1.083   .     S
C300   C400    1.384   .     S
C301   C303    1.400   .     A
C301   H333    1.083   .     S
C301   C397    1.383   .     S
C302   C304    1.401   .     A
C302   H334    1.083   .     S
C302   C496    1.384   1_455 S
C305   H335    1.082   .     S
C305   N340    1.367   .     A
C306   H336    1.082   .     S
C306   N339    1.367   .     A
C306   C601    1.416   .     S
C307   N340    1.367   .     A
C307   H337    1.082   .     S
C308   N339    1.367   .     A
C308   H338    1.082   .     S
C308   C599    1.416   .     S
C309   O345    1.286   .     A
C309   C314    1.446   .     S
C309   O348    1.292   .     A
C310   O347    1.289   .     A
C310   O346    1.289   .     A
C310   C313    1.449   .     S
C311   H327    1.085   .     S
C311   C321    1.395   .     A
C311   C313    1.395   .     A
C312   C322    1.395   .     A
C312   H328    1.085   .     S
C312   C314    1.393   .     A
C313   C315    1.411   .     A
C314   C316    1.408   .     A
C315   O349    1.389   .     S
C315   C317    1.405   .     A
C316   O360    1.389   .     S
C316   C318    1.405   .     A
C317   C323    1.403   .     A
C317   C319    1.415   .     A
C318   C320    1.414   .     A
C318   C324    1.400   .     A
C319   C321    1.413   .     A
C319   C1202   1.407   .     S
C320   C322    1.412   .     A
C320   C1201   1.407   1_554 S
C323   H329    1.082   .     S
C323   C1179   1.399   .     S
C324   H330    1.078   .     S
C324   C1180   1.398   1_554 S
Cu325  O341    1.966   .     S
Cu325  O343    1.964   .     S
Cu325  Cu326   2.675   .     S
Cu325  O347    1.959   .     S
Cu325  O345    1.961   .     S
Cu325  N339    2.010   .     S
Cu326  O342    1.966   .     S
Cu326  O346    1.961   .     S
Cu326  O348    1.959   .     S
Cu326  O344    1.964   .     S
Cu326  N340    2.010   .     S
O349   C350    1.417   .     S
C350   H351    1.107   .     S
C350   C353    1.531   .     S
C350   H352    1.112   .     S
C353   H354    1.111   .     S
C353   H355    1.111   .     S
C353   C356    1.526   .     S
C356   H357    1.111   .     S
C356   H554    1.106   1_455 S
C356   H555    1.110   1_455 S
H358   C454    1.106   .     S
H359   C454    1.110   .     S
O360   C361    1.419   .     S
C361   H362    1.110   .     S
C361   H363    1.119   .     S
C361   C364    1.528   .     S
C364   H365    1.112   .     S
C364   C367    1.527   .     S
C364   H366    1.110   .     S
C367   H370    1.111   .     S
C367   H662    1.111   .     S
C367   H663    1.110   .     S
O371   C372    1.421   .     S
C372   H374    1.115   .     S
C372   H373    1.111   .     S
C372   C375    1.542   .     S
C375   H376    1.112   .     S
C375   H377    1.108   .     S
C375   C378    1.526   .     S
C378   H379    1.111   .     S
C378   H380    1.110   .     S
C378   H577    1.105   1_455 S
H381   C476    1.105   .     S
O382   C383    1.418   .     S
C383   H385    1.116   .     S
C383   C386    1.534   .     S
C383   H384    1.111   .     S
C386   H388    1.111   .     S
C386   H387    1.112   .     S
C386   C683    1.526   .     S
C389   H390    1.111   .     S
C389   H392    1.111   .     S
C389   H391    1.111   .     S
C393   O442    1.290   .     A
C393   O439    1.291   .     A
C393   C402    1.451   .     S
C394   O440    1.291   .     A
C394   O441    1.289   .     A
C394   C401    1.450   .     S
C395   C420    1.406   .     A
C395   O469    1.388   .     S
C395   C1303   1.399   1_554 S
C396   C419    1.407   .     A
C396   O480    1.385   .     S
C396   C1304   1.398   .     S
C397   H429    1.083   .     S
C397   C402    1.402   .     A
C398   C401    1.402   .     A
C398   H430    1.083   .     S
C398   C498    1.384   .     S
C399   C401    1.400   .     A
C399   H431    1.083   .     S
C399   C495    1.383   .     S
C400   C402    1.401   .     A
C400   H432    1.083   .     S
C403   H433    1.082   .     S
C403   N438    1.367   .     A
C404   H434    1.082   .     S
C404   N437    1.367   .     A
C404   C699    1.416   .     S
C405   N438    1.367   .     A
C405   H435    1.082   .     S
C406   N437    1.367   .     A
C406   H436    1.082   .     S
C406   C697    1.416   .     S
C407   O443    1.286   .     A
C407   C412    1.446   .     S
C407   O446    1.292   .     A
C408   O445    1.289   .     A
C408   O444    1.289   .     A
C408   C411    1.449   .     S
C409   H425    1.085   .     S
C409   C419    1.395   .     A
C409   C411    1.395   .     A
C410   C420    1.395   .     A
C410   H426    1.085   .     S
C410   C412    1.393   .     A
C411   C413    1.411   .     A
C412   C414    1.408   .     A
C413   O447    1.389   .     S
C413   C415    1.405   .     A
C414   O458    1.389   .     S
C414   C416    1.405   .     A
C415   C421    1.403   .     A
C415   C417    1.415   .     A
C416   C418    1.414   .     A
C416   C422    1.400   .     A
C417   C419    1.413   .     A
C417   C1300   1.407   .     S
C418   C420    1.412   .     A
C418   C1299   1.407   1_554 S
C421   H427    1.082   .     S
C421   C1277   1.399   .     S
C422   H428    1.078   .     S
C422   C1278   1.398   1_554 S
Cu423  O439    1.966   .     S
Cu423  O441    1.964   .     S
Cu423  Cu424   2.675   .     S
Cu423  O445    1.959   .     S
Cu423  O443    1.961   .     S
Cu423  N437    2.010   .     S
Cu424  O440    1.966   .     S
Cu424  O444    1.961   .     S
Cu424  O446    1.959   .     S
Cu424  O442    1.964   .     S
Cu424  N438    2.010   .     S
O447   C448    1.417   .     S
C448   H449    1.107   .     S
C448   C451    1.531   .     S
C448   H450    1.112   .     S
C451   H452    1.111   .     S
C451   H453    1.111   .     S
C451   C454    1.526   .     S
C454   H455    1.111   .     S
H456   C552    1.106   .     S
H457   C552    1.110   .     S
O458   C459    1.419   .     S
C459   H460    1.110   .     S
C459   H461    1.119   .     S
C459   C462    1.528   .     S
C462   H463    1.112   .     S
C462   C465    1.527   .     S
C462   H464    1.110   .     S
C465   H468    1.111   .     S
C465   H760    1.111   .     S
C465   H761    1.110   .     S
O469   C470    1.421   .     S
C470   H472    1.115   .     S
C470   H471    1.111   .     S
C470   C473    1.542   .     S
C473   H474    1.112   .     S
C473   H475    1.108   .     S
C473   C476    1.526   .     S
C476   H477    1.111   .     S
C476   H478    1.110   .     S
H479   C574    1.105   .     S
O480   C481    1.418   .     S
C481   H483    1.116   .     S
C481   C484    1.534   .     S
C481   H482    1.111   .     S
C484   H486    1.111   .     S
C484   H485    1.112   .     S
C484   C781    1.526   .     S
C487   H488    1.111   .     S
C487   H490    1.111   .     S
C487   H489    1.111   .     S
C491   O540    1.290   .     A
C491   O537    1.291   .     A
C491   C500    1.451   .     S
C492   O538    1.291   .     A
C492   O539    1.289   .     A
C492   C499    1.450   .     S
C493   C518    1.406   .     A
C493   O567    1.388   .     S
C493   C1401   1.399   1_554 S
C494   C517    1.407   .     A
C494   O578    1.385   .     S
C494   C1402   1.398   .     S
C495   H527    1.083   .     S
C495   C500    1.402   .     A
C496   C499    1.402   .     A
C496   H528    1.083   .     S
C496   C302    1.384   1_655 S
C497   C499    1.400   .     A
C497   H529    1.083   .     S
C497   C299    1.383   1_655 S
C498   C500    1.401   .     A
C498   H530    1.083   .     S
C501   H531    1.082   .     S
C501   N536    1.367   .     A
C502   H532    1.082   .     S
C502   N535    1.367   .     A
C502   C797    1.416   .     S
C503   N536    1.367   .     A
C503   H533    1.082   .     S
C504   N535    1.367   .     A
C504   H534    1.082   .     S
C504   C795    1.416   .     S
C505   O541    1.286   .     A
C505   C510    1.446   .     S
C505   O544    1.292   .     A
C506   O543    1.289   .     A
C506   O542    1.289   .     A
C506   C509    1.449   .     S
C507   H523    1.085   .     S
C507   C517    1.395   .     A
C507   C509    1.395   .     A
C508   C518    1.395   .     A
C508   H524    1.085   .     S
C508   C510    1.393   .     A
C509   C511    1.411   .     A
C510   C512    1.408   .     A
C511   O545    1.389   .     S
C511   C513    1.405   .     A
C512   O556    1.389   .     S
C512   C514    1.405   .     A
C513   C519    1.403   .     A
C513   C515    1.415   .     A
C514   C516    1.414   .     A
C514   C520    1.400   .     A
C515   C517    1.413   .     A
C515   C1398   1.407   .     S
C516   C518    1.412   .     A
C516   C1397   1.407   1_554 S
C519   H525    1.082   .     S
C519   C1375   1.399   .     S
C520   H526    1.078   .     S
C520   C1376   1.398   1_554 S
Cu521  O537    1.966   .     S
Cu521  O539    1.964   .     S
Cu521  Cu522   2.675   .     S
Cu521  O543    1.959   .     S
Cu521  O541    1.961   .     S
Cu521  N535    2.010   .     S
Cu522  O538    1.966   .     S
Cu522  O542    1.961   .     S
Cu522  O544    1.959   .     S
Cu522  O540    1.964   .     S
Cu522  N536    2.010   .     S
O545   C546    1.417   .     S
C546   H547    1.107   .     S
C546   C549    1.531   .     S
C546   H548    1.112   .     S
C549   H550    1.111   .     S
C549   H551    1.111   .     S
C549   C552    1.526   .     S
C552   H553    1.111   .     S
H554   C356    1.106   1_655 S
H555   C356    1.110   1_655 S
O556   C557    1.419   .     S
C557   H558    1.110   .     S
C557   H559    1.119   .     S
C557   C560    1.528   .     S
C560   H561    1.112   .     S
C560   C563    1.527   .     S
C560   H562    1.110   .     S
C563   H566    1.111   .     S
C563   H858    1.111   .     S
C563   H859    1.110   .     S
O567   C568    1.421   .     S
C568   H570    1.115   .     S
C568   H569    1.111   .     S
C568   C571    1.542   .     S
C571   H572    1.112   .     S
C571   H573    1.108   .     S
C571   C574    1.526   .     S
C574   H575    1.111   .     S
C574   H576    1.110   .     S
H577   C378    1.105   1_655 S
O578   C579    1.418   .     S
C579   H581    1.116   .     S
C579   C582    1.534   .     S
C579   H580    1.111   .     S
C582   H584    1.111   .     S
C582   H583    1.112   .     S
C582   C879    1.526   .     S
C585   H586    1.111   .     S
C585   H588    1.111   .     S
C585   H587    1.111   .     S
C589   O638    1.290   .     A
C589   O635    1.291   .     A
C589   C598    1.451   .     S
C590   O636    1.291   .     A
C590   O637    1.289   .     A
C590   C597    1.450   .     S
C591   C616    1.406   .     A
C591   O665    1.388   .     S
C591   C1499   1.399   1_554 S
C592   C615    1.407   .     A
C592   O676    1.385   .     S
C592   C1500   1.398   .     S
C593   H625    1.083   .     S
C593   C598    1.402   .     A
C593   C791    1.383   1_455 S
C594   C597    1.402   .     A
C594   H626    1.083   .     S
C594   C694    1.384   .     S
C595   C597    1.400   .     A
C595   H627    1.083   .     S
C595   C691    1.383   .     S
C596   C598    1.401   .     A
C596   H628    1.083   .     S
C596   C790    1.384   1_455 S
C599   H629    1.082   .     S
C599   N634    1.367   .     A
C600   H630    1.082   .     S
C600   N633    1.367   .     A
C600   C13     1.416   1_565 S
C601   N634    1.367   .     A
C601   H631    1.082   .     S
C602   N633    1.367   .     A
C602   H632    1.082   .     S
C602   C11     1.416   1_565 S
C603   O639    1.286   .     A
C603   C608    1.446   .     S
C603   O642    1.292   .     A
C604   O641    1.289   .     A
C604   O640    1.289   .     A
C604   C607    1.449   .     S
C605   H621    1.085   .     S
C605   C615    1.395   .     A
C605   C607    1.395   .     A
C606   C616    1.395   .     A
C606   H622    1.085   .     S
C606   C608    1.393   .     A
C607   C609    1.411   .     A
C608   C610    1.408   .     A
C609   O643    1.389   .     S
C609   C611    1.405   .     A
C610   O654    1.389   .     S
C610   C612    1.405   .     A
C611   C617    1.403   .     A
C611   C613    1.415   .     A
C612   C614    1.414   .     A
C612   C618    1.400   .     A
C613   C615    1.413   .     A
C613   C1496   1.407   .     S
C614   C616    1.412   .     A
C614   C1495   1.407   1_554 S
C617   H623    1.082   .     S
C617   C1473   1.399   .     S
C618   H624    1.078   .     S
C618   C1474   1.398   1_554 S
Cu619  O635    1.966   .     S
Cu619  O637    1.964   .     S
Cu619  Cu620   2.675   .     S
Cu619  O641    1.959   .     S
Cu619  O639    1.961   .     S
Cu619  N633    2.010   .     S
Cu620  O636    1.966   .     S
Cu620  O640    1.961   .     S
Cu620  O642    1.959   .     S
Cu620  O638    1.964   .     S
Cu620  N634    2.010   .     S
O643   C644    1.417   .     S
C644   H645    1.107   .     S
C644   C647    1.531   .     S
C644   H646    1.112   .     S
C647   H648    1.111   .     S
C647   H649    1.111   .     S
C647   C650    1.526   .     S
C650   H651    1.111   .     S
C650   H848    1.106   1_455 S
C650   H849    1.110   1_455 S
H652   C748    1.106   .     S
H653   C748    1.110   .     S
O654   C655    1.419   .     S
C655   H656    1.110   .     S
C655   H657    1.119   .     S
C655   C658    1.528   .     S
C658   H659    1.112   .     S
C658   C661    1.527   .     S
C658   H660    1.110   .     S
C661   H664    1.111   .     S
C661   H74     1.111   1_565 S
C661   H75     1.110   1_565 S
O665   C666    1.421   .     S
C666   H668    1.115   .     S
C666   H667    1.111   .     S
C666   C669    1.542   .     S
C669   H670    1.112   .     S
C669   H671    1.108   .     S
C669   C672    1.526   .     S
C672   H673    1.111   .     S
C672   H674    1.110   .     S
C672   H871    1.105   1_455 S
H675   C770    1.105   .     S
O676   C677    1.418   .     S
C677   H679    1.116   .     S
C677   C680    1.534   .     S
C677   H678    1.111   .     S
C680   H682    1.111   .     S
C680   H681    1.112   .     S
C680   C95     1.526   1_565 S
C683   H684    1.111   .     S
C683   H686    1.111   .     S
C683   H685    1.111   .     S
C687   O736    1.290   .     A
C687   O733    1.291   .     A
C687   C696    1.451   .     S
C688   O734    1.291   .     A
C688   O735    1.289   .     A
C688   C695    1.450   .     S
C689   C714    1.406   .     A
C689   O763    1.388   .     S
C689   C1597   1.399   1_554 S
C690   C713    1.407   .     A
C690   O774    1.385   .     S
C690   C1598   1.398   .     S
C691   H723    1.083   .     S
C691   C696    1.402   .     A
C692   C695    1.402   .     A
C692   H724    1.083   .     S
C692   C792    1.384   .     S
C693   C695    1.400   .     A
C693   H725    1.083   .     S
C693   C789    1.383   .     S
C694   C696    1.401   .     A
C694   H726    1.083   .     S
C697   H727    1.082   .     S
C697   N732    1.367   .     A
C698   H728    1.082   .     S
C698   N731    1.367   .     A
C698   C111    1.416   1_565 S
C699   N732    1.367   .     A
C699   H729    1.082   .     S
C700   N731    1.367   .     A
C700   H730    1.082   .     S
C700   C109    1.416   1_565 S
C701   O737    1.286   .     A
C701   C706    1.446   .     S
C701   O740    1.292   .     A
C702   O739    1.289   .     A
C702   O738    1.289   .     A
C702   C705    1.449   .     S
C703   H719    1.085   .     S
C703   C713    1.395   .     A
C703   C705    1.395   .     A
C704   C714    1.395   .     A
C704   H720    1.085   .     S
C704   C706    1.393   .     A
C705   C707    1.411   .     A
C706   C708    1.408   .     A
C707   O741    1.389   .     S
C707   C709    1.405   .     A
C708   O752    1.389   .     S
C708   C710    1.405   .     A
C709   C715    1.403   .     A
C709   C711    1.415   .     A
C710   C712    1.414   .     A
C710   C716    1.400   .     A
C711   C713    1.413   .     A
C711   C1594   1.407   .     S
C712   C714    1.412   .     A
C712   C1593   1.407   1_554 S
C715   H721    1.082   .     S
C715   C1571   1.399   .     S
C716   H722    1.078   .     S
C716   C1572   1.398   1_554 S
Cu717  O733    1.966   .     S
Cu717  O735    1.964   .     S
Cu717  Cu718   2.675   .     S
Cu717  O739    1.959   .     S
Cu717  O737    1.961   .     S
Cu717  N731    2.010   .     S
Cu718  O734    1.966   .     S
Cu718  O738    1.961   .     S
Cu718  O740    1.959   .     S
Cu718  O736    1.964   .     S
Cu718  N732    2.010   .     S
O741   C742    1.417   .     S
C742   H743    1.107   .     S
C742   C745    1.531   .     S
C742   H744    1.112   .     S
C745   H746    1.111   .     S
C745   H747    1.111   .     S
C745   C748    1.526   .     S
C748   H749    1.111   .     S
H750   C846    1.106   .     S
H751   C846    1.110   .     S
O752   C753    1.419   .     S
C753   H754    1.110   .     S
C753   H755    1.119   .     S
C753   C756    1.528   .     S
C756   H757    1.112   .     S
C756   C759    1.527   .     S
C756   H758    1.110   .     S
C759   H762    1.111   .     S
C759   H172    1.111   1_565 S
C759   H173    1.110   1_565 S
O763   C764    1.421   .     S
C764   H766    1.115   .     S
C764   H765    1.111   .     S
C764   C767    1.542   .     S
C767   H768    1.112   .     S
C767   H769    1.108   .     S
C767   C770    1.526   .     S
C770   H771    1.111   .     S
C770   H772    1.110   .     S
H773   C868    1.105   .     S
O774   C775    1.418   .     S
C775   H777    1.116   .     S
C775   C778    1.534   .     S
C775   H776    1.111   .     S
C778   H780    1.111   .     S
C778   H779    1.112   .     S
C778   C193    1.526   1_565 S
C781   H782    1.111   .     S
C781   H784    1.111   .     S
C781   H783    1.111   .     S
C785   O834    1.290   .     A
C785   O831    1.291   .     A
C785   C794    1.451   .     S
C786   O832    1.291   .     A
C786   O833    1.289   .     A
C786   C793    1.450   .     S
C787   C812    1.406   .     A
C787   O861    1.388   .     S
C787   C1695   1.399   1_554 S
C788   C811    1.407   .     A
C788   O872    1.385   .     S
C788   C1696   1.398   .     S
C789   H821    1.083   .     S
C789   C794    1.402   .     A
C790   C793    1.402   .     A
C790   H822    1.083   .     S
C790   C596    1.384   1_655 S
C791   C793    1.400   .     A
C791   H823    1.083   .     S
C791   C593    1.383   1_655 S
C792   C794    1.401   .     A
C792   H824    1.083   .     S
C795   H825    1.082   .     S
C795   N830    1.367   .     A
C796   H826    1.082   .     S
C796   N829    1.367   .     A
C796   C209    1.416   1_565 S
C797   N830    1.367   .     A
C797   H827    1.082   .     S
C798   N829    1.367   .     A
C798   H828    1.082   .     S
C798   C207    1.416   1_565 S
C799   O835    1.286   .     A
C799   C804    1.446   .     S
C799   O838    1.292   .     A
C800   O837    1.289   .     A
C800   O836    1.289   .     A
C800   C803    1.449   .     S
C801   H817    1.085   .     S
C801   C811    1.395   .     A
C801   C803    1.395   .     A
C802   C812    1.395   .     A
C802   H818    1.085   .     S
C802   C804    1.393   .     A
C803   C805    1.411   .     A
C804   C806    1.408   .     A
C805   O839    1.389   .     S
C805   C807    1.405   .     A
C806   O850    1.389   .     S
C806   C808    1.405   .     A
C807   C813    1.403   .     A
C807   C809    1.415   .     A
C808   C810    1.414   .     A
C808   C814    1.400   .     A
C809   C811    1.413   .     A
C809   C1692   1.407   .     S
C810   C812    1.412   .     A
C810   C1691   1.407   1_554 S
C813   H819    1.082   .     S
C813   C1669   1.399   .     S
C814   H820    1.078   .     S
C814   C1670   1.398   1_554 S
Cu815  O831    1.966   .     S
Cu815  O833    1.964   .     S
Cu815  Cu816   2.675   .     S
Cu815  O837    1.959   .     S
Cu815  O835    1.961   .     S
Cu815  N829    2.010   .     S
Cu816  O832    1.966   .     S
Cu816  O836    1.961   .     S
Cu816  O838    1.959   .     S
Cu816  O834    1.964   .     S
Cu816  N830    2.010   .     S
O839   C840    1.417   .     S
C840   H841    1.107   .     S
C840   C843    1.531   .     S
C840   H842    1.112   .     S
C843   H844    1.111   .     S
C843   H845    1.111   .     S
C843   C846    1.526   .     S
C846   H847    1.111   .     S
H848   C650    1.106   1_655 S
H849   C650    1.110   1_655 S
O850   C851    1.419   .     S
C851   H852    1.110   .     S
C851   H853    1.119   .     S
C851   C854    1.528   .     S
C854   H855    1.112   .     S
C854   C857    1.527   .     S
C854   H856    1.110   .     S
C857   H860    1.111   .     S
C857   H270    1.111   1_565 S
C857   H271    1.110   1_565 S
O861   C862    1.421   .     S
C862   H864    1.115   .     S
C862   H863    1.111   .     S
C862   C865    1.542   .     S
C865   H866    1.112   .     S
C865   H867    1.108   .     S
C865   C868    1.526   .     S
C868   H869    1.111   .     S
C868   H870    1.110   .     S
H871   C672    1.105   1_655 S
O872   C873    1.418   .     S
C873   H875    1.116   .     S
C873   C876    1.534   .     S
C873   H874    1.111   .     S
C876   H878    1.111   .     S
C876   H877    1.112   .     S
C876   C291    1.526   1_565 S
C879   H880    1.111   .     S
C879   H882    1.111   .     S
C879   H881    1.111   .     S
C883   O932    1.290   .     A
C883   O929    1.291   .     A
C883   C892    1.451   .     S
C884   O930    1.291   .     A
C884   O931    1.289   .     A
C884   C891    1.450   .     S
C885   C910    1.406   .     A
C885   O959    1.388   .     S
C886   C909    1.407   .     A
C886   O970    1.385   .     S
C886   C30     1.398   1_556 S
C887   H919    1.083   .     S
C887   C892    1.402   .     A
C887   C1085   1.383   1_455 S
C888   C891    1.402   .     A
C888   H920    1.083   .     S
C888   C988    1.384   .     S
C889   C891    1.400   .     A
C889   H921    1.083   .     S
C889   C985    1.383   .     S
C890   C892    1.401   .     A
C890   H922    1.083   .     S
C890   C1084   1.384   1_455 S
C893   H923    1.082   .     S
C893   N928    1.367   .     A
C893   C1484   1.416   1_545 S
C894   H924    1.082   .     S
C894   N927    1.367   .     A
C894   C1189   1.416   .     S
C895   N928    1.367   .     A
C895   H925    1.082   .     S
C895   C1482   1.416   1_545 S
C896   N927    1.367   .     A
C896   H926    1.082   .     S
C896   C1187   1.416   .     S
C897   O933    1.286   .     A
C897   C902    1.446   .     S
C897   O936    1.292   .     A
C898   O935    1.289   .     A
C898   O934    1.289   .     A
C898   C901    1.449   .     S
C899   H915    1.085   .     S
C899   C909    1.395   .     A
C899   C901    1.395   .     A
C900   C910    1.395   .     A
C900   H916    1.085   .     S
C900   C902    1.393   .     A
C901   C903    1.411   .     A
C902   C904    1.408   .     A
C903   O937    1.389   .     S
C903   C905    1.405   .     A
C904   O948    1.389   .     S
C904   C906    1.405   .     A
C905   C911    1.403   .     A
C905   C907    1.415   .     A
C906   C908    1.414   .     A
C906   C912    1.400   .     A
C907   C909    1.413   .     A
C907   C26     1.407   1_556 S
C908   C910    1.412   .     A
C911   H917    1.082   .     S
C911   C3      1.399   1_556 S
C912   H918    1.078   .     S
Cu913  O929    1.966   .     S
Cu913  O931    1.964   .     S
Cu913  Cu914   2.675   .     S
Cu913  O935    1.959   .     S
Cu913  O933    1.961   .     S
Cu913  N927    2.010   .     S
Cu914  O930    1.966   .     S
Cu914  O934    1.961   .     S
Cu914  O936    1.959   .     S
Cu914  O932    1.964   .     S
Cu914  N928    2.010   .     S
O937   C938    1.417   .     S
C938   H939    1.107   .     S
C938   C941    1.531   .     S
C938   H940    1.112   .     S
C941   H942    1.111   .     S
C941   H943    1.111   .     S
C941   C944    1.526   .     S
C944   H945    1.111   .     S
C944   H1142   1.106   1_455 S
C944   H1143   1.110   1_455 S
H946   C1042   1.106   .     S
H947   C1042   1.110   .     S
O948   C949    1.419   .     S
C949   H950    1.110   .     S
C949   H951    1.119   .     S
C949   C952    1.528   .     S
C952   H953    1.112   .     S
C952   C955    1.527   .     S
C952   H954    1.110   .     S
C955   H958    1.111   .     S
C955   H1250   1.111   .     S
C955   H1251   1.110   .     S
H956   C1543   1.111   1_545 S
H957   C1543   1.110   1_545 S
O959   C960    1.421   .     S
C960   H962    1.115   .     S
C960   H961    1.111   .     S
C960   C963    1.542   .     S
C963   H964    1.112   .     S
C963   H965    1.108   .     S
C963   C966    1.526   .     S
C966   H967    1.111   .     S
C966   H968    1.110   .     S
C966   H1165   1.105   1_455 S
H969   C1064   1.105   .     S
O970   C971    1.418   .     S
C971   H973    1.116   .     S
C971   C974    1.534   .     S
C971   H972    1.111   .     S
C974   H976    1.111   .     S
C974   H975    1.112   .     S
C974   C1271   1.526   .     S
C977   H978    1.111   .     S
C977   H980    1.111   .     S
C977   H979    1.111   .     S
C977   C1562   1.526   1_545 S
C981   O1030   1.290   .     A
C981   O1027   1.291   .     A
C981   C990    1.451   .     S
C982   O1028   1.291   .     A
C982   O1029   1.289   .     A
C982   C989    1.450   .     S
C983   C1008   1.406   .     A
C983   O1057   1.388   .     S
C984   C1007   1.407   .     A
C984   O1068   1.385   .     S
C984   C128    1.398   1_556 S
C985   H1017   1.083   .     S
C985   C990    1.402   .     A
C986   C989    1.402   .     A
C986   H1018   1.083   .     S
C986   C1086   1.384   .     S
C987   C989    1.400   .     A
C987   H1019   1.083   .     S
C987   C1083   1.383   .     S
C988   C990    1.401   .     A
C988   H1020   1.083   .     S
C991   H1021   1.082   .     S
C991   N1026   1.367   .     A
C991   C1582   1.416   1_545 S
C992   H1022   1.082   .     S
C992   N1025   1.367   .     A
C992   C1287   1.416   .     S
C993   N1026   1.367   .     A
C993   H1023   1.082   .     S
C993   C1580   1.416   1_545 S
C994   N1025   1.367   .     A
C994   H1024   1.082   .     S
C994   C1285   1.416   .     S
C995   O1031   1.286   .     A
C995   C1000   1.446   .     S
C995   O1034   1.292   .     A
C996   O1033   1.289   .     A
C996   O1032   1.289   .     A
C996   C999    1.449   .     S
C997   H1013   1.085   .     S
C997   C1007   1.395   .     A
C997   C999    1.395   .     A
C998   C1008   1.395   .     A
C998   H1014   1.085   .     S
C998   C1000   1.393   .     A
C999   C1001   1.411   .     A
C1000  C1002   1.408   .     A
C1001  O1035   1.389   .     S
C1001  C1003   1.405   .     A
C1002  O1046   1.389   .     S
C1002  C1004   1.405   .     A
C1003  C1009   1.403   .     A
C1003  C1005   1.415   .     A
C1004  C1006   1.414   .     A
C1004  C1010   1.400   .     A
C1005  C1007   1.413   .     A
C1005  C124    1.407   1_556 S
C1006  C1008   1.412   .     A
C1009  H1015   1.082   .     S
C1009  C101    1.399   1_556 S
C1010  H1016   1.078   .     S
Cu1011 O1027   1.966   .     S
Cu1011 O1029   1.964   .     S
Cu1011 Cu1012  2.675   .     S
Cu1011 O1033   1.959   .     S
Cu1011 O1031   1.961   .     S
Cu1011 N1025   2.010   .     S
Cu1012 O1028   1.966   .     S
Cu1012 O1032   1.961   .     S
Cu1012 O1034   1.959   .     S
Cu1012 O1030   1.964   .     S
Cu1012 N1026   2.010   .     S
O1035  C1036   1.417   .     S
C1036  H1037   1.107   .     S
C1036  C1039   1.531   .     S
C1036  H1038   1.112   .     S
C1039  H1040   1.111   .     S
C1039  H1041   1.111   .     S
C1039  C1042   1.526   .     S
C1042  H1043   1.111   .     S
H1044  C1140   1.106   .     S
H1045  C1140   1.110   .     S
O1046  C1047   1.419   .     S
C1047  H1048   1.110   .     S
C1047  H1049   1.119   .     S
C1047  C1050   1.528   .     S
C1050  H1051   1.112   .     S
C1050  C1053   1.527   .     S
C1050  H1052   1.110   .     S
C1053  H1056   1.111   .     S
C1053  H1348   1.111   .     S
C1053  H1349   1.110   .     S
H1054  C1641   1.111   1_545 S
H1055  C1641   1.110   1_545 S
O1057  C1058   1.421   .     S
C1058  H1060   1.115   .     S
C1058  H1059   1.111   .     S
C1058  C1061   1.542   .     S
C1061  H1062   1.112   .     S
C1061  H1063   1.108   .     S
C1061  C1064   1.526   .     S
C1064  H1065   1.111   .     S
C1064  H1066   1.110   .     S
H1067  C1162   1.105   .     S
O1068  C1069   1.418   .     S
C1069  H1071   1.116   .     S
C1069  C1072   1.534   .     S
C1069  H1070   1.111   .     S
C1072  H1074   1.111   .     S
C1072  H1073   1.112   .     S
C1072  C1369   1.526   .     S
C1075  H1076   1.111   .     S
C1075  H1078   1.111   .     S
C1075  H1077   1.111   .     S
C1075  C1660   1.526   1_545 S
C1079  O1128   1.290   .     A
C1079  O1125   1.291   .     A
C1079  C1088   1.451   .     S
C1080  O1126   1.291   .     A
C1080  O1127   1.289   .     A
C1080  C1087   1.450   .     S
C1081  C1106   1.406   .     A
C1081  O1155   1.388   .     S
C1082  C1105   1.407   .     A
C1082  O1166   1.385   .     S
C1082  C226    1.398   1_556 S
C1083  H1115   1.083   .     S
C1083  C1088   1.402   .     A
C1084  C1087   1.402   .     A
C1084  H1116   1.083   .     S
C1084  C890    1.384   1_655 S
C1085  C1087   1.400   .     A
C1085  H1117   1.083   .     S
C1085  C887    1.383   1_655 S
C1086  C1088   1.401   .     A
C1086  H1118   1.083   .     S
C1089  H1119   1.082   .     S
C1089  N1124   1.367   .     A
C1089  C1680   1.416   1_545 S
C1090  H1120   1.082   .     S
C1090  N1123   1.367   .     A
C1090  C1385   1.416   .     S
C1091  N1124   1.367   .     A
C1091  H1121   1.082   .     S
C1091  C1678   1.416   1_545 S
C1092  N1123   1.367   .     A
C1092  H1122   1.082   .     S
C1092  C1383   1.416   .     S
C1093  O1129   1.286   .     A
C1093  C1098   1.446   .     S
C1093  O1132   1.292   .     A
C1094  O1131   1.289   .     A
C1094  O1130   1.289   .     A
C1094  C1097   1.449   .     S
C1095  H1111   1.085   .     S
C1095  C1105   1.395   .     A
C1095  C1097   1.395   .     A
C1096  C1106   1.395   .     A
C1096  H1112   1.085   .     S
C1096  C1098   1.393   .     A
C1097  C1099   1.411   .     A
C1098  C1100   1.408   .     A
C1099  O1133   1.389   .     S
C1099  C1101   1.405   .     A
C1100  O1144   1.389   .     S
C1100  C1102   1.405   .     A
C1101  C1107   1.403   .     A
C1101  C1103   1.415   .     A
C1102  C1104   1.414   .     A
C1102  C1108   1.400   .     A
C1103  C1105   1.413   .     A
C1103  C222    1.407   1_556 S
C1104  C1106   1.412   .     A
C1107  H1113   1.082   .     S
C1107  C199    1.399   1_556 S
C1108  H1114   1.078   .     S
Cu1109 O1125   1.966   .     S
Cu1109 O1127   1.964   .     S
Cu1109 Cu1110  2.675   .     S
Cu1109 O1131   1.959   .     S
Cu1109 O1129   1.961   .     S
Cu1109 N1123   2.010   .     S
Cu1110 O1126   1.966   .     S
Cu1110 O1130   1.961   .     S
Cu1110 O1132   1.959   .     S
Cu1110 O1128   1.964   .     S
Cu1110 N1124   2.010   .     S
O1133  C1134   1.417   .     S
C1134  H1135   1.107   .     S
C1134  C1137   1.531   .     S
C1134  H1136   1.112   .     S
C1137  H1138   1.111   .     S
C1137  H1139   1.111   .     S
C1137  C1140   1.526   .     S
C1140  H1141   1.111   .     S
H1142  C944    1.106   1_655 S
H1143  C944    1.110   1_655 S
O1144  C1145   1.419   .     S
C1145  H1146   1.110   .     S
C1145  H1147   1.119   .     S
C1145  C1148   1.528   .     S
C1148  H1149   1.112   .     S
C1148  C1151   1.527   .     S
C1148  H1150   1.110   .     S
C1151  H1154   1.111   .     S
C1151  H1446   1.111   .     S
C1151  H1447   1.110   .     S
H1152  C1739   1.111   1_545 S
H1153  C1739   1.110   1_545 S
O1155  C1156   1.421   .     S
C1156  H1158   1.115   .     S
C1156  H1157   1.111   .     S
C1156  C1159   1.542   .     S
C1159  H1160   1.112   .     S
C1159  H1161   1.108   .     S
C1159  C1162   1.526   .     S
C1162  H1163   1.111   .     S
C1162  H1164   1.110   .     S
H1165  C966    1.105   1_655 S
O1166  C1167   1.418   .     S
C1167  H1169   1.116   .     S
C1167  C1170   1.534   .     S
C1167  H1168   1.111   .     S
C1170  H1172   1.111   .     S
C1170  H1171   1.112   .     S
C1170  C1467   1.526   .     S
C1173  H1174   1.111   .     S
C1173  H1176   1.111   .     S
C1173  H1175   1.111   .     S
C1173  C1758   1.526   1_545 S
C1177  O1226   1.290   .     A
C1177  O1223   1.291   .     A
C1177  C1186   1.451   .     S
C1178  O1224   1.291   .     A
C1178  O1225   1.289   .     A
C1178  C1185   1.450   .     S
C1179  C1204   1.406   .     A
C1179  O1253   1.388   .     S
C1180  C1203   1.407   .     A
C1180  O1264   1.385   .     S
C1180  C324    1.398   1_556 S
C1181  H1213   1.083   .     S
C1181  C1186   1.402   .     A
C1181  C1379   1.383   1_455 S
C1182  C1185   1.402   .     A
C1182  H1214   1.083   .     S
C1182  C1282   1.384   .     S
C1183  C1185   1.400   .     A
C1183  H1215   1.083   .     S
C1183  C1279   1.383   .     S
C1184  C1186   1.401   .     A
C1184  H1216   1.083   .     S
C1184  C1378   1.384   1_455 S
C1187  H1217   1.082   .     S
C1187  N1222   1.367   .     A
C1188  H1218   1.082   .     S
C1188  N1221   1.367   .     A
C1188  C1483   1.416   .     S
C1189  N1222   1.367   .     A
C1189  H1219   1.082   .     S
C1190  N1221   1.367   .     A
C1190  H1220   1.082   .     S
C1190  C1481   1.416   .     S
C1191  O1227   1.286   .     A
C1191  C1196   1.446   .     S
C1191  O1230   1.292   .     A
C1192  O1229   1.289   .     A
C1192  O1228   1.289   .     A
C1192  C1195   1.449   .     S
C1193  H1209   1.085   .     S
C1193  C1203   1.395   .     A
C1193  C1195   1.395   .     A
C1194  C1204   1.395   .     A
C1194  H1210   1.085   .     S
C1194  C1196   1.393   .     A
C1195  C1197   1.411   .     A
C1196  C1198   1.408   .     A
C1197  O1231   1.389   .     S
C1197  C1199   1.405   .     A
C1198  O1242   1.389   .     S
C1198  C1200   1.405   .     A
C1199  C1205   1.403   .     A
C1199  C1201   1.415   .     A
C1200  C1202   1.414   .     A
C1200  C1206   1.400   .     A
C1201  C1203   1.413   .     A
C1201  C320    1.407   1_556 S
C1202  C1204   1.412   .     A
C1205  H1211   1.082   .     S
C1205  C297    1.399   1_556 S
C1206  H1212   1.078   .     S
Cu1207 O1223   1.966   .     S
Cu1207 O1225   1.964   .     S
Cu1207 Cu1208  2.675   .     S
Cu1207 O1229   1.959   .     S
Cu1207 O1227   1.961   .     S
Cu1207 N1221   2.010   .     S
Cu1208 O1224   1.966   .     S
Cu1208 O1228   1.961   .     S
Cu1208 O1230   1.959   .     S
Cu1208 O1226   1.964   .     S
Cu1208 N1222   2.010   .     S
O1231  C1232   1.417   .     S
C1232  H1233   1.107   .     S
C1232  C1235   1.531   .     S
C1232  H1234   1.112   .     S
C1235  H1236   1.111   .     S
C1235  H1237   1.111   .     S
C1235  C1238   1.526   .     S
C1238  H1239   1.111   .     S
C1238  H1436   1.106   1_455 S
C1238  H1437   1.110   1_455 S
H1240  C1336   1.106   .     S
H1241  C1336   1.110   .     S
O1242  C1243   1.419   .     S
C1243  H1244   1.110   .     S
C1243  H1245   1.119   .     S
C1243  C1246   1.528   .     S
C1246  H1247   1.112   .     S
C1246  C1249   1.527   .     S
C1246  H1248   1.110   .     S
C1249  H1252   1.111   .     S
C1249  H1544   1.111   .     S
C1249  H1545   1.110   .     S
O1253  C1254   1.421   .     S
C1254  H1256   1.115   .     S
C1254  H1255   1.111   .     S
C1254  C1257   1.542   .     S
C1257  H1258   1.112   .     S
C1257  H1259   1.108   .     S
C1257  C1260   1.526   .     S
C1260  H1261   1.111   .     S
C1260  H1262   1.110   .     S
C1260  H1459   1.105   1_455 S
H1263  C1358   1.105   .     S
O1264  C1265   1.418   .     S
C1265  H1267   1.116   .     S
C1265  C1268   1.534   .     S
C1265  H1266   1.111   .     S
C1268  H1270   1.111   .     S
C1268  H1269   1.112   .     S
C1268  C1565   1.526   .     S
C1271  H1272   1.111   .     S
C1271  H1274   1.111   .     S
C1271  H1273   1.111   .     S
C1275  O1324   1.290   .     A
C1275  O1321   1.291   .     A
C1275  C1284   1.451   .     S
C1276  O1322   1.291   .     A
C1276  O1323   1.289   .     A
C1276  C1283   1.450   .     S
C1277  C1302   1.406   .     A
C1277  O1351   1.388   .     S
C1278  C1301   1.407   .     A
C1278  O1362   1.385   .     S
C1278  C422    1.398   1_556 S
C1279  H1311   1.083   .     S
C1279  C1284   1.402   .     A
C1280  C1283   1.402   .     A
C1280  H1312   1.083   .     S
C1280  C1380   1.384   .     S
C1281  C1283   1.400   .     A
C1281  H1313   1.083   .     S
C1281  C1377   1.383   .     S
C1282  C1284   1.401   .     A
C1282  H1314   1.083   .     S
C1285  H1315   1.082   .     S
C1285  N1320   1.367   .     A
C1286  H1316   1.082   .     S
C1286  N1319   1.367   .     A
C1286  C1581   1.416   .     S
C1287  N1320   1.367   .     A
C1287  H1317   1.082   .     S
C1288  N1319   1.367   .     A
C1288  H1318   1.082   .     S
C1288  C1579   1.416   .     S
C1289  O1325   1.286   .     A
C1289  C1294   1.446   .     S
C1289  O1328   1.292   .     A
C1290  O1327   1.289   .     A
C1290  O1326   1.289   .     A
C1290  C1293   1.449   .     S
C1291  H1307   1.085   .     S
C1291  C1301   1.395   .     A
C1291  C1293   1.395   .     A
C1292  C1302   1.395   .     A
C1292  H1308   1.085   .     S
C1292  C1294   1.393   .     A
C1293  C1295   1.411   .     A
C1294  C1296   1.408   .     A
C1295  O1329   1.389   .     S
C1295  C1297   1.405   .     A
C1296  O1340   1.389   .     S
C1296  C1298   1.405   .     A
C1297  C1303   1.403   .     A
C1297  C1299   1.415   .     A
C1298  C1300   1.414   .     A
C1298  C1304   1.400   .     A
C1299  C1301   1.413   .     A
C1299  C418    1.407   1_556 S
C1300  C1302   1.412   .     A
C1303  H1309   1.082   .     S
C1303  C395    1.399   1_556 S
C1304  H1310   1.078   .     S
Cu1305 O1321   1.966   .     S
Cu1305 O1323   1.964   .     S
Cu1305 Cu1306  2.675   .     S
Cu1305 O1327   1.959   .     S
Cu1305 O1325   1.961   .     S
Cu1305 N1319   2.010   .     S
Cu1306 O1322   1.966   .     S
Cu1306 O1326   1.961   .     S
Cu1306 O1328   1.959   .     S
Cu1306 O1324   1.964   .     S
Cu1306 N1320   2.010   .     S
O1329  C1330   1.417   .     S
C1330  H1331   1.107   .     S
C1330  C1333   1.531   .     S
C1330  H1332   1.112   .     S
C1333  H1334   1.111   .     S
C1333  H1335   1.111   .     S
C1333  C1336   1.526   .     S
C1336  H1337   1.111   .     S
H1338  C1434   1.106   .     S
H1339  C1434   1.110   .     S
O1340  C1341   1.419   .     S
C1341  H1342   1.110   .     S
C1341  H1343   1.119   .     S
C1341  C1344   1.528   .     S
C1344  H1345   1.112   .     S
C1344  C1347   1.527   .     S
C1344  H1346   1.110   .     S
C1347  H1350   1.111   .     S
C1347  H1642   1.111   .     S
C1347  H1643   1.110   .     S
O1351  C1352   1.421   .     S
C1352  H1354   1.115   .     S
C1352  H1353   1.111   .     S
C1352  C1355   1.542   .     S
C1355  H1356   1.112   .     S
C1355  H1357   1.108   .     S
C1355  C1358   1.526   .     S
C1358  H1359   1.111   .     S
C1358  H1360   1.110   .     S
H1361  C1456   1.105   .     S
O1362  C1363   1.418   .     S
C1363  H1365   1.116   .     S
C1363  C1366   1.534   .     S
C1363  H1364   1.111   .     S
C1366  H1368   1.111   .     S
C1366  H1367   1.112   .     S
C1366  C1663   1.526   .     S
C1369  H1370   1.111   .     S
C1369  H1372   1.111   .     S
C1369  H1371   1.111   .     S
C1373  O1422   1.290   .     A
C1373  O1419   1.291   .     A
C1373  C1382   1.451   .     S
C1374  O1420   1.291   .     A
C1374  O1421   1.289   .     A
C1374  C1381   1.450   .     S
C1375  C1400   1.406   .     A
C1375  O1449   1.388   .     S
C1376  C1399   1.407   .     A
C1376  O1460   1.385   .     S
C1376  C520    1.398   1_556 S
C1377  H1409   1.083   .     S
C1377  C1382   1.402   .     A
C1378  C1381   1.402   .     A
C1378  H1410   1.083   .     S
C1378  C1184   1.384   1_655 S
C1379  C1381   1.400   .     A
C1379  H1411   1.083   .     S
C1379  C1181   1.383   1_655 S
C1380  C1382   1.401   .     A
C1380  H1412   1.083   .     S
C1383  H1413   1.082   .     S
C1383  N1418   1.367   .     A
C1384  H1414   1.082   .     S
C1384  N1417   1.367   .     A
C1384  C1679   1.416   .     S
C1385  N1418   1.367   .     A
C1385  H1415   1.082   .     S
C1386  N1417   1.367   .     A
C1386  H1416   1.082   .     S
C1386  C1677   1.416   .     S
C1387  O1423   1.286   .     A
C1387  C1392   1.446   .     S
C1387  O1426   1.292   .     A
C1388  O1425   1.289   .     A
C1388  O1424   1.289   .     A
C1388  C1391   1.449   .     S
C1389  H1405   1.085   .     S
C1389  C1399   1.395   .     A
C1389  C1391   1.395   .     A
C1390  C1400   1.395   .     A
C1390  H1406   1.085   .     S
C1390  C1392   1.393   .     A
C1391  C1393   1.411   .     A
C1392  C1394   1.408   .     A
C1393  O1427   1.389   .     S
C1393  C1395   1.405   .     A
C1394  O1438   1.389   .     S
C1394  C1396   1.405   .     A
C1395  C1401   1.403   .     A
C1395  C1397   1.415   .     A
C1396  C1398   1.414   .     A
C1396  C1402   1.400   .     A
C1397  C1399   1.413   .     A
C1397  C516    1.407   1_556 S
C1398  C1400   1.412   .     A
C1401  H1407   1.082   .     S
C1401  C493    1.399   1_556 S
C1402  H1408   1.078   .     S
Cu1403 O1419   1.966   .     S
Cu1403 O1421   1.964   .     S
Cu1403 Cu1404  2.675   .     S
Cu1403 O1425   1.959   .     S
Cu1403 O1423   1.961   .     S
Cu1403 N1417   2.010   .     S
Cu1404 O1420   1.966   .     S
Cu1404 O1424   1.961   .     S
Cu1404 O1426   1.959   .     S
Cu1404 O1422   1.964   .     S
Cu1404 N1418   2.010   .     S
O1427  C1428   1.417   .     S
C1428  H1429   1.107   .     S
C1428  C1431   1.531   .     S
C1428  H1430   1.112   .     S
C1431  H1432   1.111   .     S
C1431  H1433   1.111   .     S
C1431  C1434   1.526   .     S
C1434  H1435   1.111   .     S
H1436  C1238   1.106   1_655 S
H1437  C1238   1.110   1_655 S
O1438  C1439   1.419   .     S
C1439  H1440   1.110   .     S
C1439  H1441   1.119   .     S
C1439  C1442   1.528   .     S
C1442  H1443   1.112   .     S
C1442  C1445   1.527   .     S
C1442  H1444   1.110   .     S
C1445  H1448   1.111   .     S
C1445  H1740   1.111   .     S
C1445  H1741   1.110   .     S
O1449  C1450   1.421   .     S
C1450  H1452   1.115   .     S
C1450  H1451   1.111   .     S
C1450  C1453   1.542   .     S
C1453  H1454   1.112   .     S
C1453  H1455   1.108   .     S
C1453  C1456   1.526   .     S
C1456  H1457   1.111   .     S
C1456  H1458   1.110   .     S
H1459  C1260   1.105   1_655 S
O1460  C1461   1.418   .     S
C1461  H1463   1.116   .     S
C1461  C1464   1.534   .     S
C1461  H1462   1.111   .     S
C1464  H1466   1.111   .     S
C1464  H1465   1.112   .     S
C1464  C1761   1.526   .     S
C1467  H1468   1.111   .     S
C1467  H1470   1.111   .     S
C1467  H1469   1.111   .     S
C1471  O1520   1.290   .     A
C1471  O1517   1.291   .     A
C1471  C1480   1.451   .     S
C1472  O1518   1.291   .     A
C1472  O1519   1.289   .     A
C1472  C1479   1.450   .     S
C1473  C1498   1.406   .     A
C1473  O1547   1.388   .     S
C1474  C1497   1.407   .     A
C1474  O1558   1.385   .     S
C1474  C618    1.398   1_556 S
C1475  H1507   1.083   .     S
C1475  C1480   1.402   .     A
C1475  C1673   1.383   1_455 S
C1476  C1479   1.402   .     A
C1476  H1508   1.083   .     S
C1476  C1576   1.384   .     S
C1477  C1479   1.400   .     A
C1477  H1509   1.083   .     S
C1477  C1573   1.383   .     S
C1478  C1480   1.401   .     A
C1478  H1510   1.083   .     S
C1478  C1672   1.384   1_455 S
C1481  H1511   1.082   .     S
C1481  N1516   1.367   .     A
C1482  H1512   1.082   .     S
C1482  N1515   1.367   .     A
C1482  C895    1.416   1_565 S
C1483  N1516   1.367   .     A
C1483  H1513   1.082   .     S
C1484  N1515   1.367   .     A
C1484  H1514   1.082   .     S
C1484  C893    1.416   1_565 S
C1485  O1521   1.286   .     A
C1485  C1490   1.446   .     S
C1485  O1524   1.292   .     A
C1486  O1523   1.289   .     A
C1486  O1522   1.289   .     A
C1486  C1489   1.449   .     S
C1487  H1503   1.085   .     S
C1487  C1497   1.395   .     A
C1487  C1489   1.395   .     A
C1488  C1498   1.395   .     A
C1488  H1504   1.085   .     S
C1488  C1490   1.393   .     A
C1489  C1491   1.411   .     A
C1490  C1492   1.408   .     A
C1491  O1525   1.389   .     S
C1491  C1493   1.405   .     A
C1492  O1536   1.389   .     S
C1492  C1494   1.405   .     A
C1493  C1499   1.403   .     A
C1493  C1495   1.415   .     A
C1494  C1496   1.414   .     A
C1494  C1500   1.400   .     A
C1495  C1497   1.413   .     A
C1495  C614    1.407   1_556 S
C1496  C1498   1.412   .     A
C1499  H1505   1.082   .     S
C1499  C591    1.399   1_556 S
C1500  H1506   1.078   .     S
Cu1501 O1517   1.966   .     S
Cu1501 O1519   1.964   .     S
Cu1501 Cu1502  2.675   .     S
Cu1501 O1523   1.959   .     S
Cu1501 O1521   1.961   .     S
Cu1501 N1515   2.010   .     S
Cu1502 O1518   1.966   .     S
Cu1502 O1522   1.961   .     S
Cu1502 O1524   1.959   .     S
Cu1502 O1520   1.964   .     S
Cu1502 N1516   2.010   .     S
O1525  C1526   1.417   .     S
C1526  H1527   1.107   .     S
C1526  C1529   1.531   .     S
C1526  H1528   1.112   .     S
C1529  H1530   1.111   .     S
C1529  H1531   1.111   .     S
C1529  C1532   1.526   .     S
C1532  H1533   1.111   .     S
C1532  H1730   1.106   1_455 S
C1532  H1731   1.110   1_455 S
H1534  C1630   1.106   .     S
H1535  C1630   1.110   .     S
O1536  C1537   1.419   .     S
C1537  H1538   1.110   .     S
C1537  H1539   1.119   .     S
C1537  C1540   1.528   .     S
C1540  H1541   1.112   .     S
C1540  C1543   1.527   .     S
C1540  H1542   1.110   .     S
C1543  H1546   1.111   .     S
C1543  H956    1.111   1_565 S
C1543  H957    1.110   1_565 S
O1547  C1548   1.421   .     S
C1548  H1550   1.115   .     S
C1548  H1549   1.111   .     S
C1548  C1551   1.542   .     S
C1551  H1552   1.112   .     S
C1551  H1553   1.108   .     S
C1551  C1554   1.526   .     S
C1554  H1555   1.111   .     S
C1554  H1556   1.110   .     S
C1554  H1753   1.105   1_455 S
H1557  C1652   1.105   .     S
O1558  C1559   1.418   .     S
C1559  H1561   1.116   .     S
C1559  C1562   1.534   .     S
C1559  H1560   1.111   .     S
C1562  H1564   1.111   .     S
C1562  H1563   1.112   .     S
C1562  C977    1.526   1_565 S
C1565  H1566   1.111   .     S
C1565  H1568   1.111   .     S
C1565  H1567   1.111   .     S
C1569  O1618   1.290   .     A
C1569  O1615   1.291   .     A
C1569  C1578   1.451   .     S
C1570  O1616   1.291   .     A
C1570  O1617   1.289   .     A
C1570  C1577   1.450   .     S
C1571  C1596   1.406   .     A
C1571  O1645   1.388   .     S
C1572  C1595   1.407   .     A
C1572  O1656   1.385   .     S
C1572  C716    1.398   1_556 S
C1573  H1605   1.083   .     S
C1573  C1578   1.402   .     A
C1574  C1577   1.402   .     A
C1574  H1606   1.083   .     S
C1574  C1674   1.384   .     S
C1575  C1577   1.400   .     A
C1575  H1607   1.083   .     S
C1575  C1671   1.383   .     S
C1576  C1578   1.401   .     A
C1576  H1608   1.083   .     S
C1579  H1609   1.082   .     S
C1579  N1614   1.367   .     A
C1580  H1610   1.082   .     S
C1580  N1613   1.367   .     A
C1580  C993    1.416   1_565 S
C1581  N1614   1.367   .     A
C1581  H1611   1.082   .     S
C1582  N1613   1.367   .     A
C1582  H1612   1.082   .     S
C1582  C991    1.416   1_565 S
C1583  O1619   1.286   .     A
C1583  C1588   1.446   .     S
C1583  O1622   1.292   .     A
C1584  O1621   1.289   .     A
C1584  O1620   1.289   .     A
C1584  C1587   1.449   .     S
C1585  H1601   1.085   .     S
C1585  C1595   1.395   .     A
C1585  C1587   1.395   .     A
C1586  C1596   1.395   .     A
C1586  H1602   1.085   .     S
C1586  C1588   1.393   .     A
C1587  C1589   1.411   .     A
C1588  C1590   1.408   .     A
C1589  O1623   1.389   .     S
C1589  C1591   1.405   .     A
C1590  O1634   1.389   .     S
C1590  C1592   1.405   .     A
C1591  C1597   1.403   .     A
C1591  C1593   1.415   .     A
C1592  C1594   1.414   .     A
C1592  C1598   1.400   .     A
C1593  C1595   1.413   .     A
C1593  C712    1.407   1_556 S
C1594  C1596   1.412   .     A
C1597  H1603   1.082   .     S
C1597  C689    1.399   1_556 S
C1598  H1604   1.078   .     S
Cu1599 O1615   1.966   .     S
Cu1599 O1617   1.964   .     S
Cu1599 Cu1600  2.675   .     S
Cu1599 O1621   1.959   .     S
Cu1599 O1619   1.961   .     S
Cu1599 N1613   2.010   .     S
Cu1600 O1616   1.966   .     S
Cu1600 O1620   1.961   .     S
Cu1600 O1622   1.959   .     S
Cu1600 O1618   1.964   .     S
Cu1600 N1614   2.010   .     S
O1623  C1624   1.417   .     S
C1624  H1625   1.107   .     S
C1624  C1627   1.531   .     S
C1624  H1626   1.112   .     S
C1627  H1628   1.111   .     S
C1627  H1629   1.111   .     S
C1627  C1630   1.526   .     S
C1630  H1631   1.111   .     S
H1632  C1728   1.106   .     S
H1633  C1728   1.110   .     S
O1634  C1635   1.419   .     S
C1635  H1636   1.110   .     S
C1635  H1637   1.119   .     S
C1635  C1638   1.528   .     S
C1638  H1639   1.112   .     S
C1638  C1641   1.527   .     S
C1638  H1640   1.110   .     S
C1641  H1644   1.111   .     S
C1641  H1054   1.111   1_565 S
C1641  H1055   1.110   1_565 S
O1645  C1646   1.421   .     S
C1646  H1648   1.115   .     S
C1646  H1647   1.111   .     S
C1646  C1649   1.542   .     S
C1649  H1650   1.112   .     S
C1649  H1651   1.108   .     S
C1649  C1652   1.526   .     S
C1652  H1653   1.111   .     S
C1652  H1654   1.110   .     S
H1655  C1750   1.105   .     S
O1656  C1657   1.418   .     S
C1657  H1659   1.116   .     S
C1657  C1660   1.534   .     S
C1657  H1658   1.111   .     S
C1660  H1662   1.111   .     S
C1660  H1661   1.112   .     S
C1660  C1075   1.526   1_565 S
C1663  H1664   1.111   .     S
C1663  H1666   1.111   .     S
C1663  H1665   1.111   .     S
C1667  O1716   1.290   .     A
C1667  O1713   1.291   .     A
C1667  C1676   1.451   .     S
C1668  O1714   1.291   .     A
C1668  O1715   1.289   .     A
C1668  C1675   1.450   .     S
C1669  C1694   1.406   .     A
C1669  O1743   1.388   .     S
C1670  C1693   1.407   .     A
C1670  O1754   1.385   .     S
C1670  C814    1.398   1_556 S
C1671  H1703   1.083   .     S
C1671  C1676   1.402   .     A
C1672  C1675   1.402   .     A
C1672  H1704   1.083   .     S
C1672  C1478   1.384   1_655 S
C1673  C1675   1.400   .     A
C1673  H1705   1.083   .     S
C1673  C1475   1.383   1_655 S
C1674  C1676   1.401   .     A
C1674  H1706   1.083   .     S
C1677  H1707   1.082   .     S
C1677  N1712   1.367   .     A
C1678  H1708   1.082   .     S
C1678  N1711   1.367   .     A
C1678  C1091   1.416   1_565 S
C1679  N1712   1.367   .     A
C1679  H1709   1.082   .     S
C1680  N1711   1.367   .     A
C1680  H1710   1.082   .     S
C1680  C1089   1.416   1_565 S
C1681  O1717   1.286   .     A
C1681  C1686   1.446   .     S
C1681  O1720   1.292   .     A
C1682  O1719   1.289   .     A
C1682  O1718   1.289   .     A
C1682  C1685   1.449   .     S
C1683  H1699   1.085   .     S
C1683  C1693   1.395   .     A
C1683  C1685   1.395   .     A
C1684  C1694   1.395   .     A
C1684  H1700   1.085   .     S
C1684  C1686   1.393   .     A
C1685  C1687   1.411   .     A
C1686  C1688   1.408   .     A
C1687  O1721   1.389   .     S
C1687  C1689   1.405   .     A
C1688  O1732   1.389   .     S
C1688  C1690   1.405   .     A
C1689  C1695   1.403   .     A
C1689  C1691   1.415   .     A
C1690  C1692   1.414   .     A
C1690  C1696   1.400   .     A
C1691  C1693   1.413   .     A
C1691  C810    1.407   1_556 S
C1692  C1694   1.412   .     A
C1695  H1701   1.082   .     S
C1695  C787    1.399   1_556 S
C1696  H1702   1.078   .     S
Cu1697 O1713   1.966   .     S
Cu1697 O1715   1.964   .     S
Cu1697 Cu1698  2.675   .     S
Cu1697 O1719   1.959   .     S
Cu1697 O1717   1.961   .     S
Cu1697 N1711   2.010   .     S
Cu1698 O1714   1.966   .     S
Cu1698 O1718   1.961   .     S
Cu1698 O1720   1.959   .     S
Cu1698 O1716   1.964   .     S
Cu1698 N1712   2.010   .     S
O1721  C1722   1.417   .     S
C1722  H1723   1.107   .     S
C1722  C1725   1.531   .     S
C1722  H1724   1.112   .     S
C1725  H1726   1.111   .     S
C1725  H1727   1.111   .     S
C1725  C1728   1.526   .     S
C1728  H1729   1.111   .     S
H1730  C1532   1.106   1_655 S
H1731  C1532   1.110   1_655 S
O1732  C1733   1.419   .     S
C1733  H1734   1.110   .     S
C1733  H1735   1.119   .     S
C1733  C1736   1.528   .     S
C1736  H1737   1.112   .     S
C1736  C1739   1.527   .     S
C1736  H1738   1.110   .     S
C1739  H1742   1.111   .     S
C1739  H1152   1.111   1_565 S
C1739  H1153   1.110   1_565 S
O1743  C1744   1.421   .     S
C1744  H1746   1.115   .     S
C1744  H1745   1.111   .     S
C1744  C1747   1.542   .     S
C1747  H1748   1.112   .     S
C1747  H1749   1.108   .     S
C1747  C1750   1.526   .     S
C1750  H1751   1.111   .     S
C1750  H1752   1.110   .     S
H1753  C1554   1.105   1_655 S
O1754  C1755   1.418   .     S
C1755  H1757   1.116   .     S
C1755  C1758   1.534   .     S
C1755  H1756   1.111   .     S
C1758  H1760   1.111   .     S
C1758  H1759   1.112   .     S
C1758  C1173   1.526   1_565 S
C1761  H1762   1.111   .     S
C1761  H1764   1.111   .     S
C1761  H1763   1.111   .     S
