data_str_m2_o1_o18_pcu_sym.19
_audit_creation_date              2020-01-03
_audit_creation_method            'Materials Studio'
_symmetry_space_group_name_H-M    'P1'
_symmetry_Int_Tables_number       1
_symmetry_cell_setting            triclinic
loop_
_symmetry_equiv_pos_as_xyz
  x,y,z
_cell_length_a                    28.5602
_cell_length_b                    32.4987
_cell_length_c                    30.8465
_cell_angle_alpha                 89.8753
_cell_angle_beta                  74.7842
_cell_angle_gamma                 90.0205
loop_
_atom_site_label
_atom_site_type_symbol
_atom_site_fract_x
_atom_site_fract_y
_atom_site_fract_z
_atom_site_U_iso_or_equiv
_atom_site_adp_type
_atom_site_occupancy
C1     C     0.33330   0.08736   0.25005   0.00000  Uiso   1.00
C2     C     0.04237   0.02130   0.25062   0.00000  Uiso   1.00
C3     C     0.00003   0.29059   0.24993   0.00000  Uiso   1.00
C4     C     0.33330   0.04274   0.25006   0.00000  Uiso   1.00
C5     C     0.18464   0.13787   0.27392   0.00000  Uiso   1.00
C6     C     0.14869   0.19546   0.22608   0.00000  Uiso   1.00
C7     C     0.13507   0.13784   0.27382   0.00000  Uiso   1.00
C8     C     0.19826   0.19550   0.22618   0.00000  Uiso   1.00
C9     C     0.30628   0.16541   0.33614   0.00000  Uiso   1.00
C10    C     0.02706   0.16792   0.16386   0.00000  Uiso   1.00
C11    C     0.29160   0.16000   0.38524   0.00000  Uiso   1.00
C12    C     0.00003   0.24598   0.24995   0.00000  Uiso   1.00
C13    C     0.04173   0.17336   0.11476   0.00000  Uiso   1.00
C14    C     0.30088   0.12781   0.45337   0.00000  Uiso   1.00
C15    C     0.03251   0.20564   0.04666   0.00000  Uiso   1.00
C16    C     0.32035   0.13811   0.40821   0.00000  Uiso   1.00
C17    C     0.01302   0.19531   0.09181   0.00000  Uiso   1.00
C18    C     0.24501   0.17285   0.40839   0.00000  Uiso   1.00
C19    C     0.08832   0.16049   0.09161   0.00000  Uiso   1.00
C20    C     0.22468   0.16256   0.45381   0.00000  Uiso   1.00
C21    C     0.10868   0.17085   0.04621   0.00000  Uiso   1.00
C22    C     0.25336   0.13903   0.47583   0.00000  Uiso   1.00
C23    C     0.18687   0.13548   0.04260   0.00000  Uiso   1.00
C24    C     0.08002   0.19441   0.02421   0.00000  Uiso   1.00
C25    C     0.17631   0.17362   0.47744   0.00000  Uiso   1.00
C26    C     0.15706   0.15980   0.02260   0.00000  Uiso   1.00
C27    C     0.26018   0.18613   0.10624   0.00000  Uiso   1.00
C28    C     0.07318   0.14736   0.39376   0.00000  Uiso   1.00
C29    C     0.14652   0.19798   0.45745   0.00000  Uiso   1.00
C30    C     0.23408   0.12576   0.01974   0.00000  Uiso   1.00
C31    C     0.09932   0.20771   0.48031   0.00000  Uiso   1.00
C32    C     0.29093   0.02127   0.24946   0.00000  Uiso   1.00
C33    C     0.04240   0.31207   0.25053   0.00000  Uiso   1.00
C34    C     0.29097   0.31203   0.24938   0.00000  Uiso   1.00
Cu35   Cu    0.04689   0.16667   0.25000   0.00000  Uiso   1.00
Cu36   Cu    0.28645   0.16666   0.25000   0.00000  Uiso   1.00
H37    H     0.25561   0.10727   0.03659   0.00000  Uiso   1.00
H38    H     0.07548   0.03733   0.25113   0.00000  Uiso   1.00
H39    H     0.19780   0.11485   0.29319   0.00000  Uiso   1.00
H40    H     0.13554   0.21849   0.20681   0.00000  Uiso   1.00
H41    H     0.11096   0.11471   0.29287   0.00000  Uiso   1.00
H42    H     0.22237   0.21863   0.20713   0.00000  Uiso   1.00
H43    H     0.29527   0.24104   0.10966   0.00000  Uiso   1.00
H44    H     0.26033   0.18864   0.07030   0.00000  Uiso   1.00
H45    H     0.22501   0.19809   0.12688   0.00000  Uiso   1.00
H46    H     0.26349   0.15332   0.11523   0.00000  Uiso   1.00
H47    H     0.03815   0.09240   0.39040   0.00000  Uiso   1.00
H48    H     0.07780   0.22623   0.46347   0.00000  Uiso   1.00
H49    H     0.07304   0.14488   0.42970   0.00000  Uiso   1.00
H50    H     0.06983   0.18016   0.38474   0.00000  Uiso   1.00
H51    H     0.10835   0.13541   0.37312   0.00000  Uiso   1.00
H52    H     0.17509   0.12304   0.07602   0.00000  Uiso   1.00
H53    H     0.15833   0.21046   0.42404   0.00000  Uiso   1.00
H54    H     0.10847   0.14372   0.11077   0.00000  Uiso   1.00
H55    H     0.22482   0.18955   0.38921   0.00000  Uiso   1.00
H56    H     0.32260   0.10990   0.47056   0.00000  Uiso   1.00
H57    H     0.01080   0.22358   0.02948   0.00000  Uiso   1.00
H58    H     0.25779   0.03726   0.24903   0.00000  Uiso   1.00
H59    H     0.07555   0.29607   0.25097   0.00000  Uiso   1.00
H60    H     0.25785   0.29600   0.24887   0.00000  Uiso   1.00
N61    N     0.11736   0.16668   0.24999   0.00000  Uiso   1.00
N62    N     0.21597   0.16666   0.25001   0.00000  Uiso   1.00
N63    N     0.29954   0.21003   0.11469   0.00000  Uiso   1.00
N64    N     0.03384   0.12341   0.38534   0.00000  Uiso   1.00
O65    O     0.03958   0.10655   0.25000   0.00000  Uiso   1.00
O66    O     0.29375   0.22678   0.25000   0.00000  Uiso   1.00
O67    O     0.29372   0.10654   0.25000   0.00000  Uiso   1.00
O68    O     0.03961   0.22679   0.25000   0.00000  Uiso   1.00
O69    O     0.01852   0.16668   0.31492   0.00000  Uiso   1.00
O70    O     0.31481   0.16666   0.18508   0.00000  Uiso   1.00
O71    O     0.27267   0.16667   0.31492   0.00000  Uiso   1.00
O72    O     0.06067   0.16667   0.18508   0.00000  Uiso   1.00
C73    C     0.66664   0.08736   0.25005   0.00000  Uiso   1.00
C74    C     0.37570   0.02130   0.25062   0.00000  Uiso   1.00
C75    C     0.33336   0.29059   0.24993   0.00000  Uiso   1.00
C76    C     0.66664   0.04274   0.25006   0.00000  Uiso   1.00
C77    C     0.51797   0.13787   0.27392   0.00000  Uiso   1.00
C78    C     0.48202   0.19546   0.22608   0.00000  Uiso   1.00
C79    C     0.46841   0.13784   0.27382   0.00000  Uiso   1.00
C80    C     0.53159   0.19550   0.22618   0.00000  Uiso   1.00
C81    C     0.63961   0.16541   0.33614   0.00000  Uiso   1.00
C82    C     0.36039   0.16792   0.16386   0.00000  Uiso   1.00
C83    C     0.62494   0.16000   0.38524   0.00000  Uiso   1.00
C84    C     0.33336   0.24598   0.24995   0.00000  Uiso   1.00
C85    C     0.37507   0.17336   0.11476   0.00000  Uiso   1.00
C86    C     0.63421   0.12781   0.45337   0.00000  Uiso   1.00
C87    C     0.36584   0.20564   0.04666   0.00000  Uiso   1.00
C88    C     0.65368   0.13811   0.40821   0.00000  Uiso   1.00
C89    C     0.34635   0.19531   0.09181   0.00000  Uiso   1.00
C90    C     0.57834   0.17285   0.40839   0.00000  Uiso   1.00
C91    C     0.42165   0.16049   0.09161   0.00000  Uiso   1.00
C92    C     0.55802   0.16256   0.45381   0.00000  Uiso   1.00
C93    C     0.44201   0.17085   0.04621   0.00000  Uiso   1.00
C94    C     0.58669   0.13903   0.47583   0.00000  Uiso   1.00
C95    C     0.52020   0.13548   0.04260   0.00000  Uiso   1.00
C96    C     0.41335   0.19441   0.02421   0.00000  Uiso   1.00
C97    C     0.50964   0.17362   0.47744   0.00000  Uiso   1.00
C98    C     0.49040   0.15980   0.02260   0.00000  Uiso   1.00
C99    C     0.59351   0.18613   0.10624   0.00000  Uiso   1.00
C100   C     0.40651   0.14736   0.39376   0.00000  Uiso   1.00
C101   C     0.47986   0.19798   0.45745   0.00000  Uiso   1.00
C102   C     0.56742   0.12576   0.01974   0.00000  Uiso   1.00
C103   C     0.43265   0.20771   0.48031   0.00000  Uiso   1.00
C104   C     0.62427   0.02127   0.24946   0.00000  Uiso   1.00
C105   C     0.37573   0.31207   0.25053   0.00000  Uiso   1.00
C106   C     0.62430   0.31203   0.24938   0.00000  Uiso   1.00
Cu107  Cu    0.38022   0.16667   0.25000   0.00000  Uiso   1.00
Cu108  Cu    0.61978   0.16666   0.25000   0.00000  Uiso   1.00
H109   H     0.58895   0.10727   0.03659   0.00000  Uiso   1.00
H110   H     0.40882   0.03733   0.25113   0.00000  Uiso   1.00
H111   H     0.53113   0.11485   0.29319   0.00000  Uiso   1.00
H112   H     0.46887   0.21849   0.20681   0.00000  Uiso   1.00
H113   H     0.44430   0.11471   0.29287   0.00000  Uiso   1.00
H114   H     0.55570   0.21863   0.20713   0.00000  Uiso   1.00
H115   H     0.62860   0.24104   0.10966   0.00000  Uiso   1.00
H116   H     0.59366   0.18864   0.07030   0.00000  Uiso   1.00
H117   H     0.55835   0.19809   0.12688   0.00000  Uiso   1.00
H118   H     0.59682   0.15332   0.11523   0.00000  Uiso   1.00
H119   H     0.37148   0.09240   0.39040   0.00000  Uiso   1.00
H120   H     0.41113   0.22623   0.46347   0.00000  Uiso   1.00
H121   H     0.40637   0.14488   0.42970   0.00000  Uiso   1.00
H122   H     0.40316   0.18016   0.38474   0.00000  Uiso   1.00
H123   H     0.44169   0.13541   0.37312   0.00000  Uiso   1.00
H124   H     0.50842   0.12304   0.07602   0.00000  Uiso   1.00
H125   H     0.49167   0.21046   0.42404   0.00000  Uiso   1.00
H126   H     0.44180   0.14372   0.11077   0.00000  Uiso   1.00
H127   H     0.55815   0.18955   0.38921   0.00000  Uiso   1.00
H128   H     0.65593   0.10990   0.47056   0.00000  Uiso   1.00
H129   H     0.34413   0.22358   0.02948   0.00000  Uiso   1.00
H130   H     0.59112   0.03726   0.24903   0.00000  Uiso   1.00
H131   H     0.40888   0.29607   0.25097   0.00000  Uiso   1.00
H132   H     0.59118   0.29600   0.24887   0.00000  Uiso   1.00
N133   N     0.45069   0.16668   0.24999   0.00000  Uiso   1.00
N134   N     0.54931   0.16666   0.25001   0.00000  Uiso   1.00
N135   N     0.63287   0.21003   0.11469   0.00000  Uiso   1.00
N136   N     0.36717   0.12341   0.38534   0.00000  Uiso   1.00
O137   O     0.37291   0.10655   0.25000   0.00000  Uiso   1.00
O138   O     0.62709   0.22678   0.25000   0.00000  Uiso   1.00
O139   O     0.62706   0.10654   0.25000   0.00000  Uiso   1.00
O140   O     0.37294   0.22679   0.25000   0.00000  Uiso   1.00
O141   O     0.35186   0.16668   0.31492   0.00000  Uiso   1.00
O142   O     0.64814   0.16666   0.18508   0.00000  Uiso   1.00
O143   O     0.60600   0.16667   0.31492   0.00000  Uiso   1.00
O144   O     0.39400   0.16667   0.18508   0.00000  Uiso   1.00
C145   C     0.99997   0.08736   0.25005   0.00000  Uiso   1.00
C146   C     0.70903   0.02130   0.25062   0.00000  Uiso   1.00
C147   C     0.66670   0.29059   0.24993   0.00000  Uiso   1.00
C148   C     0.99997   0.04274   0.25006   0.00000  Uiso   1.00
C149   C     0.85131   0.13787   0.27392   0.00000  Uiso   1.00
C150   C     0.81536   0.19546   0.22608   0.00000  Uiso   1.00
C151   C     0.80174   0.13784   0.27382   0.00000  Uiso   1.00
C152   C     0.86493   0.19550   0.22618   0.00000  Uiso   1.00
C153   C     0.97294   0.16541   0.33614   0.00000  Uiso   1.00
C154   C     0.69372   0.16792   0.16386   0.00000  Uiso   1.00
C155   C     0.95827   0.16000   0.38524   0.00000  Uiso   1.00
C156   C     0.66670   0.24598   0.24995   0.00000  Uiso   1.00
C157   C     0.70840   0.17336   0.11476   0.00000  Uiso   1.00
C158   C     0.96754   0.12781   0.45337   0.00000  Uiso   1.00
C159   C     0.69917   0.20564   0.04666   0.00000  Uiso   1.00
C160   C     0.98701   0.13811   0.40821   0.00000  Uiso   1.00
C161   C     0.67969   0.19531   0.09181   0.00000  Uiso   1.00
C162   C     0.91168   0.17285   0.40839   0.00000  Uiso   1.00
C163   C     0.75498   0.16049   0.09161   0.00000  Uiso   1.00
C164   C     0.89135   0.16256   0.45381   0.00000  Uiso   1.00
C165   C     0.77535   0.17085   0.04621   0.00000  Uiso   1.00
C166   C     0.92003   0.13903   0.47583   0.00000  Uiso   1.00
C167   C     0.85354   0.13548   0.04260   0.00000  Uiso   1.00
C168   C     0.74669   0.19441   0.02421   0.00000  Uiso   1.00
C169   C     0.84298   0.17362   0.47744   0.00000  Uiso   1.00
C170   C     0.82373   0.15980   0.02260   0.00000  Uiso   1.00
C171   C     0.92685   0.18613   0.10624   0.00000  Uiso   1.00
C172   C     0.73984   0.14736   0.39376   0.00000  Uiso   1.00
C173   C     0.81319   0.19798   0.45745   0.00000  Uiso   1.00
C174   C     0.90075   0.12576   0.01974   0.00000  Uiso   1.00
C175   C     0.76598   0.20771   0.48031   0.00000  Uiso   1.00
C176   C     0.95760   0.02127   0.24946   0.00000  Uiso   1.00
C177   C     0.70907   0.31207   0.25053   0.00000  Uiso   1.00
C178   C     0.95763   0.31203   0.24938   0.00000  Uiso   1.00
Cu179  Cu    0.71355   0.16667   0.25000   0.00000  Uiso   1.00
Cu180  Cu    0.95311   0.16666   0.25000   0.00000  Uiso   1.00
H181   H     0.92228   0.10727   0.03659   0.00000  Uiso   1.00
H182   H     0.74215   0.03733   0.25113   0.00000  Uiso   1.00
H183   H     0.86446   0.11485   0.29319   0.00000  Uiso   1.00
H184   H     0.80220   0.21849   0.20681   0.00000  Uiso   1.00
H185   H     0.77763   0.11471   0.29287   0.00000  Uiso   1.00
H186   H     0.88904   0.21863   0.20713   0.00000  Uiso   1.00
H187   H     0.96193   0.24104   0.10966   0.00000  Uiso   1.00
H188   H     0.92699   0.18864   0.07030   0.00000  Uiso   1.00
H189   H     0.89168   0.19809   0.12688   0.00000  Uiso   1.00
H190   H     0.93015   0.15332   0.11523   0.00000  Uiso   1.00
H191   H     0.70481   0.09240   0.39040   0.00000  Uiso   1.00
H192   H     0.74447   0.22623   0.46347   0.00000  Uiso   1.00
H193   H     0.73971   0.14488   0.42970   0.00000  Uiso   1.00
H194   H     0.73650   0.18016   0.38474   0.00000  Uiso   1.00
H195   H     0.77502   0.13541   0.37312   0.00000  Uiso   1.00
H196   H     0.84175   0.12304   0.07602   0.00000  Uiso   1.00
H197   H     0.82500   0.21046   0.42404   0.00000  Uiso   1.00
H198   H     0.77513   0.14372   0.11077   0.00000  Uiso   1.00
H199   H     0.89149   0.18955   0.38921   0.00000  Uiso   1.00
H200   H     0.98927   0.10990   0.47056   0.00000  Uiso   1.00
H201   H     0.67747   0.22358   0.02948   0.00000  Uiso   1.00
H202   H     0.92445   0.03726   0.24903   0.00000  Uiso   1.00
H203   H     0.74221   0.29607   0.25097   0.00000  Uiso   1.00
H204   H     0.92452   0.29600   0.24887   0.00000  Uiso   1.00
N205   N     0.78403   0.16668   0.24999   0.00000  Uiso   1.00
N206   N     0.88264   0.16666   0.25001   0.00000  Uiso   1.00
N207   N     0.96620   0.21003   0.11469   0.00000  Uiso   1.00
N208   N     0.70051   0.12341   0.38534   0.00000  Uiso   1.00
O209   O     0.70625   0.10655   0.25000   0.00000  Uiso   1.00
O210   O     0.96042   0.22678   0.25000   0.00000  Uiso   1.00
O211   O     0.96039   0.10654   0.25000   0.00000  Uiso   1.00
O212   O     0.70628   0.22679   0.25000   0.00000  Uiso   1.00
O213   O     0.68519   0.16668   0.31492   0.00000  Uiso   1.00
O214   O     0.98148   0.16666   0.18508   0.00000  Uiso   1.00
O215   O     0.93933   0.16667   0.31492   0.00000  Uiso   1.00
O216   O     0.72733   0.16667   0.18508   0.00000  Uiso   1.00
C217   C     0.33330   0.42069   0.25005   0.00000  Uiso   1.00
C218   C     0.04237   0.35464   0.25062   0.00000  Uiso   1.00
C219   C     0.00003   0.62393   0.24993   0.00000  Uiso   1.00
C220   C     0.33330   0.37607   0.25006   0.00000  Uiso   1.00
C221   C     0.18464   0.47121   0.27392   0.00000  Uiso   1.00
C222   C     0.14869   0.52879   0.22608   0.00000  Uiso   1.00
C223   C     0.13507   0.47117   0.27382   0.00000  Uiso   1.00
C224   C     0.19826   0.52883   0.22618   0.00000  Uiso   1.00
C225   C     0.30628   0.49875   0.33614   0.00000  Uiso   1.00
C226   C     0.02706   0.50125   0.16386   0.00000  Uiso   1.00
C227   C     0.29160   0.49333   0.38524   0.00000  Uiso   1.00
C228   C     0.00003   0.57931   0.24995   0.00000  Uiso   1.00
C229   C     0.04173   0.50669   0.11476   0.00000  Uiso   1.00
C230   C     0.30088   0.46114   0.45337   0.00000  Uiso   1.00
C231   C     0.03251   0.53897   0.04666   0.00000  Uiso   1.00
C232   C     0.32035   0.47144   0.40821   0.00000  Uiso   1.00
C233   C     0.01302   0.52864   0.09181   0.00000  Uiso   1.00
C234   C     0.24501   0.50619   0.40839   0.00000  Uiso   1.00
C235   C     0.08832   0.49382   0.09161   0.00000  Uiso   1.00
C236   C     0.22468   0.49589   0.45381   0.00000  Uiso   1.00
C237   C     0.10868   0.50418   0.04621   0.00000  Uiso   1.00
C238   C     0.25336   0.47236   0.47583   0.00000  Uiso   1.00
C239   C     0.18687   0.46881   0.04260   0.00000  Uiso   1.00
C240   C     0.08002   0.52774   0.02421   0.00000  Uiso   1.00
C241   C     0.17631   0.50696   0.47744   0.00000  Uiso   1.00
C242   C     0.15706   0.49313   0.02260   0.00000  Uiso   1.00
C243   C     0.26018   0.51946   0.10624   0.00000  Uiso   1.00
C244   C     0.07318   0.48069   0.39376   0.00000  Uiso   1.00
C245   C     0.14652   0.53131   0.45745   0.00000  Uiso   1.00
C246   C     0.23408   0.45909   0.01974   0.00000  Uiso   1.00
C247   C     0.09932   0.54105   0.48031   0.00000  Uiso   1.00
C248   C     0.29093   0.35460   0.24946   0.00000  Uiso   1.00
C249   C     0.04240   0.64540   0.25053   0.00000  Uiso   1.00
C250   C     0.29097   0.64536   0.24938   0.00000  Uiso   1.00
Cu251  Cu    0.04689   0.50001   0.25000   0.00000  Uiso   1.00
Cu252  Cu    0.28645   0.49999   0.25000   0.00000  Uiso   1.00
H253   H     0.25561   0.44060   0.03659   0.00000  Uiso   1.00
H254   H     0.07548   0.37066   0.25113   0.00000  Uiso   1.00
H255   H     0.19780   0.44818   0.29319   0.00000  Uiso   1.00
H256   H     0.13554   0.55182   0.20681   0.00000  Uiso   1.00
H257   H     0.11096   0.44804   0.29287   0.00000  Uiso   1.00
H258   H     0.22237   0.55196   0.20713   0.00000  Uiso   1.00
H259   H     0.29527   0.57438   0.10966   0.00000  Uiso   1.00
H260   H     0.26033   0.52197   0.07030   0.00000  Uiso   1.00
H261   H     0.22501   0.53142   0.12688   0.00000  Uiso   1.00
H262   H     0.26349   0.48665   0.11523   0.00000  Uiso   1.00
H263   H     0.03815   0.42574   0.39040   0.00000  Uiso   1.00
H264   H     0.07780   0.55957   0.46347   0.00000  Uiso   1.00
H265   H     0.07304   0.47822   0.42970   0.00000  Uiso   1.00
H266   H     0.06983   0.51349   0.38474   0.00000  Uiso   1.00
H267   H     0.10835   0.46875   0.37312   0.00000  Uiso   1.00
H268   H     0.17509   0.45638   0.07602   0.00000  Uiso   1.00
H269   H     0.15833   0.54379   0.42404   0.00000  Uiso   1.00
H270   H     0.10847   0.47705   0.11077   0.00000  Uiso   1.00
H271   H     0.22482   0.52289   0.38921   0.00000  Uiso   1.00
H272   H     0.32260   0.44323   0.47056   0.00000  Uiso   1.00
H273   H     0.01080   0.55692   0.02948   0.00000  Uiso   1.00
H274   H     0.25779   0.37060   0.24903   0.00000  Uiso   1.00
H275   H     0.07555   0.62940   0.25097   0.00000  Uiso   1.00
H276   H     0.25785   0.62934   0.24887   0.00000  Uiso   1.00
N277   N     0.11736   0.50001   0.24999   0.00000  Uiso   1.00
N278   N     0.21597   0.49999   0.25001   0.00000  Uiso   1.00
N279   N     0.29954   0.54336   0.11469   0.00000  Uiso   1.00
N280   N     0.03384   0.45674   0.38534   0.00000  Uiso   1.00
O281   O     0.03958   0.43989   0.25000   0.00000  Uiso   1.00
O282   O     0.29375   0.56011   0.25000   0.00000  Uiso   1.00
O283   O     0.29372   0.43988   0.25000   0.00000  Uiso   1.00
O284   O     0.03961   0.56012   0.25000   0.00000  Uiso   1.00
O285   O     0.01852   0.50001   0.31492   0.00000  Uiso   1.00
O286   O     0.31481   0.49999   0.18508   0.00000  Uiso   1.00
O287   O     0.27267   0.50000   0.31492   0.00000  Uiso   1.00
O288   O     0.06067   0.50000   0.18508   0.00000  Uiso   1.00
C289   C     0.66664   0.42069   0.25005   0.00000  Uiso   1.00
C290   C     0.37570   0.35464   0.25062   0.00000  Uiso   1.00
C291   C     0.33336   0.62393   0.24993   0.00000  Uiso   1.00
C292   C     0.66664   0.37607   0.25006   0.00000  Uiso   1.00
C293   C     0.51797   0.47121   0.27392   0.00000  Uiso   1.00
C294   C     0.48202   0.52879   0.22608   0.00000  Uiso   1.00
C295   C     0.46841   0.47117   0.27382   0.00000  Uiso   1.00
C296   C     0.53159   0.52883   0.22618   0.00000  Uiso   1.00
C297   C     0.63961   0.49875   0.33614   0.00000  Uiso   1.00
C298   C     0.36039   0.50125   0.16386   0.00000  Uiso   1.00
C299   C     0.62494   0.49333   0.38524   0.00000  Uiso   1.00
C300   C     0.33336   0.57931   0.24995   0.00000  Uiso   1.00
C301   C     0.37507   0.50669   0.11476   0.00000  Uiso   1.00
C302   C     0.63421   0.46114   0.45337   0.00000  Uiso   1.00
C303   C     0.36584   0.53897   0.04666   0.00000  Uiso   1.00
C304   C     0.65368   0.47144   0.40821   0.00000  Uiso   1.00
C305   C     0.34635   0.52864   0.09181   0.00000  Uiso   1.00
C306   C     0.57834   0.50619   0.40839   0.00000  Uiso   1.00
C307   C     0.42165   0.49382   0.09161   0.00000  Uiso   1.00
C308   C     0.55802   0.49589   0.45381   0.00000  Uiso   1.00
C309   C     0.44201   0.50418   0.04621   0.00000  Uiso   1.00
C310   C     0.58669   0.47236   0.47583   0.00000  Uiso   1.00
C311   C     0.52020   0.46881   0.04260   0.00000  Uiso   1.00
C312   C     0.41335   0.52774   0.02421   0.00000  Uiso   1.00
C313   C     0.50964   0.50696   0.47744   0.00000  Uiso   1.00
C314   C     0.49040   0.49313   0.02260   0.00000  Uiso   1.00
C315   C     0.59351   0.51946   0.10624   0.00000  Uiso   1.00
C316   C     0.40651   0.48069   0.39376   0.00000  Uiso   1.00
C317   C     0.47986   0.53131   0.45745   0.00000  Uiso   1.00
C318   C     0.56742   0.45909   0.01974   0.00000  Uiso   1.00
C319   C     0.43265   0.54105   0.48031   0.00000  Uiso   1.00
C320   C     0.62427   0.35460   0.24946   0.00000  Uiso   1.00
C321   C     0.37573   0.64540   0.25053   0.00000  Uiso   1.00
C322   C     0.62430   0.64536   0.24938   0.00000  Uiso   1.00
Cu323  Cu    0.38022   0.50001   0.25000   0.00000  Uiso   1.00
Cu324  Cu    0.61978   0.49999   0.25000   0.00000  Uiso   1.00
H325   H     0.58895   0.44060   0.03659   0.00000  Uiso   1.00
H326   H     0.40882   0.37066   0.25113   0.00000  Uiso   1.00
H327   H     0.53113   0.44818   0.29319   0.00000  Uiso   1.00
H328   H     0.46887   0.55182   0.20681   0.00000  Uiso   1.00
H329   H     0.44430   0.44804   0.29287   0.00000  Uiso   1.00
H330   H     0.55570   0.55196   0.20713   0.00000  Uiso   1.00
H331   H     0.62860   0.57438   0.10966   0.00000  Uiso   1.00
H332   H     0.59366   0.52197   0.07030   0.00000  Uiso   1.00
H333   H     0.55835   0.53142   0.12688   0.00000  Uiso   1.00
H334   H     0.59682   0.48665   0.11523   0.00000  Uiso   1.00
H335   H     0.37148   0.42574   0.39040   0.00000  Uiso   1.00
H336   H     0.41113   0.55957   0.46347   0.00000  Uiso   1.00
H337   H     0.40637   0.47822   0.42970   0.00000  Uiso   1.00
H338   H     0.40316   0.51349   0.38474   0.00000  Uiso   1.00
H339   H     0.44169   0.46875   0.37312   0.00000  Uiso   1.00
H340   H     0.50842   0.45638   0.07602   0.00000  Uiso   1.00
H341   H     0.49167   0.54379   0.42404   0.00000  Uiso   1.00
H342   H     0.44180   0.47705   0.11077   0.00000  Uiso   1.00
H343   H     0.55815   0.52289   0.38921   0.00000  Uiso   1.00
H344   H     0.65593   0.44323   0.47056   0.00000  Uiso   1.00
H345   H     0.34413   0.55692   0.02948   0.00000  Uiso   1.00
H346   H     0.59112   0.37060   0.24903   0.00000  Uiso   1.00
H347   H     0.40888   0.62940   0.25097   0.00000  Uiso   1.00
H348   H     0.59118   0.62934   0.24887   0.00000  Uiso   1.00
N349   N     0.45069   0.50001   0.24999   0.00000  Uiso   1.00
N350   N     0.54931   0.49999   0.25001   0.00000  Uiso   1.00
N351   N     0.63287   0.54336   0.11469   0.00000  Uiso   1.00
N352   N     0.36717   0.45674   0.38534   0.00000  Uiso   1.00
O353   O     0.37291   0.43989   0.25000   0.00000  Uiso   1.00
O354   O     0.62709   0.56011   0.25000   0.00000  Uiso   1.00
O355   O     0.62706   0.43988   0.25000   0.00000  Uiso   1.00
O356   O     0.37294   0.56012   0.25000   0.00000  Uiso   1.00
O357   O     0.35186   0.50001   0.31492   0.00000  Uiso   1.00
O358   O     0.64814   0.49999   0.18508   0.00000  Uiso   1.00
O359   O     0.60600   0.50000   0.31492   0.00000  Uiso   1.00
O360   O     0.39400   0.50000   0.18508   0.00000  Uiso   1.00
C361   C     0.99997   0.42069   0.25005   0.00000  Uiso   1.00
C362   C     0.70903   0.35464   0.25062   0.00000  Uiso   1.00
C363   C     0.66670   0.62393   0.24993   0.00000  Uiso   1.00
C364   C     0.99997   0.37607   0.25006   0.00000  Uiso   1.00
C365   C     0.85131   0.47121   0.27392   0.00000  Uiso   1.00
C366   C     0.81536   0.52879   0.22608   0.00000  Uiso   1.00
C367   C     0.80174   0.47117   0.27382   0.00000  Uiso   1.00
C368   C     0.86493   0.52883   0.22618   0.00000  Uiso   1.00
C369   C     0.97294   0.49875   0.33614   0.00000  Uiso   1.00
C370   C     0.69372   0.50125   0.16386   0.00000  Uiso   1.00
C371   C     0.95827   0.49333   0.38524   0.00000  Uiso   1.00
C372   C     0.66670   0.57931   0.24995   0.00000  Uiso   1.00
C373   C     0.70840   0.50669   0.11476   0.00000  Uiso   1.00
C374   C     0.96754   0.46114   0.45337   0.00000  Uiso   1.00
C375   C     0.69917   0.53897   0.04666   0.00000  Uiso   1.00
C376   C     0.98701   0.47144   0.40821   0.00000  Uiso   1.00
C377   C     0.67969   0.52864   0.09181   0.00000  Uiso   1.00
C378   C     0.91168   0.50619   0.40839   0.00000  Uiso   1.00
C379   C     0.75498   0.49382   0.09161   0.00000  Uiso   1.00
C380   C     0.89135   0.49589   0.45381   0.00000  Uiso   1.00
C381   C     0.77535   0.50418   0.04621   0.00000  Uiso   1.00
C382   C     0.92003   0.47236   0.47583   0.00000  Uiso   1.00
C383   C     0.85354   0.46881   0.04260   0.00000  Uiso   1.00
C384   C     0.74669   0.52774   0.02421   0.00000  Uiso   1.00
C385   C     0.84298   0.50696   0.47744   0.00000  Uiso   1.00
C386   C     0.82373   0.49313   0.02260   0.00000  Uiso   1.00
C387   C     0.92685   0.51946   0.10624   0.00000  Uiso   1.00
C388   C     0.73984   0.48069   0.39376   0.00000  Uiso   1.00
C389   C     0.81319   0.53131   0.45745   0.00000  Uiso   1.00
C390   C     0.90075   0.45909   0.01974   0.00000  Uiso   1.00
C391   C     0.76598   0.54105   0.48031   0.00000  Uiso   1.00
C392   C     0.95760   0.35460   0.24946   0.00000  Uiso   1.00
C393   C     0.70907   0.64540   0.25053   0.00000  Uiso   1.00
C394   C     0.95763   0.64536   0.24938   0.00000  Uiso   1.00
Cu395  Cu    0.71355   0.50001   0.25000   0.00000  Uiso   1.00
Cu396  Cu    0.95311   0.49999   0.25000   0.00000  Uiso   1.00
H397   H     0.92228   0.44060   0.03659   0.00000  Uiso   1.00
H398   H     0.74215   0.37066   0.25113   0.00000  Uiso   1.00
H399   H     0.86446   0.44818   0.29319   0.00000  Uiso   1.00
H400   H     0.80220   0.55182   0.20681   0.00000  Uiso   1.00
H401   H     0.77763   0.44804   0.29287   0.00000  Uiso   1.00
H402   H     0.88904   0.55196   0.20713   0.00000  Uiso   1.00
H403   H     0.96193   0.57438   0.10966   0.00000  Uiso   1.00
H404   H     0.92699   0.52197   0.07030   0.00000  Uiso   1.00
H405   H     0.89168   0.53142   0.12688   0.00000  Uiso   1.00
H406   H     0.93015   0.48665   0.11523   0.00000  Uiso   1.00
H407   H     0.70481   0.42574   0.39040   0.00000  Uiso   1.00
H408   H     0.74447   0.55957   0.46347   0.00000  Uiso   1.00
H409   H     0.73971   0.47822   0.42970   0.00000  Uiso   1.00
H410   H     0.73650   0.51349   0.38474   0.00000  Uiso   1.00
H411   H     0.77502   0.46875   0.37312   0.00000  Uiso   1.00
H412   H     0.84175   0.45638   0.07602   0.00000  Uiso   1.00
H413   H     0.82500   0.54379   0.42404   0.00000  Uiso   1.00
H414   H     0.77513   0.47705   0.11077   0.00000  Uiso   1.00
H415   H     0.89149   0.52289   0.38921   0.00000  Uiso   1.00
H416   H     0.98927   0.44323   0.47056   0.00000  Uiso   1.00
H417   H     0.67747   0.55692   0.02948   0.00000  Uiso   1.00
H418   H     0.92445   0.37060   0.24903   0.00000  Uiso   1.00
H419   H     0.74221   0.62940   0.25097   0.00000  Uiso   1.00
H420   H     0.92452   0.62934   0.24887   0.00000  Uiso   1.00
N421   N     0.78403   0.50001   0.24999   0.00000  Uiso   1.00
N422   N     0.88264   0.49999   0.25001   0.00000  Uiso   1.00
N423   N     0.96620   0.54336   0.11469   0.00000  Uiso   1.00
N424   N     0.70051   0.45674   0.38534   0.00000  Uiso   1.00
O425   O     0.70625   0.43989   0.25000   0.00000  Uiso   1.00
O426   O     0.96042   0.56011   0.25000   0.00000  Uiso   1.00
O427   O     0.96039   0.43988   0.25000   0.00000  Uiso   1.00
O428   O     0.70628   0.56012   0.25000   0.00000  Uiso   1.00
O429   O     0.68519   0.50001   0.31492   0.00000  Uiso   1.00
O430   O     0.98148   0.49999   0.18508   0.00000  Uiso   1.00
O431   O     0.93933   0.50000   0.31492   0.00000  Uiso   1.00
O432   O     0.72733   0.50000   0.18508   0.00000  Uiso   1.00
C433   C     0.33330   0.75403   0.25005   0.00000  Uiso   1.00
C434   C     0.04237   0.68797   0.25062   0.00000  Uiso   1.00
C435   C     0.00003   0.95726   0.24993   0.00000  Uiso   1.00
C436   C     0.33330   0.70941   0.25006   0.00000  Uiso   1.00
C437   C     0.18464   0.80454   0.27392   0.00000  Uiso   1.00
C438   C     0.14869   0.86213   0.22608   0.00000  Uiso   1.00
C439   C     0.13507   0.80450   0.27382   0.00000  Uiso   1.00
C440   C     0.19826   0.86216   0.22618   0.00000  Uiso   1.00
C441   C     0.30628   0.83208   0.33614   0.00000  Uiso   1.00
C442   C     0.02706   0.83459   0.16386   0.00000  Uiso   1.00
C443   C     0.29160   0.82667   0.38524   0.00000  Uiso   1.00
C444   C     0.00003   0.91264   0.24995   0.00000  Uiso   1.00
C445   C     0.04173   0.84003   0.11476   0.00000  Uiso   1.00
C446   C     0.30088   0.79447   0.45337   0.00000  Uiso   1.00
C447   C     0.03251   0.87230   0.04666   0.00000  Uiso   1.00
C448   C     0.32035   0.80477   0.40821   0.00000  Uiso   1.00
C449   C     0.01302   0.86198   0.09181   0.00000  Uiso   1.00
C450   C     0.24501   0.83952   0.40839   0.00000  Uiso   1.00
C451   C     0.08832   0.82716   0.09161   0.00000  Uiso   1.00
C452   C     0.22468   0.82922   0.45381   0.00000  Uiso   1.00
C453   C     0.10868   0.83751   0.04621   0.00000  Uiso   1.00
C454   C     0.25336   0.80569   0.47583   0.00000  Uiso   1.00
C455   C     0.18687   0.80215   0.04260   0.00000  Uiso   1.00
C456   C     0.08002   0.86108   0.02421   0.00000  Uiso   1.00
C457   C     0.17631   0.84029   0.47744   0.00000  Uiso   1.00
C458   C     0.15706   0.82647   0.02260   0.00000  Uiso   1.00
C459   C     0.26018   0.85279   0.10624   0.00000  Uiso   1.00
C460   C     0.07318   0.81403   0.39376   0.00000  Uiso   1.00
C461   C     0.14652   0.86464   0.45745   0.00000  Uiso   1.00
C462   C     0.23408   0.79242   0.01974   0.00000  Uiso   1.00
C463   C     0.09932   0.87438   0.48031   0.00000  Uiso   1.00
C464   C     0.29093   0.68793   0.24946   0.00000  Uiso   1.00
C465   C     0.04240   0.97873   0.25053   0.00000  Uiso   1.00
C466   C     0.29097   0.97870   0.24938   0.00000  Uiso   1.00
Cu467  Cu    0.04689   0.83334   0.25000   0.00000  Uiso   1.00
Cu468  Cu    0.28645   0.83333   0.25000   0.00000  Uiso   1.00
H469   H     0.25561   0.77394   0.03659   0.00000  Uiso   1.00
H470   H     0.07548   0.70400   0.25113   0.00000  Uiso   1.00
H471   H     0.19780   0.78151   0.29319   0.00000  Uiso   1.00
H472   H     0.13554   0.88515   0.20681   0.00000  Uiso   1.00
H473   H     0.11096   0.78138   0.29287   0.00000  Uiso   1.00
H474   H     0.22237   0.88529   0.20713   0.00000  Uiso   1.00
H475   H     0.29527   0.90771   0.10966   0.00000  Uiso   1.00
H476   H     0.26033   0.85531   0.07030   0.00000  Uiso   1.00
H477   H     0.22501   0.86476   0.12688   0.00000  Uiso   1.00
H478   H     0.26349   0.81998   0.11523   0.00000  Uiso   1.00
H479   H     0.03815   0.75907   0.39040   0.00000  Uiso   1.00
H480   H     0.07780   0.89290   0.46347   0.00000  Uiso   1.00
H481   H     0.07304   0.81155   0.42970   0.00000  Uiso   1.00
H482   H     0.06983   0.84682   0.38474   0.00000  Uiso   1.00
H483   H     0.10835   0.80208   0.37312   0.00000  Uiso   1.00
H484   H     0.17509   0.78971   0.07602   0.00000  Uiso   1.00
H485   H     0.15833   0.87713   0.42404   0.00000  Uiso   1.00
H486   H     0.10847   0.81038   0.11077   0.00000  Uiso   1.00
H487   H     0.22482   0.85622   0.38921   0.00000  Uiso   1.00
H488   H     0.32260   0.77656   0.47056   0.00000  Uiso   1.00
H489   H     0.01080   0.89025   0.02948   0.00000  Uiso   1.00
H490   H     0.25779   0.70393   0.24903   0.00000  Uiso   1.00
H491   H     0.07555   0.96274   0.25097   0.00000  Uiso   1.00
H492   H     0.25785   0.96267   0.24887   0.00000  Uiso   1.00
N493   N     0.11736   0.83334   0.24999   0.00000  Uiso   1.00
N494   N     0.21597   0.83332   0.25001   0.00000  Uiso   1.00
N495   N     0.29954   0.87669   0.11469   0.00000  Uiso   1.00
N496   N     0.03384   0.79008   0.38534   0.00000  Uiso   1.00
O497   O     0.03958   0.77322   0.25000   0.00000  Uiso   1.00
O498   O     0.29375   0.89345   0.25000   0.00000  Uiso   1.00
O499   O     0.29372   0.77321   0.25000   0.00000  Uiso   1.00
O500   O     0.03961   0.89346   0.25000   0.00000  Uiso   1.00
O501   O     0.01852   0.83334   0.31492   0.00000  Uiso   1.00
O502   O     0.31481   0.83332   0.18508   0.00000  Uiso   1.00
O503   O     0.27267   0.83333   0.31492   0.00000  Uiso   1.00
O504   O     0.06067   0.83333   0.18508   0.00000  Uiso   1.00
C505   C     0.66664   0.75403   0.25005   0.00000  Uiso   1.00
C506   C     0.37570   0.68797   0.25062   0.00000  Uiso   1.00
C507   C     0.33336   0.95726   0.24993   0.00000  Uiso   1.00
C508   C     0.66664   0.70941   0.25006   0.00000  Uiso   1.00
C509   C     0.51797   0.80454   0.27392   0.00000  Uiso   1.00
C510   C     0.48202   0.86213   0.22608   0.00000  Uiso   1.00
C511   C     0.46841   0.80450   0.27382   0.00000  Uiso   1.00
C512   C     0.53159   0.86216   0.22618   0.00000  Uiso   1.00
C513   C     0.63961   0.83208   0.33614   0.00000  Uiso   1.00
C514   C     0.36039   0.83459   0.16386   0.00000  Uiso   1.00
C515   C     0.62494   0.82667   0.38524   0.00000  Uiso   1.00
C516   C     0.33336   0.91264   0.24995   0.00000  Uiso   1.00
C517   C     0.37507   0.84003   0.11476   0.00000  Uiso   1.00
C518   C     0.63421   0.79447   0.45337   0.00000  Uiso   1.00
C519   C     0.36584   0.87230   0.04666   0.00000  Uiso   1.00
C520   C     0.65368   0.80477   0.40821   0.00000  Uiso   1.00
C521   C     0.34635   0.86198   0.09181   0.00000  Uiso   1.00
C522   C     0.57834   0.83952   0.40839   0.00000  Uiso   1.00
C523   C     0.42165   0.82716   0.09161   0.00000  Uiso   1.00
C524   C     0.55802   0.82922   0.45381   0.00000  Uiso   1.00
C525   C     0.44201   0.83751   0.04621   0.00000  Uiso   1.00
C526   C     0.58669   0.80569   0.47583   0.00000  Uiso   1.00
C527   C     0.52020   0.80215   0.04260   0.00000  Uiso   1.00
C528   C     0.41335   0.86108   0.02421   0.00000  Uiso   1.00
C529   C     0.50964   0.84029   0.47744   0.00000  Uiso   1.00
C530   C     0.49040   0.82647   0.02260   0.00000  Uiso   1.00
C531   C     0.59351   0.85279   0.10624   0.00000  Uiso   1.00
C532   C     0.40651   0.81403   0.39376   0.00000  Uiso   1.00
C533   C     0.47986   0.86464   0.45745   0.00000  Uiso   1.00
C534   C     0.56742   0.79242   0.01974   0.00000  Uiso   1.00
C535   C     0.43265   0.87438   0.48031   0.00000  Uiso   1.00
C536   C     0.62427   0.68793   0.24946   0.00000  Uiso   1.00
C537   C     0.37573   0.97873   0.25053   0.00000  Uiso   1.00
C538   C     0.62430   0.97870   0.24938   0.00000  Uiso   1.00
Cu539  Cu    0.38022   0.83334   0.25000   0.00000  Uiso   1.00
Cu540  Cu    0.61978   0.83333   0.25000   0.00000  Uiso   1.00
H541   H     0.58895   0.77394   0.03659   0.00000  Uiso   1.00
H542   H     0.40882   0.70400   0.25113   0.00000  Uiso   1.00
H543   H     0.53113   0.78151   0.29319   0.00000  Uiso   1.00
H544   H     0.46887   0.88515   0.20681   0.00000  Uiso   1.00
H545   H     0.44430   0.78138   0.29287   0.00000  Uiso   1.00
H546   H     0.55570   0.88529   0.20713   0.00000  Uiso   1.00
H547   H     0.62860   0.90771   0.10966   0.00000  Uiso   1.00
H548   H     0.59366   0.85531   0.07030   0.00000  Uiso   1.00
H549   H     0.55835   0.86476   0.12688   0.00000  Uiso   1.00
H550   H     0.59682   0.81998   0.11523   0.00000  Uiso   1.00
H551   H     0.37148   0.75907   0.39040   0.00000  Uiso   1.00
H552   H     0.41113   0.89290   0.46347   0.00000  Uiso   1.00
H553   H     0.40637   0.81155   0.42970   0.00000  Uiso   1.00
H554   H     0.40316   0.84682   0.38474   0.00000  Uiso   1.00
H555   H     0.44169   0.80208   0.37312   0.00000  Uiso   1.00
H556   H     0.50842   0.78971   0.07602   0.00000  Uiso   1.00
H557   H     0.49167   0.87713   0.42404   0.00000  Uiso   1.00
H558   H     0.44180   0.81038   0.11077   0.00000  Uiso   1.00
H559   H     0.55815   0.85622   0.38921   0.00000  Uiso   1.00
H560   H     0.65593   0.77656   0.47056   0.00000  Uiso   1.00
H561   H     0.34413   0.89025   0.02948   0.00000  Uiso   1.00
H562   H     0.59112   0.70393   0.24903   0.00000  Uiso   1.00
H563   H     0.40888   0.96274   0.25097   0.00000  Uiso   1.00
H564   H     0.59118   0.96267   0.24887   0.00000  Uiso   1.00
N565   N     0.45069   0.83334   0.24999   0.00000  Uiso   1.00
N566   N     0.54931   0.83332   0.25001   0.00000  Uiso   1.00
N567   N     0.63287   0.87669   0.11469   0.00000  Uiso   1.00
N568   N     0.36717   0.79008   0.38534   0.00000  Uiso   1.00
O569   O     0.37291   0.77322   0.25000   0.00000  Uiso   1.00
O570   O     0.62709   0.89345   0.25000   0.00000  Uiso   1.00
O571   O     0.62706   0.77321   0.25000   0.00000  Uiso   1.00
O572   O     0.37294   0.89346   0.25000   0.00000  Uiso   1.00
O573   O     0.35186   0.83334   0.31492   0.00000  Uiso   1.00
O574   O     0.64814   0.83332   0.18508   0.00000  Uiso   1.00
O575   O     0.60600   0.83333   0.31492   0.00000  Uiso   1.00
O576   O     0.39400   0.83333   0.18508   0.00000  Uiso   1.00
C577   C     0.99997   0.75403   0.25005   0.00000  Uiso   1.00
C578   C     0.70903   0.68797   0.25062   0.00000  Uiso   1.00
C579   C     0.66670   0.95726   0.24993   0.00000  Uiso   1.00
C580   C     0.99997   0.70941   0.25006   0.00000  Uiso   1.00
C581   C     0.85131   0.80454   0.27392   0.00000  Uiso   1.00
C582   C     0.81536   0.86213   0.22608   0.00000  Uiso   1.00
C583   C     0.80174   0.80450   0.27382   0.00000  Uiso   1.00
C584   C     0.86493   0.86216   0.22618   0.00000  Uiso   1.00
C585   C     0.97294   0.83208   0.33614   0.00000  Uiso   1.00
C586   C     0.69372   0.83459   0.16386   0.00000  Uiso   1.00
C587   C     0.95827   0.82667   0.38524   0.00000  Uiso   1.00
C588   C     0.66670   0.91264   0.24995   0.00000  Uiso   1.00
C589   C     0.70840   0.84003   0.11476   0.00000  Uiso   1.00
C590   C     0.96754   0.79447   0.45337   0.00000  Uiso   1.00
C591   C     0.69917   0.87230   0.04666   0.00000  Uiso   1.00
C592   C     0.98701   0.80477   0.40821   0.00000  Uiso   1.00
C593   C     0.67969   0.86198   0.09181   0.00000  Uiso   1.00
C594   C     0.91168   0.83952   0.40839   0.00000  Uiso   1.00
C595   C     0.75498   0.82716   0.09161   0.00000  Uiso   1.00
C596   C     0.89135   0.82922   0.45381   0.00000  Uiso   1.00
C597   C     0.77535   0.83751   0.04621   0.00000  Uiso   1.00
C598   C     0.92003   0.80569   0.47583   0.00000  Uiso   1.00
C599   C     0.85354   0.80215   0.04260   0.00000  Uiso   1.00
C600   C     0.74669   0.86108   0.02421   0.00000  Uiso   1.00
C601   C     0.84298   0.84029   0.47744   0.00000  Uiso   1.00
C602   C     0.82373   0.82647   0.02260   0.00000  Uiso   1.00
C603   C     0.92685   0.85279   0.10624   0.00000  Uiso   1.00
C604   C     0.73984   0.81403   0.39376   0.00000  Uiso   1.00
C605   C     0.81319   0.86464   0.45745   0.00000  Uiso   1.00
C606   C     0.90075   0.79242   0.01974   0.00000  Uiso   1.00
C607   C     0.76598   0.87438   0.48031   0.00000  Uiso   1.00
C608   C     0.95760   0.68793   0.24946   0.00000  Uiso   1.00
C609   C     0.70907   0.97873   0.25053   0.00000  Uiso   1.00
C610   C     0.95763   0.97870   0.24938   0.00000  Uiso   1.00
Cu611  Cu    0.71355   0.83334   0.25000   0.00000  Uiso   1.00
Cu612  Cu    0.95311   0.83333   0.25000   0.00000  Uiso   1.00
H613   H     0.92228   0.77394   0.03659   0.00000  Uiso   1.00
H614   H     0.74215   0.70400   0.25113   0.00000  Uiso   1.00
H615   H     0.86446   0.78151   0.29319   0.00000  Uiso   1.00
H616   H     0.80220   0.88515   0.20681   0.00000  Uiso   1.00
H617   H     0.77763   0.78138   0.29287   0.00000  Uiso   1.00
H618   H     0.88904   0.88529   0.20713   0.00000  Uiso   1.00
H619   H     0.96193   0.90771   0.10966   0.00000  Uiso   1.00
H620   H     0.92699   0.85531   0.07030   0.00000  Uiso   1.00
H621   H     0.89168   0.86476   0.12688   0.00000  Uiso   1.00
H622   H     0.93015   0.81998   0.11523   0.00000  Uiso   1.00
H623   H     0.70481   0.75907   0.39040   0.00000  Uiso   1.00
H624   H     0.74447   0.89290   0.46347   0.00000  Uiso   1.00
H625   H     0.73971   0.81155   0.42970   0.00000  Uiso   1.00
H626   H     0.73650   0.84682   0.38474   0.00000  Uiso   1.00
H627   H     0.77502   0.80208   0.37312   0.00000  Uiso   1.00
H628   H     0.84175   0.78971   0.07602   0.00000  Uiso   1.00
H629   H     0.82500   0.87713   0.42404   0.00000  Uiso   1.00
H630   H     0.77513   0.81038   0.11077   0.00000  Uiso   1.00
H631   H     0.89149   0.85622   0.38921   0.00000  Uiso   1.00
H632   H     0.98927   0.77656   0.47056   0.00000  Uiso   1.00
H633   H     0.67747   0.89025   0.02948   0.00000  Uiso   1.00
H634   H     0.92445   0.70393   0.24903   0.00000  Uiso   1.00
H635   H     0.74221   0.96274   0.25097   0.00000  Uiso   1.00
H636   H     0.92452   0.96267   0.24887   0.00000  Uiso   1.00
N637   N     0.78403   0.83334   0.24999   0.00000  Uiso   1.00
N638   N     0.88264   0.83332   0.25001   0.00000  Uiso   1.00
N639   N     0.96620   0.87669   0.11469   0.00000  Uiso   1.00
N640   N     0.70051   0.79008   0.38534   0.00000  Uiso   1.00
O641   O     0.70625   0.77322   0.25000   0.00000  Uiso   1.00
O642   O     0.96042   0.89345   0.25000   0.00000  Uiso   1.00
O643   O     0.96039   0.77321   0.25000   0.00000  Uiso   1.00
O644   O     0.70628   0.89346   0.25000   0.00000  Uiso   1.00
O645   O     0.68519   0.83334   0.31492   0.00000  Uiso   1.00
O646   O     0.98148   0.83332   0.18508   0.00000  Uiso   1.00
O647   O     0.93933   0.83333   0.31492   0.00000  Uiso   1.00
O648   O     0.72733   0.83333   0.18508   0.00000  Uiso   1.00
C649   C     0.33330   0.08736   0.75005   0.00000  Uiso   1.00
C650   C     0.04237   0.02130   0.75062   0.00000  Uiso   1.00
C651   C     0.00003   0.29059   0.74993   0.00000  Uiso   1.00
C652   C     0.33330   0.04274   0.75006   0.00000  Uiso   1.00
C653   C     0.18464   0.13787   0.77392   0.00000  Uiso   1.00
C654   C     0.14869   0.19546   0.72608   0.00000  Uiso   1.00
C655   C     0.13507   0.13784   0.77382   0.00000  Uiso   1.00
C656   C     0.19826   0.19550   0.72618   0.00000  Uiso   1.00
C657   C     0.30628   0.16541   0.83614   0.00000  Uiso   1.00
C658   C     0.02706   0.16792   0.66386   0.00000  Uiso   1.00
C659   C     0.29160   0.16000   0.88524   0.00000  Uiso   1.00
C660   C     0.00003   0.24598   0.74995   0.00000  Uiso   1.00
C661   C     0.04173   0.17336   0.61476   0.00000  Uiso   1.00
C662   C     0.30088   0.12781   0.95337   0.00000  Uiso   1.00
C663   C     0.03251   0.20564   0.54666   0.00000  Uiso   1.00
C664   C     0.32035   0.13811   0.90821   0.00000  Uiso   1.00
C665   C     0.01302   0.19531   0.59181   0.00000  Uiso   1.00
C666   C     0.24501   0.17285   0.90839   0.00000  Uiso   1.00
C667   C     0.08832   0.16049   0.59161   0.00000  Uiso   1.00
C668   C     0.22468   0.16256   0.95381   0.00000  Uiso   1.00
C669   C     0.10868   0.17085   0.54621   0.00000  Uiso   1.00
C670   C     0.25336   0.13903   0.97583   0.00000  Uiso   1.00
C671   C     0.18687   0.13548   0.54260   0.00000  Uiso   1.00
C672   C     0.08002   0.19441   0.52421   0.00000  Uiso   1.00
C673   C     0.17631   0.17362   0.97744   0.00000  Uiso   1.00
C674   C     0.15706   0.15980   0.52260   0.00000  Uiso   1.00
C675   C     0.26018   0.18613   0.60624   0.00000  Uiso   1.00
C676   C     0.07318   0.14736   0.89376   0.00000  Uiso   1.00
C677   C     0.14652   0.19798   0.95745   0.00000  Uiso   1.00
C678   C     0.23408   0.12576   0.51974   0.00000  Uiso   1.00
C679   C     0.09932   0.20771   0.98031   0.00000  Uiso   1.00
C680   C     0.29093   0.02127   0.74946   0.00000  Uiso   1.00
C681   C     0.04240   0.31207   0.75053   0.00000  Uiso   1.00
C682   C     0.29097   0.31203   0.74938   0.00000  Uiso   1.00
Cu683  Cu    0.04689   0.16667   0.75000   0.00000  Uiso   1.00
Cu684  Cu    0.28645   0.16666   0.75000   0.00000  Uiso   1.00
H685   H     0.25561   0.10727   0.53659   0.00000  Uiso   1.00
H686   H     0.07548   0.03733   0.75113   0.00000  Uiso   1.00
H687   H     0.19780   0.11485   0.79319   0.00000  Uiso   1.00
H688   H     0.13554   0.21849   0.70681   0.00000  Uiso   1.00
H689   H     0.11096   0.11471   0.79287   0.00000  Uiso   1.00
H690   H     0.22237   0.21863   0.70713   0.00000  Uiso   1.00
H691   H     0.29527   0.24104   0.60966   0.00000  Uiso   1.00
H692   H     0.26033   0.18864   0.57030   0.00000  Uiso   1.00
H693   H     0.22501   0.19809   0.62688   0.00000  Uiso   1.00
H694   H     0.26349   0.15332   0.61523   0.00000  Uiso   1.00
H695   H     0.03815   0.09240   0.89040   0.00000  Uiso   1.00
H696   H     0.07780   0.22623   0.96347   0.00000  Uiso   1.00
H697   H     0.07304   0.14488   0.92970   0.00000  Uiso   1.00
H698   H     0.06983   0.18016   0.88474   0.00000  Uiso   1.00
H699   H     0.10835   0.13541   0.87312   0.00000  Uiso   1.00
H700   H     0.17509   0.12304   0.57602   0.00000  Uiso   1.00
H701   H     0.15833   0.21046   0.92404   0.00000  Uiso   1.00
H702   H     0.10847   0.14372   0.61077   0.00000  Uiso   1.00
H703   H     0.22482   0.18955   0.88921   0.00000  Uiso   1.00
H704   H     0.32260   0.10990   0.97056   0.00000  Uiso   1.00
H705   H     0.01080   0.22358   0.52948   0.00000  Uiso   1.00
H706   H     0.25779   0.03726   0.74903   0.00000  Uiso   1.00
H707   H     0.07555   0.29607   0.75097   0.00000  Uiso   1.00
H708   H     0.25785   0.29600   0.74887   0.00000  Uiso   1.00
N709   N     0.11736   0.16668   0.74999   0.00000  Uiso   1.00
N710   N     0.21597   0.16666   0.75001   0.00000  Uiso   1.00
N711   N     0.29954   0.21003   0.61469   0.00000  Uiso   1.00
N712   N     0.03384   0.12341   0.88534   0.00000  Uiso   1.00
O713   O     0.03958   0.10655   0.75000   0.00000  Uiso   1.00
O714   O     0.29375   0.22678   0.75000   0.00000  Uiso   1.00
O715   O     0.29372   0.10654   0.75000   0.00000  Uiso   1.00
O716   O     0.03961   0.22679   0.75000   0.00000  Uiso   1.00
O717   O     0.01852   0.16668   0.81492   0.00000  Uiso   1.00
O718   O     0.31481   0.16666   0.68508   0.00000  Uiso   1.00
O719   O     0.27267   0.16667   0.81492   0.00000  Uiso   1.00
O720   O     0.06067   0.16667   0.68508   0.00000  Uiso   1.00
C721   C     0.66664   0.08736   0.75005   0.00000  Uiso   1.00
C722   C     0.37570   0.02130   0.75062   0.00000  Uiso   1.00
C723   C     0.33336   0.29059   0.74993   0.00000  Uiso   1.00
C724   C     0.66664   0.04274   0.75006   0.00000  Uiso   1.00
C725   C     0.51797   0.13787   0.77392   0.00000  Uiso   1.00
C726   C     0.48202   0.19546   0.72608   0.00000  Uiso   1.00
C727   C     0.46841   0.13784   0.77382   0.00000  Uiso   1.00
C728   C     0.53159   0.19550   0.72618   0.00000  Uiso   1.00
C729   C     0.63961   0.16541   0.83614   0.00000  Uiso   1.00
C730   C     0.36039   0.16792   0.66386   0.00000  Uiso   1.00
C731   C     0.62494   0.16000   0.88524   0.00000  Uiso   1.00
C732   C     0.33336   0.24598   0.74995   0.00000  Uiso   1.00
C733   C     0.37507   0.17336   0.61476   0.00000  Uiso   1.00
C734   C     0.63421   0.12781   0.95337   0.00000  Uiso   1.00
C735   C     0.36584   0.20564   0.54666   0.00000  Uiso   1.00
C736   C     0.65368   0.13811   0.90821   0.00000  Uiso   1.00
C737   C     0.34635   0.19531   0.59181   0.00000  Uiso   1.00
C738   C     0.57834   0.17285   0.90839   0.00000  Uiso   1.00
C739   C     0.42165   0.16049   0.59161   0.00000  Uiso   1.00
C740   C     0.55802   0.16256   0.95381   0.00000  Uiso   1.00
C741   C     0.44201   0.17085   0.54621   0.00000  Uiso   1.00
C742   C     0.58669   0.13903   0.97583   0.00000  Uiso   1.00
C743   C     0.52020   0.13548   0.54260   0.00000  Uiso   1.00
C744   C     0.41335   0.19441   0.52421   0.00000  Uiso   1.00
C745   C     0.50964   0.17362   0.97744   0.00000  Uiso   1.00
C746   C     0.49040   0.15980   0.52260   0.00000  Uiso   1.00
C747   C     0.59351   0.18613   0.60624   0.00000  Uiso   1.00
C748   C     0.40651   0.14736   0.89376   0.00000  Uiso   1.00
C749   C     0.47986   0.19798   0.95745   0.00000  Uiso   1.00
C750   C     0.56742   0.12576   0.51974   0.00000  Uiso   1.00
C751   C     0.43265   0.20771   0.98031   0.00000  Uiso   1.00
C752   C     0.62427   0.02127   0.74946   0.00000  Uiso   1.00
C753   C     0.37573   0.31207   0.75053   0.00000  Uiso   1.00
C754   C     0.62430   0.31203   0.74938   0.00000  Uiso   1.00
Cu755  Cu    0.38022   0.16667   0.75000   0.00000  Uiso   1.00
Cu756  Cu    0.61978   0.16666   0.75000   0.00000  Uiso   1.00
H757   H     0.58895   0.10727   0.53659   0.00000  Uiso   1.00
H758   H     0.40882   0.03733   0.75113   0.00000  Uiso   1.00
H759   H     0.53113   0.11485   0.79319   0.00000  Uiso   1.00
H760   H     0.46887   0.21849   0.70681   0.00000  Uiso   1.00
H761   H     0.44430   0.11471   0.79287   0.00000  Uiso   1.00
H762   H     0.55570   0.21863   0.70713   0.00000  Uiso   1.00
H763   H     0.62860   0.24104   0.60966   0.00000  Uiso   1.00
H764   H     0.59366   0.18864   0.57030   0.00000  Uiso   1.00
H765   H     0.55835   0.19809   0.62688   0.00000  Uiso   1.00
H766   H     0.59682   0.15332   0.61523   0.00000  Uiso   1.00
H767   H     0.37148   0.09240   0.89040   0.00000  Uiso   1.00
H768   H     0.41113   0.22623   0.96347   0.00000  Uiso   1.00
H769   H     0.40637   0.14488   0.92970   0.00000  Uiso   1.00
H770   H     0.40316   0.18016   0.88474   0.00000  Uiso   1.00
H771   H     0.44169   0.13541   0.87312   0.00000  Uiso   1.00
H772   H     0.50842   0.12304   0.57602   0.00000  Uiso   1.00
H773   H     0.49167   0.21046   0.92404   0.00000  Uiso   1.00
H774   H     0.44180   0.14372   0.61077   0.00000  Uiso   1.00
H775   H     0.55815   0.18955   0.88921   0.00000  Uiso   1.00
H776   H     0.65593   0.10990   0.97056   0.00000  Uiso   1.00
H777   H     0.34413   0.22358   0.52948   0.00000  Uiso   1.00
H778   H     0.59112   0.03726   0.74903   0.00000  Uiso   1.00
H779   H     0.40888   0.29607   0.75097   0.00000  Uiso   1.00
H780   H     0.59118   0.29600   0.74887   0.00000  Uiso   1.00
N781   N     0.45069   0.16668   0.74999   0.00000  Uiso   1.00
N782   N     0.54931   0.16666   0.75001   0.00000  Uiso   1.00
N783   N     0.63287   0.21003   0.61469   0.00000  Uiso   1.00
N784   N     0.36717   0.12341   0.88534   0.00000  Uiso   1.00
O785   O     0.37291   0.10655   0.75000   0.00000  Uiso   1.00
O786   O     0.62709   0.22678   0.75000   0.00000  Uiso   1.00
O787   O     0.62706   0.10654   0.75000   0.00000  Uiso   1.00
O788   O     0.37294   0.22679   0.75000   0.00000  Uiso   1.00
O789   O     0.35186   0.16668   0.81492   0.00000  Uiso   1.00
O790   O     0.64814   0.16666   0.68508   0.00000  Uiso   1.00
O791   O     0.60600   0.16667   0.81492   0.00000  Uiso   1.00
O792   O     0.39400   0.16667   0.68508   0.00000  Uiso   1.00
C793   C     0.99997   0.08736   0.75005   0.00000  Uiso   1.00
C794   C     0.70903   0.02130   0.75062   0.00000  Uiso   1.00
C795   C     0.66670   0.29059   0.74993   0.00000  Uiso   1.00
C796   C     0.99997   0.04274   0.75006   0.00000  Uiso   1.00
C797   C     0.85131   0.13787   0.77392   0.00000  Uiso   1.00
C798   C     0.81536   0.19546   0.72608   0.00000  Uiso   1.00
C799   C     0.80174   0.13784   0.77382   0.00000  Uiso   1.00
C800   C     0.86493   0.19550   0.72618   0.00000  Uiso   1.00
C801   C     0.97294   0.16541   0.83614   0.00000  Uiso   1.00
C802   C     0.69372   0.16792   0.66386   0.00000  Uiso   1.00
C803   C     0.95827   0.16000   0.88524   0.00000  Uiso   1.00
C804   C     0.66670   0.24598   0.74995   0.00000  Uiso   1.00
C805   C     0.70840   0.17336   0.61476   0.00000  Uiso   1.00
C806   C     0.96754   0.12781   0.95337   0.00000  Uiso   1.00
C807   C     0.69917   0.20564   0.54666   0.00000  Uiso   1.00
C808   C     0.98701   0.13811   0.90821   0.00000  Uiso   1.00
C809   C     0.67969   0.19531   0.59181   0.00000  Uiso   1.00
C810   C     0.91168   0.17285   0.90839   0.00000  Uiso   1.00
C811   C     0.75498   0.16049   0.59161   0.00000  Uiso   1.00
C812   C     0.89135   0.16256   0.95381   0.00000  Uiso   1.00
C813   C     0.77535   0.17085   0.54621   0.00000  Uiso   1.00
C814   C     0.92003   0.13903   0.97583   0.00000  Uiso   1.00
C815   C     0.85354   0.13548   0.54260   0.00000  Uiso   1.00
C816   C     0.74669   0.19441   0.52421   0.00000  Uiso   1.00
C817   C     0.84298   0.17362   0.97744   0.00000  Uiso   1.00
C818   C     0.82373   0.15980   0.52260   0.00000  Uiso   1.00
C819   C     0.92685   0.18613   0.60624   0.00000  Uiso   1.00
C820   C     0.73984   0.14736   0.89376   0.00000  Uiso   1.00
C821   C     0.81319   0.19798   0.95745   0.00000  Uiso   1.00
C822   C     0.90075   0.12576   0.51974   0.00000  Uiso   1.00
C823   C     0.76598   0.20771   0.98031   0.00000  Uiso   1.00
C824   C     0.95760   0.02127   0.74946   0.00000  Uiso   1.00
C825   C     0.70907   0.31207   0.75053   0.00000  Uiso   1.00
C826   C     0.95763   0.31203   0.74938   0.00000  Uiso   1.00
Cu827  Cu    0.71355   0.16667   0.75000   0.00000  Uiso   1.00
Cu828  Cu    0.95311   0.16666   0.75000   0.00000  Uiso   1.00
H829   H     0.92228   0.10727   0.53659   0.00000  Uiso   1.00
H830   H     0.74215   0.03733   0.75113   0.00000  Uiso   1.00
H831   H     0.86446   0.11485   0.79319   0.00000  Uiso   1.00
H832   H     0.80220   0.21849   0.70681   0.00000  Uiso   1.00
H833   H     0.77763   0.11471   0.79287   0.00000  Uiso   1.00
H834   H     0.88904   0.21863   0.70713   0.00000  Uiso   1.00
H835   H     0.96193   0.24104   0.60966   0.00000  Uiso   1.00
H836   H     0.92699   0.18864   0.57030   0.00000  Uiso   1.00
H837   H     0.89168   0.19809   0.62688   0.00000  Uiso   1.00
H838   H     0.93015   0.15332   0.61523   0.00000  Uiso   1.00
H839   H     0.70481   0.09240   0.89040   0.00000  Uiso   1.00
H840   H     0.74447   0.22623   0.96347   0.00000  Uiso   1.00
H841   H     0.73971   0.14488   0.92970   0.00000  Uiso   1.00
H842   H     0.73650   0.18016   0.88474   0.00000  Uiso   1.00
H843   H     0.77502   0.13541   0.87312   0.00000  Uiso   1.00
H844   H     0.84175   0.12304   0.57602   0.00000  Uiso   1.00
H845   H     0.82500   0.21046   0.92404   0.00000  Uiso   1.00
H846   H     0.77513   0.14372   0.61077   0.00000  Uiso   1.00
H847   H     0.89149   0.18955   0.88921   0.00000  Uiso   1.00
H848   H     0.98927   0.10990   0.97056   0.00000  Uiso   1.00
H849   H     0.67747   0.22358   0.52948   0.00000  Uiso   1.00
H850   H     0.92445   0.03726   0.74903   0.00000  Uiso   1.00
H851   H     0.74221   0.29607   0.75097   0.00000  Uiso   1.00
H852   H     0.92452   0.29600   0.74887   0.00000  Uiso   1.00
N853   N     0.78403   0.16668   0.74999   0.00000  Uiso   1.00
N854   N     0.88264   0.16666   0.75001   0.00000  Uiso   1.00
N855   N     0.96620   0.21003   0.61469   0.00000  Uiso   1.00
N856   N     0.70051   0.12341   0.88534   0.00000  Uiso   1.00
O857   O     0.70625   0.10655   0.75000   0.00000  Uiso   1.00
O858   O     0.96042   0.22678   0.75000   0.00000  Uiso   1.00
O859   O     0.96039   0.10654   0.75000   0.00000  Uiso   1.00
O860   O     0.70628   0.22679   0.75000   0.00000  Uiso   1.00
O861   O     0.68519   0.16668   0.81492   0.00000  Uiso   1.00
O862   O     0.98148   0.16666   0.68508   0.00000  Uiso   1.00
O863   O     0.93933   0.16667   0.81492   0.00000  Uiso   1.00
O864   O     0.72733   0.16667   0.68508   0.00000  Uiso   1.00
C865   C     0.33330   0.42069   0.75005   0.00000  Uiso   1.00
C866   C     0.04237   0.35464   0.75062   0.00000  Uiso   1.00
C867   C     0.00003   0.62393   0.74993   0.00000  Uiso   1.00
C868   C     0.33330   0.37607   0.75006   0.00000  Uiso   1.00
C869   C     0.18464   0.47121   0.77392   0.00000  Uiso   1.00
C870   C     0.14869   0.52879   0.72608   0.00000  Uiso   1.00
C871   C     0.13507   0.47117   0.77382   0.00000  Uiso   1.00
C872   C     0.19826   0.52883   0.72618   0.00000  Uiso   1.00
C873   C     0.30628   0.49875   0.83614   0.00000  Uiso   1.00
C874   C     0.02706   0.50125   0.66386   0.00000  Uiso   1.00
C875   C     0.29160   0.49333   0.88524   0.00000  Uiso   1.00
C876   C     0.00003   0.57931   0.74995   0.00000  Uiso   1.00
C877   C     0.04173   0.50669   0.61476   0.00000  Uiso   1.00
C878   C     0.30088   0.46114   0.95337   0.00000  Uiso   1.00
C879   C     0.03251   0.53897   0.54666   0.00000  Uiso   1.00
C880   C     0.32035   0.47144   0.90821   0.00000  Uiso   1.00
C881   C     0.01302   0.52864   0.59181   0.00000  Uiso   1.00
C882   C     0.24501   0.50619   0.90839   0.00000  Uiso   1.00
C883   C     0.08832   0.49382   0.59161   0.00000  Uiso   1.00
C884   C     0.22468   0.49589   0.95381   0.00000  Uiso   1.00
C885   C     0.10868   0.50418   0.54621   0.00000  Uiso   1.00
C886   C     0.25336   0.47236   0.97583   0.00000  Uiso   1.00
C887   C     0.18687   0.46881   0.54260   0.00000  Uiso   1.00
C888   C     0.08002   0.52774   0.52421   0.00000  Uiso   1.00
C889   C     0.17631   0.50696   0.97744   0.00000  Uiso   1.00
C890   C     0.15706   0.49313   0.52260   0.00000  Uiso   1.00
C891   C     0.26018   0.51946   0.60624   0.00000  Uiso   1.00
C892   C     0.07318   0.48069   0.89376   0.00000  Uiso   1.00
C893   C     0.14652   0.53131   0.95745   0.00000  Uiso   1.00
C894   C     0.23408   0.45909   0.51974   0.00000  Uiso   1.00
C895   C     0.09932   0.54105   0.98031   0.00000  Uiso   1.00
C896   C     0.29093   0.35460   0.74946   0.00000  Uiso   1.00
C897   C     0.04240   0.64540   0.75053   0.00000  Uiso   1.00
C898   C     0.29097   0.64536   0.74938   0.00000  Uiso   1.00
Cu899  Cu    0.04689   0.50001   0.75000   0.00000  Uiso   1.00
Cu900  Cu    0.28645   0.49999   0.75000   0.00000  Uiso   1.00
H901   H     0.25561   0.44060   0.53659   0.00000  Uiso   1.00
H902   H     0.07548   0.37066   0.75113   0.00000  Uiso   1.00
H903   H     0.19780   0.44818   0.79319   0.00000  Uiso   1.00
H904   H     0.13554   0.55182   0.70681   0.00000  Uiso   1.00
H905   H     0.11096   0.44804   0.79287   0.00000  Uiso   1.00
H906   H     0.22237   0.55196   0.70713   0.00000  Uiso   1.00
H907   H     0.29527   0.57438   0.60966   0.00000  Uiso   1.00
H908   H     0.26033   0.52197   0.57030   0.00000  Uiso   1.00
H909   H     0.22501   0.53142   0.62688   0.00000  Uiso   1.00
H910   H     0.26349   0.48665   0.61523   0.00000  Uiso   1.00
H911   H     0.03815   0.42574   0.89040   0.00000  Uiso   1.00
H912   H     0.07780   0.55957   0.96347   0.00000  Uiso   1.00
H913   H     0.07304   0.47822   0.92970   0.00000  Uiso   1.00
H914   H     0.06983   0.51349   0.88474   0.00000  Uiso   1.00
H915   H     0.10835   0.46875   0.87312   0.00000  Uiso   1.00
H916   H     0.17509   0.45638   0.57602   0.00000  Uiso   1.00
H917   H     0.15833   0.54379   0.92404   0.00000  Uiso   1.00
H918   H     0.10847   0.47705   0.61077   0.00000  Uiso   1.00
H919   H     0.22482   0.52289   0.88921   0.00000  Uiso   1.00
H920   H     0.32260   0.44323   0.97056   0.00000  Uiso   1.00
H921   H     0.01080   0.55692   0.52948   0.00000  Uiso   1.00
H922   H     0.25779   0.37060   0.74903   0.00000  Uiso   1.00
H923   H     0.07555   0.62940   0.75097   0.00000  Uiso   1.00
H924   H     0.25785   0.62934   0.74887   0.00000  Uiso   1.00
N925   N     0.11736   0.50001   0.74999   0.00000  Uiso   1.00
N926   N     0.21597   0.49999   0.75001   0.00000  Uiso   1.00
N927   N     0.29954   0.54336   0.61469   0.00000  Uiso   1.00
N928   N     0.03384   0.45674   0.88534   0.00000  Uiso   1.00
O929   O     0.03958   0.43989   0.75000   0.00000  Uiso   1.00
O930   O     0.29375   0.56011   0.75000   0.00000  Uiso   1.00
O931   O     0.29372   0.43988   0.75000   0.00000  Uiso   1.00
O932   O     0.03961   0.56012   0.75000   0.00000  Uiso   1.00
O933   O     0.01852   0.50001   0.81492   0.00000  Uiso   1.00
O934   O     0.31481   0.49999   0.68508   0.00000  Uiso   1.00
O935   O     0.27267   0.50000   0.81492   0.00000  Uiso   1.00
O936   O     0.06067   0.50000   0.68508   0.00000  Uiso   1.00
C937   C     0.66664   0.42069   0.75005   0.00000  Uiso   1.00
C938   C     0.37570   0.35464   0.75062   0.00000  Uiso   1.00
C939   C     0.33336   0.62393   0.74993   0.00000  Uiso   1.00
C940   C     0.66664   0.37607   0.75006   0.00000  Uiso   1.00
C941   C     0.51797   0.47121   0.77392   0.00000  Uiso   1.00
C942   C     0.48202   0.52879   0.72608   0.00000  Uiso   1.00
C943   C     0.46841   0.47117   0.77382   0.00000  Uiso   1.00
C944   C     0.53159   0.52883   0.72618   0.00000  Uiso   1.00
C945   C     0.63961   0.49875   0.83614   0.00000  Uiso   1.00
C946   C     0.36039   0.50125   0.66386   0.00000  Uiso   1.00
C947   C     0.62494   0.49333   0.88524   0.00000  Uiso   1.00
C948   C     0.33336   0.57931   0.74995   0.00000  Uiso   1.00
C949   C     0.37507   0.50669   0.61476   0.00000  Uiso   1.00
C950   C     0.63421   0.46114   0.95337   0.00000  Uiso   1.00
C951   C     0.36584   0.53897   0.54666   0.00000  Uiso   1.00
C952   C     0.65368   0.47144   0.90821   0.00000  Uiso   1.00
C953   C     0.34635   0.52864   0.59181   0.00000  Uiso   1.00
C954   C     0.57834   0.50619   0.90839   0.00000  Uiso   1.00
C955   C     0.42165   0.49382   0.59161   0.00000  Uiso   1.00
C956   C     0.55802   0.49589   0.95381   0.00000  Uiso   1.00
C957   C     0.44201   0.50418   0.54621   0.00000  Uiso   1.00
C958   C     0.58669   0.47236   0.97583   0.00000  Uiso   1.00
C959   C     0.52020   0.46881   0.54260   0.00000  Uiso   1.00
C960   C     0.41335   0.52774   0.52421   0.00000  Uiso   1.00
C961   C     0.50964   0.50696   0.97744   0.00000  Uiso   1.00
C962   C     0.49040   0.49313   0.52260   0.00000  Uiso   1.00
C963   C     0.59351   0.51946   0.60624   0.00000  Uiso   1.00
C964   C     0.40651   0.48069   0.89376   0.00000  Uiso   1.00
C965   C     0.47986   0.53131   0.95745   0.00000  Uiso   1.00
C966   C     0.56742   0.45909   0.51974   0.00000  Uiso   1.00
C967   C     0.43265   0.54105   0.98031   0.00000  Uiso   1.00
C968   C     0.62427   0.35460   0.74946   0.00000  Uiso   1.00
C969   C     0.37573   0.64540   0.75053   0.00000  Uiso   1.00
C970   C     0.62430   0.64536   0.74938   0.00000  Uiso   1.00
Cu971  Cu    0.38022   0.50001   0.75000   0.00000  Uiso   1.00
Cu972  Cu    0.61978   0.49999   0.75000   0.00000  Uiso   1.00
H973   H     0.58895   0.44060   0.53659   0.00000  Uiso   1.00
H974   H     0.40882   0.37066   0.75113   0.00000  Uiso   1.00
H975   H     0.53113   0.44818   0.79319   0.00000  Uiso   1.00
H976   H     0.46887   0.55182   0.70681   0.00000  Uiso   1.00
H977   H     0.44430   0.44804   0.79287   0.00000  Uiso   1.00
H978   H     0.55570   0.55196   0.70713   0.00000  Uiso   1.00
H979   H     0.62860   0.57438   0.60966   0.00000  Uiso   1.00
H980   H     0.59366   0.52197   0.57030   0.00000  Uiso   1.00
H981   H     0.55835   0.53142   0.62688   0.00000  Uiso   1.00
H982   H     0.59682   0.48665   0.61523   0.00000  Uiso   1.00
H983   H     0.37148   0.42574   0.89040   0.00000  Uiso   1.00
H984   H     0.41113   0.55957   0.96347   0.00000  Uiso   1.00
H985   H     0.40637   0.47822   0.92970   0.00000  Uiso   1.00
H986   H     0.40316   0.51349   0.88474   0.00000  Uiso   1.00
H987   H     0.44169   0.46875   0.87312   0.00000  Uiso   1.00
H988   H     0.50842   0.45638   0.57602   0.00000  Uiso   1.00
H989   H     0.49167   0.54379   0.92404   0.00000  Uiso   1.00
H990   H     0.44180   0.47705   0.61077   0.00000  Uiso   1.00
H991   H     0.55815   0.52289   0.88921   0.00000  Uiso   1.00
H992   H     0.65593   0.44323   0.97056   0.00000  Uiso   1.00
H993   H     0.34413   0.55692   0.52948   0.00000  Uiso   1.00
H994   H     0.59112   0.37060   0.74903   0.00000  Uiso   1.00
H995   H     0.40888   0.62940   0.75097   0.00000  Uiso   1.00
H996   H     0.59118   0.62934   0.74887   0.00000  Uiso   1.00
N997   N     0.45069   0.50001   0.74999   0.00000  Uiso   1.00
N998   N     0.54931   0.49999   0.75001   0.00000  Uiso   1.00
N999   N     0.63287   0.54336   0.61469   0.00000  Uiso   1.00
N1000  N     0.36717   0.45674   0.88534   0.00000  Uiso   1.00
O1001  O     0.37291   0.43989   0.75000   0.00000  Uiso   1.00
O1002  O     0.62709   0.56011   0.75000   0.00000  Uiso   1.00
O1003  O     0.62706   0.43988   0.75000   0.00000  Uiso   1.00
O1004  O     0.37294   0.56012   0.75000   0.00000  Uiso   1.00
O1005  O     0.35186   0.50001   0.81492   0.00000  Uiso   1.00
O1006  O     0.64814   0.49999   0.68508   0.00000  Uiso   1.00
O1007  O     0.60600   0.50000   0.81492   0.00000  Uiso   1.00
O1008  O     0.39400   0.50000   0.68508   0.00000  Uiso   1.00
C1009  C     0.99997   0.42069   0.75005   0.00000  Uiso   1.00
C1010  C     0.70903   0.35464   0.75062   0.00000  Uiso   1.00
C1011  C     0.66670   0.62393   0.74993   0.00000  Uiso   1.00
C1012  C     0.99997   0.37607   0.75006   0.00000  Uiso   1.00
C1013  C     0.85131   0.47121   0.77392   0.00000  Uiso   1.00
C1014  C     0.81536   0.52879   0.72608   0.00000  Uiso   1.00
C1015  C     0.80174   0.47117   0.77382   0.00000  Uiso   1.00
C1016  C     0.86493   0.52883   0.72618   0.00000  Uiso   1.00
C1017  C     0.97294   0.49875   0.83614   0.00000  Uiso   1.00
C1018  C     0.69372   0.50125   0.66386   0.00000  Uiso   1.00
C1019  C     0.95827   0.49333   0.88524   0.00000  Uiso   1.00
C1020  C     0.66670   0.57931   0.74995   0.00000  Uiso   1.00
C1021  C     0.70840   0.50669   0.61476   0.00000  Uiso   1.00
C1022  C     0.96754   0.46114   0.95337   0.00000  Uiso   1.00
C1023  C     0.69917   0.53897   0.54666   0.00000  Uiso   1.00
C1024  C     0.98701   0.47144   0.90821   0.00000  Uiso   1.00
C1025  C     0.67969   0.52864   0.59181   0.00000  Uiso   1.00
C1026  C     0.91168   0.50619   0.90839   0.00000  Uiso   1.00
C1027  C     0.75498   0.49382   0.59161   0.00000  Uiso   1.00
C1028  C     0.89135   0.49589   0.95381   0.00000  Uiso   1.00
C1029  C     0.77535   0.50418   0.54621   0.00000  Uiso   1.00
C1030  C     0.92003   0.47236   0.97583   0.00000  Uiso   1.00
C1031  C     0.85354   0.46881   0.54260   0.00000  Uiso   1.00
C1032  C     0.74669   0.52774   0.52421   0.00000  Uiso   1.00
C1033  C     0.84298   0.50696   0.97744   0.00000  Uiso   1.00
C1034  C     0.82373   0.49313   0.52260   0.00000  Uiso   1.00
C1035  C     0.92685   0.51946   0.60624   0.00000  Uiso   1.00
C1036  C     0.73984   0.48069   0.89376   0.00000  Uiso   1.00
C1037  C     0.81319   0.53131   0.95745   0.00000  Uiso   1.00
C1038  C     0.90075   0.45909   0.51974   0.00000  Uiso   1.00
C1039  C     0.76598   0.54105   0.98031   0.00000  Uiso   1.00
C1040  C     0.95760   0.35460   0.74946   0.00000  Uiso   1.00
C1041  C     0.70907   0.64540   0.75053   0.00000  Uiso   1.00
C1042  C     0.95763   0.64536   0.74938   0.00000  Uiso   1.00
Cu1043 Cu    0.71355   0.50001   0.75000   0.00000  Uiso   1.00
Cu1044 Cu    0.95311   0.49999   0.75000   0.00000  Uiso   1.00
H1045  H     0.92228   0.44060   0.53659   0.00000  Uiso   1.00
H1046  H     0.74215   0.37066   0.75113   0.00000  Uiso   1.00
H1047  H     0.86446   0.44818   0.79319   0.00000  Uiso   1.00
H1048  H     0.80220   0.55182   0.70681   0.00000  Uiso   1.00
H1049  H     0.77763   0.44804   0.79287   0.00000  Uiso   1.00
H1050  H     0.88904   0.55196   0.70713   0.00000  Uiso   1.00
H1051  H     0.96193   0.57438   0.60966   0.00000  Uiso   1.00
H1052  H     0.92699   0.52197   0.57030   0.00000  Uiso   1.00
H1053  H     0.89168   0.53142   0.62688   0.00000  Uiso   1.00
H1054  H     0.93015   0.48665   0.61523   0.00000  Uiso   1.00
H1055  H     0.70481   0.42574   0.89040   0.00000  Uiso   1.00
H1056  H     0.74447   0.55957   0.96347   0.00000  Uiso   1.00
H1057  H     0.73971   0.47822   0.92970   0.00000  Uiso   1.00
H1058  H     0.73650   0.51349   0.88474   0.00000  Uiso   1.00
H1059  H     0.77502   0.46875   0.87312   0.00000  Uiso   1.00
H1060  H     0.84175   0.45638   0.57602   0.00000  Uiso   1.00
H1061  H     0.82500   0.54379   0.92404   0.00000  Uiso   1.00
H1062  H     0.77513   0.47705   0.61077   0.00000  Uiso   1.00
H1063  H     0.89149   0.52289   0.88921   0.00000  Uiso   1.00
H1064  H     0.98927   0.44323   0.97056   0.00000  Uiso   1.00
H1065  H     0.67747   0.55692   0.52948   0.00000  Uiso   1.00
H1066  H     0.92445   0.37060   0.74903   0.00000  Uiso   1.00
H1067  H     0.74221   0.62940   0.75097   0.00000  Uiso   1.00
H1068  H     0.92452   0.62934   0.74887   0.00000  Uiso   1.00
N1069  N     0.78403   0.50001   0.74999   0.00000  Uiso   1.00
N1070  N     0.88264   0.49999   0.75001   0.00000  Uiso   1.00
N1071  N     0.96620   0.54336   0.61469   0.00000  Uiso   1.00
N1072  N     0.70051   0.45674   0.88534   0.00000  Uiso   1.00
O1073  O     0.70625   0.43989   0.75000   0.00000  Uiso   1.00
O1074  O     0.96042   0.56011   0.75000   0.00000  Uiso   1.00
O1075  O     0.96039   0.43988   0.75000   0.00000  Uiso   1.00
O1076  O     0.70628   0.56012   0.75000   0.00000  Uiso   1.00
O1077  O     0.68519   0.50001   0.81492   0.00000  Uiso   1.00
O1078  O     0.98148   0.49999   0.68508   0.00000  Uiso   1.00
O1079  O     0.93933   0.50000   0.81492   0.00000  Uiso   1.00
O1080  O     0.72733   0.50000   0.68508   0.00000  Uiso   1.00
C1081  C     0.33330   0.75403   0.75005   0.00000  Uiso   1.00
C1082  C     0.04237   0.68797   0.75062   0.00000  Uiso   1.00
C1083  C     0.00003   0.95726   0.74993   0.00000  Uiso   1.00
C1084  C     0.33330   0.70941   0.75006   0.00000  Uiso   1.00
C1085  C     0.18464   0.80454   0.77392   0.00000  Uiso   1.00
C1086  C     0.14869   0.86213   0.72608   0.00000  Uiso   1.00
C1087  C     0.13507   0.80450   0.77382   0.00000  Uiso   1.00
C1088  C     0.19826   0.86216   0.72618   0.00000  Uiso   1.00
C1089  C     0.30628   0.83208   0.83614   0.00000  Uiso   1.00
C1090  C     0.02706   0.83459   0.66386   0.00000  Uiso   1.00
C1091  C     0.29160   0.82667   0.88524   0.00000  Uiso   1.00
C1092  C     0.00003   0.91264   0.74995   0.00000  Uiso   1.00
C1093  C     0.04173   0.84003   0.61476   0.00000  Uiso   1.00
C1094  C     0.30088   0.79447   0.95337   0.00000  Uiso   1.00
C1095  C     0.03251   0.87230   0.54666   0.00000  Uiso   1.00
C1096  C     0.32035   0.80477   0.90821   0.00000  Uiso   1.00
C1097  C     0.01302   0.86198   0.59181   0.00000  Uiso   1.00
C1098  C     0.24501   0.83952   0.90839   0.00000  Uiso   1.00
C1099  C     0.08832   0.82716   0.59161   0.00000  Uiso   1.00
C1100  C     0.22468   0.82922   0.95381   0.00000  Uiso   1.00
C1101  C     0.10868   0.83751   0.54621   0.00000  Uiso   1.00
C1102  C     0.25336   0.80569   0.97583   0.00000  Uiso   1.00
C1103  C     0.18687   0.80215   0.54260   0.00000  Uiso   1.00
C1104  C     0.08002   0.86108   0.52421   0.00000  Uiso   1.00
C1105  C     0.17631   0.84029   0.97744   0.00000  Uiso   1.00
C1106  C     0.15706   0.82647   0.52260   0.00000  Uiso   1.00
C1107  C     0.26018   0.85279   0.60624   0.00000  Uiso   1.00
C1108  C     0.07318   0.81403   0.89376   0.00000  Uiso   1.00
C1109  C     0.14652   0.86464   0.95745   0.00000  Uiso   1.00
C1110  C     0.23408   0.79242   0.51974   0.00000  Uiso   1.00
C1111  C     0.09932   0.87438   0.98031   0.00000  Uiso   1.00
C1112  C     0.29093   0.68793   0.74946   0.00000  Uiso   1.00
C1113  C     0.04240   0.97873   0.75053   0.00000  Uiso   1.00
C1114  C     0.29097   0.97870   0.74938   0.00000  Uiso   1.00
Cu1115 Cu    0.04689   0.83334   0.75000   0.00000  Uiso   1.00
Cu1116 Cu    0.28645   0.83333   0.75000   0.00000  Uiso   1.00
H1117  H     0.25561   0.77394   0.53659   0.00000  Uiso   1.00
H1118  H     0.07548   0.70400   0.75113   0.00000  Uiso   1.00
H1119  H     0.19780   0.78151   0.79319   0.00000  Uiso   1.00
H1120  H     0.13554   0.88515   0.70681   0.00000  Uiso   1.00
H1121  H     0.11096   0.78138   0.79287   0.00000  Uiso   1.00
H1122  H     0.22237   0.88529   0.70713   0.00000  Uiso   1.00
H1123  H     0.29527   0.90771   0.60966   0.00000  Uiso   1.00
H1124  H     0.26033   0.85531   0.57030   0.00000  Uiso   1.00
H1125  H     0.22501   0.86476   0.62688   0.00000  Uiso   1.00
H1126  H     0.26349   0.81998   0.61523   0.00000  Uiso   1.00
H1127  H     0.03815   0.75907   0.89040   0.00000  Uiso   1.00
H1128  H     0.07780   0.89290   0.96347   0.00000  Uiso   1.00
H1129  H     0.07304   0.81155   0.92970   0.00000  Uiso   1.00
H1130  H     0.06983   0.84682   0.88474   0.00000  Uiso   1.00
H1131  H     0.10835   0.80208   0.87312   0.00000  Uiso   1.00
H1132  H     0.17509   0.78971   0.57602   0.00000  Uiso   1.00
H1133  H     0.15833   0.87713   0.92404   0.00000  Uiso   1.00
H1134  H     0.10847   0.81038   0.61077   0.00000  Uiso   1.00
H1135  H     0.22482   0.85622   0.88921   0.00000  Uiso   1.00
H1136  H     0.32260   0.77656   0.97056   0.00000  Uiso   1.00
H1137  H     0.01080   0.89025   0.52948   0.00000  Uiso   1.00
H1138  H     0.25779   0.70393   0.74903   0.00000  Uiso   1.00
H1139  H     0.07555   0.96274   0.75097   0.00000  Uiso   1.00
H1140  H     0.25785   0.96267   0.74887   0.00000  Uiso   1.00
N1141  N     0.11736   0.83334   0.74999   0.00000  Uiso   1.00
N1142  N     0.21597   0.83332   0.75001   0.00000  Uiso   1.00
N1143  N     0.29954   0.87669   0.61469   0.00000  Uiso   1.00
N1144  N     0.03384   0.79008   0.88534   0.00000  Uiso   1.00
O1145  O     0.03958   0.77322   0.75000   0.00000  Uiso   1.00
O1146  O     0.29375   0.89345   0.75000   0.00000  Uiso   1.00
O1147  O     0.29372   0.77321   0.75000   0.00000  Uiso   1.00
O1148  O     0.03961   0.89346   0.75000   0.00000  Uiso   1.00
O1149  O     0.01852   0.83334   0.81492   0.00000  Uiso   1.00
O1150  O     0.31481   0.83332   0.68508   0.00000  Uiso   1.00
O1151  O     0.27267   0.83333   0.81492   0.00000  Uiso   1.00
O1152  O     0.06067   0.83333   0.68508   0.00000  Uiso   1.00
C1153  C     0.66664   0.75403   0.75005   0.00000  Uiso   1.00
C1154  C     0.37570   0.68797   0.75062   0.00000  Uiso   1.00
C1155  C     0.33336   0.95726   0.74993   0.00000  Uiso   1.00
C1156  C     0.66664   0.70941   0.75006   0.00000  Uiso   1.00
C1157  C     0.51797   0.80454   0.77392   0.00000  Uiso   1.00
C1158  C     0.48202   0.86213   0.72608   0.00000  Uiso   1.00
C1159  C     0.46841   0.80450   0.77382   0.00000  Uiso   1.00
C1160  C     0.53159   0.86216   0.72618   0.00000  Uiso   1.00
C1161  C     0.63961   0.83208   0.83614   0.00000  Uiso   1.00
C1162  C     0.36039   0.83459   0.66386   0.00000  Uiso   1.00
C1163  C     0.62494   0.82667   0.88524   0.00000  Uiso   1.00
C1164  C     0.33336   0.91264   0.74995   0.00000  Uiso   1.00
C1165  C     0.37507   0.84003   0.61476   0.00000  Uiso   1.00
C1166  C     0.63421   0.79447   0.95337   0.00000  Uiso   1.00
C1167  C     0.36584   0.87230   0.54666   0.00000  Uiso   1.00
C1168  C     0.65368   0.80477   0.90821   0.00000  Uiso   1.00
C1169  C     0.34635   0.86198   0.59181   0.00000  Uiso   1.00
C1170  C     0.57834   0.83952   0.90839   0.00000  Uiso   1.00
C1171  C     0.42165   0.82716   0.59161   0.00000  Uiso   1.00
C1172  C     0.55802   0.82922   0.95381   0.00000  Uiso   1.00
C1173  C     0.44201   0.83751   0.54621   0.00000  Uiso   1.00
C1174  C     0.58669   0.80569   0.97583   0.00000  Uiso   1.00
C1175  C     0.52020   0.80215   0.54260   0.00000  Uiso   1.00
C1176  C     0.41335   0.86108   0.52421   0.00000  Uiso   1.00
C1177  C     0.50964   0.84029   0.97744   0.00000  Uiso   1.00
C1178  C     0.49040   0.82647   0.52260   0.00000  Uiso   1.00
C1179  C     0.59351   0.85279   0.60624   0.00000  Uiso   1.00
C1180  C     0.40651   0.81403   0.89376   0.00000  Uiso   1.00
C1181  C     0.47986   0.86464   0.95745   0.00000  Uiso   1.00
C1182  C     0.56742   0.79242   0.51974   0.00000  Uiso   1.00
C1183  C     0.43265   0.87438   0.98031   0.00000  Uiso   1.00
C1184  C     0.62427   0.68793   0.74946   0.00000  Uiso   1.00
C1185  C     0.37573   0.97873   0.75053   0.00000  Uiso   1.00
C1186  C     0.62430   0.97870   0.74938   0.00000  Uiso   1.00
Cu1187 Cu    0.38022   0.83334   0.75000   0.00000  Uiso   1.00
Cu1188 Cu    0.61978   0.83333   0.75000   0.00000  Uiso   1.00
H1189  H     0.58895   0.77394   0.53659   0.00000  Uiso   1.00
H1190  H     0.40882   0.70400   0.75113   0.00000  Uiso   1.00
H1191  H     0.53113   0.78151   0.79319   0.00000  Uiso   1.00
H1192  H     0.46887   0.88515   0.70681   0.00000  Uiso   1.00
H1193  H     0.44430   0.78138   0.79287   0.00000  Uiso   1.00
H1194  H     0.55570   0.88529   0.70713   0.00000  Uiso   1.00
H1195  H     0.62860   0.90771   0.60966   0.00000  Uiso   1.00
H1196  H     0.59366   0.85531   0.57030   0.00000  Uiso   1.00
H1197  H     0.55835   0.86476   0.62688   0.00000  Uiso   1.00
H1198  H     0.59682   0.81998   0.61523   0.00000  Uiso   1.00
H1199  H     0.37148   0.75907   0.89040   0.00000  Uiso   1.00
H1200  H     0.41113   0.89290   0.96347   0.00000  Uiso   1.00
H1201  H     0.40637   0.81155   0.92970   0.00000  Uiso   1.00
H1202  H     0.40316   0.84682   0.88474   0.00000  Uiso   1.00
H1203  H     0.44169   0.80208   0.87312   0.00000  Uiso   1.00
H1204  H     0.50842   0.78971   0.57602   0.00000  Uiso   1.00
H1205  H     0.49167   0.87713   0.92404   0.00000  Uiso   1.00
H1206  H     0.44180   0.81038   0.61077   0.00000  Uiso   1.00
H1207  H     0.55815   0.85622   0.88921   0.00000  Uiso   1.00
H1208  H     0.65593   0.77656   0.97056   0.00000  Uiso   1.00
H1209  H     0.34413   0.89025   0.52948   0.00000  Uiso   1.00
H1210  H     0.59112   0.70393   0.74903   0.00000  Uiso   1.00
H1211  H     0.40888   0.96274   0.75097   0.00000  Uiso   1.00
H1212  H     0.59118   0.96267   0.74887   0.00000  Uiso   1.00
N1213  N     0.45069   0.83334   0.74999   0.00000  Uiso   1.00
N1214  N     0.54931   0.83332   0.75001   0.00000  Uiso   1.00
N1215  N     0.63287   0.87669   0.61469   0.00000  Uiso   1.00
N1216  N     0.36717   0.79008   0.88534   0.00000  Uiso   1.00
O1217  O     0.37291   0.77322   0.75000   0.00000  Uiso   1.00
O1218  O     0.62709   0.89345   0.75000   0.00000  Uiso   1.00
O1219  O     0.62706   0.77321   0.75000   0.00000  Uiso   1.00
O1220  O     0.37294   0.89346   0.75000   0.00000  Uiso   1.00
O1221  O     0.35186   0.83334   0.81492   0.00000  Uiso   1.00
O1222  O     0.64814   0.83332   0.68508   0.00000  Uiso   1.00
O1223  O     0.60600   0.83333   0.81492   0.00000  Uiso   1.00
O1224  O     0.39400   0.83333   0.68508   0.00000  Uiso   1.00
C1225  C     0.99997   0.75403   0.75005   0.00000  Uiso   1.00
C1226  C     0.70903   0.68797   0.75062   0.00000  Uiso   1.00
C1227  C     0.66670   0.95726   0.74993   0.00000  Uiso   1.00
C1228  C     0.99997   0.70941   0.75006   0.00000  Uiso   1.00
C1229  C     0.85131   0.80454   0.77392   0.00000  Uiso   1.00
C1230  C     0.81536   0.86213   0.72608   0.00000  Uiso   1.00
C1231  C     0.80174   0.80450   0.77382   0.00000  Uiso   1.00
C1232  C     0.86493   0.86216   0.72618   0.00000  Uiso   1.00
C1233  C     0.97294   0.83208   0.83614   0.00000  Uiso   1.00
C1234  C     0.69372   0.83459   0.66386   0.00000  Uiso   1.00
C1235  C     0.95827   0.82667   0.88524   0.00000  Uiso   1.00
C1236  C     0.66670   0.91264   0.74995   0.00000  Uiso   1.00
C1237  C     0.70840   0.84003   0.61476   0.00000  Uiso   1.00
C1238  C     0.96754   0.79447   0.95337   0.00000  Uiso   1.00
C1239  C     0.69917   0.87230   0.54666   0.00000  Uiso   1.00
C1240  C     0.98701   0.80477   0.90821   0.00000  Uiso   1.00
C1241  C     0.67969   0.86198   0.59181   0.00000  Uiso   1.00
C1242  C     0.91168   0.83952   0.90839   0.00000  Uiso   1.00
C1243  C     0.75498   0.82716   0.59161   0.00000  Uiso   1.00
C1244  C     0.89135   0.82922   0.95381   0.00000  Uiso   1.00
C1245  C     0.77535   0.83751   0.54621   0.00000  Uiso   1.00
C1246  C     0.92003   0.80569   0.97583   0.00000  Uiso   1.00
C1247  C     0.85354   0.80215   0.54260   0.00000  Uiso   1.00
C1248  C     0.74669   0.86108   0.52421   0.00000  Uiso   1.00
C1249  C     0.84298   0.84029   0.97744   0.00000  Uiso   1.00
C1250  C     0.82373   0.82647   0.52260   0.00000  Uiso   1.00
C1251  C     0.92685   0.85279   0.60624   0.00000  Uiso   1.00
C1252  C     0.73984   0.81403   0.89376   0.00000  Uiso   1.00
C1253  C     0.81319   0.86464   0.95745   0.00000  Uiso   1.00
C1254  C     0.90075   0.79242   0.51974   0.00000  Uiso   1.00
C1255  C     0.76598   0.87438   0.98031   0.00000  Uiso   1.00
C1256  C     0.95760   0.68793   0.74946   0.00000  Uiso   1.00
C1257  C     0.70907   0.97873   0.75053   0.00000  Uiso   1.00
C1258  C     0.95763   0.97870   0.74938   0.00000  Uiso   1.00
Cu1259 Cu    0.71355   0.83334   0.75000   0.00000  Uiso   1.00
Cu1260 Cu    0.95311   0.83333   0.75000   0.00000  Uiso   1.00
H1261  H     0.92228   0.77394   0.53659   0.00000  Uiso   1.00
H1262  H     0.74215   0.70400   0.75113   0.00000  Uiso   1.00
H1263  H     0.86446   0.78151   0.79319   0.00000  Uiso   1.00
H1264  H     0.80220   0.88515   0.70681   0.00000  Uiso   1.00
H1265  H     0.77763   0.78138   0.79287   0.00000  Uiso   1.00
H1266  H     0.88904   0.88529   0.70713   0.00000  Uiso   1.00
H1267  H     0.96193   0.90771   0.60966   0.00000  Uiso   1.00
H1268  H     0.92699   0.85531   0.57030   0.00000  Uiso   1.00
H1269  H     0.89168   0.86476   0.62688   0.00000  Uiso   1.00
H1270  H     0.93015   0.81998   0.61523   0.00000  Uiso   1.00
H1271  H     0.70481   0.75907   0.89040   0.00000  Uiso   1.00
H1272  H     0.74447   0.89290   0.96347   0.00000  Uiso   1.00
H1273  H     0.73971   0.81155   0.92970   0.00000  Uiso   1.00
H1274  H     0.73650   0.84682   0.88474   0.00000  Uiso   1.00
H1275  H     0.77502   0.80208   0.87312   0.00000  Uiso   1.00
H1276  H     0.84175   0.78971   0.57602   0.00000  Uiso   1.00
H1277  H     0.82500   0.87713   0.92404   0.00000  Uiso   1.00
H1278  H     0.77513   0.81038   0.61077   0.00000  Uiso   1.00
H1279  H     0.89149   0.85622   0.88921   0.00000  Uiso   1.00
H1280  H     0.98927   0.77656   0.97056   0.00000  Uiso   1.00
H1281  H     0.67747   0.89025   0.52948   0.00000  Uiso   1.00
H1282  H     0.92445   0.70393   0.74903   0.00000  Uiso   1.00
H1283  H     0.74221   0.96274   0.75097   0.00000  Uiso   1.00
H1284  H     0.92452   0.96267   0.74887   0.00000  Uiso   1.00
N1285  N     0.78403   0.83334   0.74999   0.00000  Uiso   1.00
N1286  N     0.88264   0.83332   0.75001   0.00000  Uiso   1.00
N1287  N     0.96620   0.87669   0.61469   0.00000  Uiso   1.00
N1288  N     0.70051   0.79008   0.88534   0.00000  Uiso   1.00
O1289  O     0.70625   0.77322   0.75000   0.00000  Uiso   1.00
O1290  O     0.96042   0.89345   0.75000   0.00000  Uiso   1.00
O1291  O     0.96039   0.77321   0.75000   0.00000  Uiso   1.00
O1292  O     0.70628   0.89346   0.75000   0.00000  Uiso   1.00
O1293  O     0.68519   0.83334   0.81492   0.00000  Uiso   1.00
O1294  O     0.98148   0.83332   0.68508   0.00000  Uiso   1.00
O1295  O     0.93933   0.83333   0.81492   0.00000  Uiso   1.00
O1296  O     0.72733   0.83333   0.68508   0.00000  Uiso   1.00
loop_
_geom_bond_atom_site_label_1
_geom_bond_atom_site_label_2
_geom_bond_distance
_geom_bond_site_symmetry_2
_ccdc_geom_bond_type
C1     C4      1.450   .     S
C1     O67     1.291   .     A
C1     O137    1.291   .     S
C2     H38     1.083   .     S
C2     C148    1.401   1_455 S
C2     C465    1.384   1_545 S
C3     C33     1.401   .     A
C3     C12     1.450   .     S
C3     C178    1.401   1_455 S
C4     C32     1.401   .     A
C4     C74     1.401   .     S
C5     N62     1.367   .     A
C5     H39     1.082   .     S
C5     C7      1.416   .     A
C6     N61     1.367   .     A
C6     H40     1.082   .     S
C6     C8      1.416   .     A
C7     H41     1.081   .     S
C7     N61     1.367   .     A
C8     H42     1.081   .     S
C8     N62     1.367   .     A
C9     C11     1.472   .     S
C9     O71     1.297   .     A
C9     O141    1.295   .     S
C10    C13     1.472   .     S
C10    O72     1.297   .     A
C10    O214    1.295   1_455 S
C11    C18     1.399   .     A
C11    C16     1.409   .     A
C12    O68     1.291   .     A
C12    O210    1.291   1_455 S
C13    C17     1.409   .     A
C13    C19     1.399   .     A
C14    H56     1.085   .     S
C14    C22     1.401   .     A
C14    C16     1.397   .     A
C15    C17     1.397   .     A
C15    H57     1.085   .     S
C15    C24     1.401   .     A
C16    N136    1.422   .     S
C17    N207    1.422   1_455 S
C18    H55     1.075   .     S
C18    C20     1.408   .     A
C19    H54     1.075   .     S
C19    C21     1.408   .     A
C20    C25     1.429   .     A
C20    C22     1.417   .     A
C21    C26     1.429   .     A
C21    C24     1.417   .     A
C22    C678    1.389   .     S
C23    H52     1.075   .     S
C23    C30     1.385   .     A
C23    C26     1.416   .     A
C24    C679    1.389   1_554 S
C25    C29     1.416   .     A
C25    C674    1.428   .     S
C26    C673    1.428   1_554 S
C27    H46     1.111   .     S
C27    H45     1.110   .     S
C27    N63     1.445   .     S
C27    H44     1.110   .     S
C28    H51     1.110   .     S
C28    H50     1.111   .     S
C28    N64     1.445   .     S
C28    H49     1.110   .     S
C29    C31     1.385   .     A
C29    H53     1.075   .     S
C30    H37     1.085   .     S
C30    C670    1.389   1_554 S
C31    H48     1.085   .     S
C31    C672    1.389   .     S
C32    H58     1.083   .     S
C32    C466    1.384   1_545 S
C33    H59     1.083   .     S
C33    C218    1.384   .     S
C34    H60     1.083   .     S
C34    C75     1.401   .     S
C34    C248    1.384   .     S
Cu35   O72     1.937   .     S
Cu35   N61     2.013   .     S
Cu35   O65     1.965   .     S
Cu35   O69     1.953   .     S
Cu35   O68     1.965   .     S
Cu35   Cu180   2.678   1_455 S
Cu36   O71     1.937   .     S
Cu36   O67     1.965   .     S
Cu36   N62     2.013   .     S
Cu36   O66     1.965   .     S
Cu36   O70     1.953   .     S
Cu36   Cu107   2.678   .     S
H43    N63     1.032   .     S
H47    N64     1.032   .     S
N63    C89     1.422   .     S
N64    C160    1.422   1_455 S
O65    C145    1.291   1_455 S
O66    C84     1.291   .     S
O69    C153    1.295   1_455 S
O70    C82     1.295   .     S
C73    C76     1.450   .     S
C73    O139    1.291   .     A
C73    O209    1.291   .     S
C74    H110    1.083   .     S
C74    C537    1.384   1_545 S
C75    C105    1.401   .     A
C75    C84     1.450   .     S
C76    C104    1.401   .     A
C76    C146    1.401   .     S
C77    N134    1.367   .     A
C77    H111    1.082   .     S
C77    C79     1.416   .     A
C78    N133    1.367   .     A
C78    H112    1.082   .     S
C78    C80     1.416   .     A
C79    H113    1.081   .     S
C79    N133    1.367   .     A
C80    H114    1.081   .     S
C80    N134    1.367   .     A
C81    C83     1.472   .     S
C81    O143    1.297   .     A
C81    O213    1.295   .     S
C82    C85     1.472   .     S
C82    O144    1.297   .     A
C83    C90     1.399   .     A
C83    C88     1.409   .     A
C84    O140    1.291   .     A
C85    C89     1.409   .     A
C85    C91     1.399   .     A
C86    H128    1.085   .     S
C86    C94     1.401   .     A
C86    C88     1.397   .     A
C87    C89     1.397   .     A
C87    H129    1.085   .     S
C87    C96     1.401   .     A
C88    N208    1.422   .     S
C90    H127    1.075   .     S
C90    C92     1.408   .     A
C91    H126    1.075   .     S
C91    C93     1.408   .     A
C92    C97     1.429   .     A
C92    C94     1.417   .     A
C93    C98     1.429   .     A
C93    C96     1.417   .     A
C94    C750    1.389   .     S
C95    H124    1.075   .     S
C95    C102    1.385   .     A
C95    C98     1.416   .     A
C96    C751    1.389   1_554 S
C97    C101    1.416   .     A
C97    C746    1.428   .     S
C98    C745    1.428   1_554 S
C99    H118    1.111   .     S
C99    H117    1.110   .     S
C99    N135    1.445   .     S
C99    H116    1.110   .     S
C100   H123    1.110   .     S
C100   H122    1.111   .     S
C100   N136    1.445   .     S
C100   H121    1.110   .     S
C101   C103    1.385   .     A
C101   H125    1.075   .     S
C102   H109    1.085   .     S
C102   C742    1.389   1_554 S
C103   H120    1.085   .     S
C103   C744    1.389   .     S
C104   H130    1.083   .     S
C104   C538    1.384   1_545 S
C105   H131    1.083   .     S
C105   C290    1.384   .     S
C106   H132    1.083   .     S
C106   C147    1.401   .     S
C106   C320    1.384   .     S
Cu107  O144    1.937   .     S
Cu107  N133    2.013   .     S
Cu107  O137    1.965   .     S
Cu107  O141    1.953   .     S
Cu107  O140    1.965   .     S
Cu108  O143    1.937   .     S
Cu108  O139    1.965   .     S
Cu108  N134    2.013   .     S
Cu108  O138    1.965   .     S
Cu108  O142    1.953   .     S
Cu108  Cu179   2.678   .     S
H115   N135    1.032   .     S
H119   N136    1.032   .     S
N135   C161    1.422   .     S
O138   C156    1.291   .     S
O142   C154    1.295   .     S
C145   C148    1.450   .     S
C145   O211    1.291   .     A
C145   O65     1.291   1_655 S
C146   H182    1.083   .     S
C146   C609    1.384   1_545 S
C147   C177    1.401   .     A
C147   C156    1.450   .     S
C148   C176    1.401   .     A
C148   C2      1.401   1_655 S
C149   N206    1.367   .     A
C149   H183    1.082   .     S
C149   C151    1.416   .     A
C150   N205    1.367   .     A
C150   H184    1.082   .     S
C150   C152    1.416   .     A
C151   H185    1.081   .     S
C151   N205    1.367   .     A
C152   H186    1.081   .     S
C152   N206    1.367   .     A
C153   C155    1.472   .     S
C153   O215    1.297   .     A
C153   O69     1.295   1_655 S
C154   C157    1.472   .     S
C154   O216    1.297   .     A
C155   C162    1.399   .     A
C155   C160    1.409   .     A
C156   O212    1.291   .     A
C157   C161    1.409   .     A
C157   C163    1.399   .     A
C158   H200    1.085   .     S
C158   C166    1.401   .     A
C158   C160    1.397   .     A
C159   C161    1.397   .     A
C159   H201    1.085   .     S
C159   C168    1.401   .     A
C160   N64     1.422   1_655 S
C162   H199    1.075   .     S
C162   C164    1.408   .     A
C163   H198    1.075   .     S
C163   C165    1.408   .     A
C164   C169    1.429   .     A
C164   C166    1.417   .     A
C165   C170    1.429   .     A
C165   C168    1.417   .     A
C166   C822    1.389   .     S
C167   H196    1.075   .     S
C167   C174    1.385   .     A
C167   C170    1.416   .     A
C168   C823    1.389   1_554 S
C169   C173    1.416   .     A
C169   C818    1.428   .     S
C170   C817    1.428   1_554 S
C171   H190    1.111   .     S
C171   H189    1.110   .     S
C171   N207    1.445   .     S
C171   H188    1.110   .     S
C172   H195    1.110   .     S
C172   H194    1.111   .     S
C172   N208    1.445   .     S
C172   H193    1.110   .     S
C173   C175    1.385   .     A
C173   H197    1.075   .     S
C174   H181    1.085   .     S
C174   C814    1.389   1_554 S
C175   H192    1.085   .     S
C175   C816    1.389   .     S
C176   H202    1.083   .     S
C176   C610    1.384   1_545 S
C177   H203    1.083   .     S
C177   C362    1.384   .     S
C178   H204    1.083   .     S
C178   C3      1.401   1_655 S
C178   C392    1.384   .     S
Cu179  O216    1.937   .     S
Cu179  N205    2.013   .     S
Cu179  O209    1.965   .     S
Cu179  O213    1.953   .     S
Cu179  O212    1.965   .     S
Cu180  O215    1.937   .     S
Cu180  O211    1.965   .     S
Cu180  N206    2.013   .     S
Cu180  O210    1.965   .     S
Cu180  O214    1.953   .     S
Cu180  Cu35    2.678   1_655 S
H187   N207    1.032   .     S
H191   N208    1.032   .     S
N207   C17     1.422   1_655 S
O210   C12     1.291   1_655 S
O214   C10     1.295   1_655 S
C217   C220    1.450   .     S
C217   O283    1.291   .     A
C217   O353    1.291   .     S
C218   H254    1.083   .     S
C218   C364    1.401   1_455 S
C219   C249    1.401   .     A
C219   C228    1.450   .     S
C219   C394    1.401   1_455 S
C220   C248    1.401   .     A
C220   C290    1.401   .     S
C221   N278    1.367   .     A
C221   H255    1.082   .     S
C221   C223    1.416   .     A
C222   N277    1.367   .     A
C222   H256    1.082   .     S
C222   C224    1.416   .     A
C223   H257    1.081   .     S
C223   N277    1.367   .     A
C224   H258    1.081   .     S
C224   N278    1.367   .     A
C225   C227    1.472   .     S
C225   O287    1.297   .     A
C225   O357    1.295   .     S
C226   C229    1.472   .     S
C226   O288    1.297   .     A
C226   O430    1.295   1_455 S
C227   C234    1.399   .     A
C227   C232    1.409   .     A
C228   O284    1.291   .     A
C228   O426    1.291   1_455 S
C229   C233    1.409   .     A
C229   C235    1.399   .     A
C230   H272    1.085   .     S
C230   C238    1.401   .     A
C230   C232    1.397   .     A
C231   C233    1.397   .     A
C231   H273    1.085   .     S
C231   C240    1.401   .     A
C232   N352    1.422   .     S
C233   N423    1.422   1_455 S
C234   H271    1.075   .     S
C234   C236    1.408   .     A
C235   H270    1.075   .     S
C235   C237    1.408   .     A
C236   C241    1.429   .     A
C236   C238    1.417   .     A
C237   C242    1.429   .     A
C237   C240    1.417   .     A
C238   C894    1.389   .     S
C239   H268    1.075   .     S
C239   C246    1.385   .     A
C239   C242    1.416   .     A
C240   C895    1.389   1_554 S
C241   C245    1.416   .     A
C241   C890    1.428   .     S
C242   C889    1.428   1_554 S
C243   H262    1.111   .     S
C243   H261    1.110   .     S
C243   N279    1.445   .     S
C243   H260    1.110   .     S
C244   H267    1.110   .     S
C244   H266    1.111   .     S
C244   N280    1.445   .     S
C244   H265    1.110   .     S
C245   C247    1.385   .     A
C245   H269    1.075   .     S
C246   H253    1.085   .     S
C246   C886    1.389   1_554 S
C247   H264    1.085   .     S
C247   C888    1.389   .     S
C248   H274    1.083   .     S
C249   H275    1.083   .     S
C249   C434    1.384   .     S
C250   H276    1.083   .     S
C250   C291    1.401   .     S
C250   C464    1.384   .     S
Cu251  O288    1.937   .     S
Cu251  N277    2.013   .     S
Cu251  O281    1.965   .     S
Cu251  O285    1.953   .     S
Cu251  O284    1.965   .     S
Cu251  Cu396   2.678   1_455 S
Cu252  O287    1.937   .     S
Cu252  O283    1.965   .     S
Cu252  N278    2.013   .     S
Cu252  O282    1.965   .     S
Cu252  O286    1.953   .     S
Cu252  Cu323   2.678   .     S
H259   N279    1.032   .     S
H263   N280    1.032   .     S
N279   C305    1.422   .     S
N280   C376    1.422   1_455 S
O281   C361    1.291   1_455 S
O282   C300    1.291   .     S
O285   C369    1.295   1_455 S
O286   C298    1.295   .     S
C289   C292    1.450   .     S
C289   O355    1.291   .     A
C289   O425    1.291   .     S
C290   H326    1.083   .     S
C291   C321    1.401   .     A
C291   C300    1.450   .     S
C292   C320    1.401   .     A
C292   C362    1.401   .     S
C293   N350    1.367   .     A
C293   H327    1.082   .     S
C293   C295    1.416   .     A
C294   N349    1.367   .     A
C294   H328    1.082   .     S
C294   C296    1.416   .     A
C295   H329    1.081   .     S
C295   N349    1.367   .     A
C296   H330    1.081   .     S
C296   N350    1.367   .     A
C297   C299    1.472   .     S
C297   O359    1.297   .     A
C297   O429    1.295   .     S
C298   C301    1.472   .     S
C298   O360    1.297   .     A
C299   C306    1.399   .     A
C299   C304    1.409   .     A
C300   O356    1.291   .     A
C301   C305    1.409   .     A
C301   C307    1.399   .     A
C302   H344    1.085   .     S
C302   C310    1.401   .     A
C302   C304    1.397   .     A
C303   C305    1.397   .     A
C303   H345    1.085   .     S
C303   C312    1.401   .     A
C304   N424    1.422   .     S
C306   H343    1.075   .     S
C306   C308    1.408   .     A
C307   H342    1.075   .     S
C307   C309    1.408   .     A
C308   C313    1.429   .     A
C308   C310    1.417   .     A
C309   C314    1.429   .     A
C309   C312    1.417   .     A
C310   C966    1.389   .     S
C311   H340    1.075   .     S
C311   C318    1.385   .     A
C311   C314    1.416   .     A
C312   C967    1.389   1_554 S
C313   C317    1.416   .     A
C313   C962    1.428   .     S
C314   C961    1.428   1_554 S
C315   H334    1.111   .     S
C315   H333    1.110   .     S
C315   N351    1.445   .     S
C315   H332    1.110   .     S
C316   H339    1.110   .     S
C316   H338    1.111   .     S
C316   N352    1.445   .     S
C316   H337    1.110   .     S
C317   C319    1.385   .     A
C317   H341    1.075   .     S
C318   H325    1.085   .     S
C318   C958    1.389   1_554 S
C319   H336    1.085   .     S
C319   C960    1.389   .     S
C320   H346    1.083   .     S
C321   H347    1.083   .     S
C321   C506    1.384   .     S
C322   H348    1.083   .     S
C322   C363    1.401   .     S
C322   C536    1.384   .     S
Cu323  O360    1.937   .     S
Cu323  N349    2.013   .     S
Cu323  O353    1.965   .     S
Cu323  O357    1.953   .     S
Cu323  O356    1.965   .     S
Cu324  O359    1.937   .     S
Cu324  O355    1.965   .     S
Cu324  N350    2.013   .     S
Cu324  O354    1.965   .     S
Cu324  O358    1.953   .     S
Cu324  Cu395   2.678   .     S
H331   N351    1.032   .     S
H335   N352    1.032   .     S
N351   C377    1.422   .     S
O354   C372    1.291   .     S
O358   C370    1.295   .     S
C361   C364    1.450   .     S
C361   O427    1.291   .     A
C361   O281    1.291   1_655 S
C362   H398    1.083   .     S
C363   C393    1.401   .     A
C363   C372    1.450   .     S
C364   C392    1.401   .     A
C364   C218    1.401   1_655 S
C365   N422    1.367   .     A
C365   H399    1.082   .     S
C365   C367    1.416   .     A
C366   N421    1.367   .     A
C366   H400    1.082   .     S
C366   C368    1.416   .     A
C367   H401    1.081   .     S
C367   N421    1.367   .     A
C368   H402    1.081   .     S
C368   N422    1.367   .     A
C369   C371    1.472   .     S
C369   O431    1.297   .     A
C369   O285    1.295   1_655 S
C370   C373    1.472   .     S
C370   O432    1.297   .     A
C371   C378    1.399   .     A
C371   C376    1.409   .     A
C372   O428    1.291   .     A
C373   C377    1.409   .     A
C373   C379    1.399   .     A
C374   H416    1.085   .     S
C374   C382    1.401   .     A
C374   C376    1.397   .     A
C375   C377    1.397   .     A
C375   H417    1.085   .     S
C375   C384    1.401   .     A
C376   N280    1.422   1_655 S
C378   H415    1.075   .     S
C378   C380    1.408   .     A
C379   H414    1.075   .     S
C379   C381    1.408   .     A
C380   C385    1.429   .     A
C380   C382    1.417   .     A
C381   C386    1.429   .     A
C381   C384    1.417   .     A
C382   C1038   1.389   .     S
C383   H412    1.075   .     S
C383   C390    1.385   .     A
C383   C386    1.416   .     A
C384   C1039   1.389   1_554 S
C385   C389    1.416   .     A
C385   C1034   1.428   .     S
C386   C1033   1.428   1_554 S
C387   H406    1.111   .     S
C387   H405    1.110   .     S
C387   N423    1.445   .     S
C387   H404    1.110   .     S
C388   H411    1.110   .     S
C388   H410    1.111   .     S
C388   N424    1.445   .     S
C388   H409    1.110   .     S
C389   C391    1.385   .     A
C389   H413    1.075   .     S
C390   H397    1.085   .     S
C390   C1030   1.389   1_554 S
C391   H408    1.085   .     S
C391   C1032   1.389   .     S
C392   H418    1.083   .     S
C393   H419    1.083   .     S
C393   C578    1.384   .     S
C394   H420    1.083   .     S
C394   C219    1.401   1_655 S
C394   C608    1.384   .     S
Cu395  O432    1.937   .     S
Cu395  N421    2.013   .     S
Cu395  O425    1.965   .     S
Cu395  O429    1.953   .     S
Cu395  O428    1.965   .     S
Cu396  O431    1.937   .     S
Cu396  O427    1.965   .     S
Cu396  N422    2.013   .     S
Cu396  O426    1.965   .     S
Cu396  O430    1.953   .     S
Cu396  Cu251   2.678   1_655 S
H403   N423    1.032   .     S
H407   N424    1.032   .     S
N423   C233    1.422   1_655 S
O426   C228    1.291   1_655 S
O430   C226    1.295   1_655 S
C433   C436    1.450   .     S
C433   O499    1.291   .     A
C433   O569    1.291   .     S
C434   H470    1.083   .     S
C434   C580    1.401   1_455 S
C435   C465    1.401   .     A
C435   C444    1.450   .     S
C435   C610    1.401   1_455 S
C436   C464    1.401   .     A
C436   C506    1.401   .     S
C437   N494    1.367   .     A
C437   H471    1.082   .     S
C437   C439    1.416   .     A
C438   N493    1.367   .     A
C438   H472    1.082   .     S
C438   C440    1.416   .     A
C439   H473    1.081   .     S
C439   N493    1.367   .     A
C440   H474    1.081   .     S
C440   N494    1.367   .     A
C441   C443    1.472   .     S
C441   O503    1.297   .     A
C441   O573    1.295   .     S
C442   C445    1.472   .     S
C442   O504    1.297   .     A
C442   O646    1.295   1_455 S
C443   C450    1.399   .     A
C443   C448    1.409   .     A
C444   O500    1.291   .     A
C444   O642    1.291   1_455 S
C445   C449    1.409   .     A
C445   C451    1.399   .     A
C446   H488    1.085   .     S
C446   C454    1.401   .     A
C446   C448    1.397   .     A
C447   C449    1.397   .     A
C447   H489    1.085   .     S
C447   C456    1.401   .     A
C448   N568    1.422   .     S
C449   N639    1.422   1_455 S
C450   H487    1.075   .     S
C450   C452    1.408   .     A
C451   H486    1.075   .     S
C451   C453    1.408   .     A
C452   C457    1.429   .     A
C452   C454    1.417   .     A
C453   C458    1.429   .     A
C453   C456    1.417   .     A
C454   C1110   1.389   .     S
C455   H484    1.075   .     S
C455   C462    1.385   .     A
C455   C458    1.416   .     A
C456   C1111   1.389   1_554 S
C457   C461    1.416   .     A
C457   C1106   1.428   .     S
C458   C1105   1.428   1_554 S
C459   H478    1.111   .     S
C459   H477    1.110   .     S
C459   N495    1.445   .     S
C459   H476    1.110   .     S
C460   H483    1.110   .     S
C460   H482    1.111   .     S
C460   N496    1.445   .     S
C460   H481    1.110   .     S
C461   C463    1.385   .     A
C461   H485    1.075   .     S
C462   H469    1.085   .     S
C462   C1102   1.389   1_554 S
C463   H480    1.085   .     S
C463   C1104   1.389   .     S
C464   H490    1.083   .     S
C465   H491    1.083   .     S
C465   C2      1.384   1_565 S
C466   H492    1.083   .     S
C466   C507    1.401   .     S
C466   C32     1.384   1_565 S
Cu467  O504    1.937   .     S
Cu467  N493    2.013   .     S
Cu467  O497    1.965   .     S
Cu467  O501    1.953   .     S
Cu467  O500    1.965   .     S
Cu467  Cu612   2.678   1_455 S
Cu468  O503    1.937   .     S
Cu468  O499    1.965   .     S
Cu468  N494    2.013   .     S
Cu468  O498    1.965   .     S
Cu468  O502    1.953   .     S
Cu468  Cu539   2.678   .     S
H475   N495    1.032   .     S
H479   N496    1.032   .     S
N495   C521    1.422   .     S
N496   C592    1.422   1_455 S
O497   C577    1.291   1_455 S
O498   C516    1.291   .     S
O501   C585    1.295   1_455 S
O502   C514    1.295   .     S
C505   C508    1.450   .     S
C505   O571    1.291   .     A
C505   O641    1.291   .     S
C506   H542    1.083   .     S
C507   C537    1.401   .     A
C507   C516    1.450   .     S
C508   C536    1.401   .     A
C508   C578    1.401   .     S
C509   N566    1.367   .     A
C509   H543    1.082   .     S
C509   C511    1.416   .     A
C510   N565    1.367   .     A
C510   H544    1.082   .     S
C510   C512    1.416   .     A
C511   H545    1.081   .     S
C511   N565    1.367   .     A
C512   H546    1.081   .     S
C512   N566    1.367   .     A
C513   C515    1.472   .     S
C513   O575    1.297   .     A
C513   O645    1.295   .     S
C514   C517    1.472   .     S
C514   O576    1.297   .     A
C515   C522    1.399   .     A
C515   C520    1.409   .     A
C516   O572    1.291   .     A
C517   C521    1.409   .     A
C517   C523    1.399   .     A
C518   H560    1.085   .     S
C518   C526    1.401   .     A
C518   C520    1.397   .     A
C519   C521    1.397   .     A
C519   H561    1.085   .     S
C519   C528    1.401   .     A
C520   N640    1.422   .     S
C522   H559    1.075   .     S
C522   C524    1.408   .     A
C523   H558    1.075   .     S
C523   C525    1.408   .     A
C524   C529    1.429   .     A
C524   C526    1.417   .     A
C525   C530    1.429   .     A
C525   C528    1.417   .     A
C526   C1182   1.389   .     S
C527   H556    1.075   .     S
C527   C534    1.385   .     A
C527   C530    1.416   .     A
C528   C1183   1.389   1_554 S
C529   C533    1.416   .     A
C529   C1178   1.428   .     S
C530   C1177   1.428   1_554 S
C531   H550    1.111   .     S
C531   H549    1.110   .     S
C531   N567    1.445   .     S
C531   H548    1.110   .     S
C532   H555    1.110   .     S
C532   H554    1.111   .     S
C532   N568    1.445   .     S
C532   H553    1.110   .     S
C533   C535    1.385   .     A
C533   H557    1.075   .     S
C534   H541    1.085   .     S
C534   C1174   1.389   1_554 S
C535   H552    1.085   .     S
C535   C1176   1.389   .     S
C536   H562    1.083   .     S
C537   H563    1.083   .     S
C537   C74     1.384   1_565 S
C538   H564    1.083   .     S
C538   C579    1.401   .     S
C538   C104    1.384   1_565 S
Cu539  O576    1.937   .     S
Cu539  N565    2.013   .     S
Cu539  O569    1.965   .     S
Cu539  O573    1.953   .     S
Cu539  O572    1.965   .     S
Cu540  O575    1.937   .     S
Cu540  O571    1.965   .     S
Cu540  N566    2.013   .     S
Cu540  O570    1.965   .     S
Cu540  O574    1.953   .     S
Cu540  Cu611   2.678   .     S
H547   N567    1.032   .     S
H551   N568    1.032   .     S
N567   C593    1.422   .     S
O570   C588    1.291   .     S
O574   C586    1.295   .     S
C577   C580    1.450   .     S
C577   O643    1.291   .     A
C577   O497    1.291   1_655 S
C578   H614    1.083   .     S
C579   C609    1.401   .     A
C579   C588    1.450   .     S
C580   C608    1.401   .     A
C580   C434    1.401   1_655 S
C581   N638    1.367   .     A
C581   H615    1.082   .     S
C581   C583    1.416   .     A
C582   N637    1.367   .     A
C582   H616    1.082   .     S
C582   C584    1.416   .     A
C583   H617    1.081   .     S
C583   N637    1.367   .     A
C584   H618    1.081   .     S
C584   N638    1.367   .     A
C585   C587    1.472   .     S
C585   O647    1.297   .     A
C585   O501    1.295   1_655 S
C586   C589    1.472   .     S
C586   O648    1.297   .     A
C587   C594    1.399   .     A
C587   C592    1.409   .     A
C588   O644    1.291   .     A
C589   C593    1.409   .     A
C589   C595    1.399   .     A
C590   H632    1.085   .     S
C590   C598    1.401   .     A
C590   C592    1.397   .     A
C591   C593    1.397   .     A
C591   H633    1.085   .     S
C591   C600    1.401   .     A
C592   N496    1.422   1_655 S
C594   H631    1.075   .     S
C594   C596    1.408   .     A
C595   H630    1.075   .     S
C595   C597    1.408   .     A
C596   C601    1.429   .     A
C596   C598    1.417   .     A
C597   C602    1.429   .     A
C597   C600    1.417   .     A
C598   C1254   1.389   .     S
C599   H628    1.075   .     S
C599   C606    1.385   .     A
C599   C602    1.416   .     A
C600   C1255   1.389   1_554 S
C601   C605    1.416   .     A
C601   C1250   1.428   .     S
C602   C1249   1.428   1_554 S
C603   H622    1.111   .     S
C603   H621    1.110   .     S
C603   N639    1.445   .     S
C603   H620    1.110   .     S
C604   H627    1.110   .     S
C604   H626    1.111   .     S
C604   N640    1.445   .     S
C604   H625    1.110   .     S
C605   C607    1.385   .     A
C605   H629    1.075   .     S
C606   H613    1.085   .     S
C606   C1246   1.389   1_554 S
C607   H624    1.085   .     S
C607   C1248   1.389   .     S
C608   H634    1.083   .     S
C609   H635    1.083   .     S
C609   C146    1.384   1_565 S
C610   H636    1.083   .     S
C610   C435    1.401   1_655 S
C610   C176    1.384   1_565 S
Cu611  O648    1.937   .     S
Cu611  N637    2.013   .     S
Cu611  O641    1.965   .     S
Cu611  O645    1.953   .     S
Cu611  O644    1.965   .     S
Cu612  O647    1.937   .     S
Cu612  O643    1.965   .     S
Cu612  N638    2.013   .     S
Cu612  O642    1.965   .     S
Cu612  O646    1.953   .     S
Cu612  Cu467   2.678   1_655 S
H619   N639    1.032   .     S
H623   N640    1.032   .     S
N639   C449    1.422   1_655 S
O642   C444    1.291   1_655 S
O646   C442    1.295   1_655 S
C649   C652    1.450   .     S
C649   O715    1.291   .     A
C649   O785    1.291   .     S
C650   H686    1.083   .     S
C650   C796    1.401   1_455 S
C650   C1113   1.384   1_545 S
C651   C681    1.401   .     A
C651   C660    1.450   .     S
C651   C826    1.401   1_455 S
C652   C680    1.401   .     A
C652   C722    1.401   .     S
C653   N710    1.367   .     A
C653   H687    1.082   .     S
C653   C655    1.416   .     A
C654   N709    1.367   .     A
C654   H688    1.082   .     S
C654   C656    1.416   .     A
C655   H689    1.081   .     S
C655   N709    1.367   .     A
C656   H690    1.081   .     S
C656   N710    1.367   .     A
C657   C659    1.472   .     S
C657   O719    1.297   .     A
C657   O789    1.295   .     S
C658   C661    1.472   .     S
C658   O720    1.297   .     A
C658   O862    1.295   1_455 S
C659   C666    1.399   .     A
C659   C664    1.409   .     A
C660   O716    1.291   .     A
C660   O858    1.291   1_455 S
C661   C665    1.409   .     A
C661   C667    1.399   .     A
C662   H704    1.085   .     S
C662   C670    1.401   .     A
C662   C664    1.397   .     A
C663   C665    1.397   .     A
C663   H705    1.085   .     S
C663   C672    1.401   .     A
C664   N784    1.422   .     S
C665   N855    1.422   1_455 S
C666   H703    1.075   .     S
C666   C668    1.408   .     A
C667   H702    1.075   .     S
C667   C669    1.408   .     A
C668   C673    1.429   .     A
C668   C670    1.417   .     A
C669   C674    1.429   .     A
C669   C672    1.417   .     A
C670   C30     1.389   1_556 S
C671   H700    1.075   .     S
C671   C678    1.385   .     A
C671   C674    1.416   .     A
C673   C677    1.416   .     A
C673   C26     1.428   1_556 S
C675   H694    1.111   .     S
C675   H693    1.110   .     S
C675   N711    1.445   .     S
C675   H692    1.110   .     S
C676   H699    1.110   .     S
C676   H698    1.111   .     S
C676   N712    1.445   .     S
C676   H697    1.110   .     S
C677   C679    1.385   .     A
C677   H701    1.075   .     S
C678   H685    1.085   .     S
C679   H696    1.085   .     S
C679   C24     1.389   1_556 S
C680   H706    1.083   .     S
C680   C1114   1.384   1_545 S
C681   H707    1.083   .     S
C681   C866    1.384   .     S
C682   H708    1.083   .     S
C682   C723    1.401   .     S
C682   C896    1.384   .     S
Cu683  O720    1.937   .     S
Cu683  N709    2.013   .     S
Cu683  O713    1.965   .     S
Cu683  O717    1.953   .     S
Cu683  O716    1.965   .     S
Cu683  Cu828   2.678   1_455 S
Cu684  O719    1.937   .     S
Cu684  O715    1.965   .     S
Cu684  N710    2.013   .     S
Cu684  O714    1.965   .     S
Cu684  O718    1.953   .     S
Cu684  Cu755   2.678   .     S
H691   N711    1.032   .     S
H695   N712    1.032   .     S
N711   C737    1.422   .     S
N712   C808    1.422   1_455 S
O713   C793    1.291   1_455 S
O714   C732    1.291   .     S
O717   C801    1.295   1_455 S
O718   C730    1.295   .     S
C721   C724    1.450   .     S
C721   O787    1.291   .     A
C721   O857    1.291   .     S
C722   H758    1.083   .     S
C722   C1185   1.384   1_545 S
C723   C753    1.401   .     A
C723   C732    1.450   .     S
C724   C752    1.401   .     A
C724   C794    1.401   .     S
C725   N782    1.367   .     A
C725   H759    1.082   .     S
C725   C727    1.416   .     A
C726   N781    1.367   .     A
C726   H760    1.082   .     S
C726   C728    1.416   .     A
C727   H761    1.081   .     S
C727   N781    1.367   .     A
C728   H762    1.081   .     S
C728   N782    1.367   .     A
C729   C731    1.472   .     S
C729   O791    1.297   .     A
C729   O861    1.295   .     S
C730   C733    1.472   .     S
C730   O792    1.297   .     A
C731   C738    1.399   .     A
C731   C736    1.409   .     A
C732   O788    1.291   .     A
C733   C737    1.409   .     A
C733   C739    1.399   .     A
C734   H776    1.085   .     S
C734   C742    1.401   .     A
C734   C736    1.397   .     A
C735   C737    1.397   .     A
C735   H777    1.085   .     S
C735   C744    1.401   .     A
C736   N856    1.422   .     S
C738   H775    1.075   .     S
C738   C740    1.408   .     A
C739   H774    1.075   .     S
C739   C741    1.408   .     A
C740   C745    1.429   .     A
C740   C742    1.417   .     A
C741   C746    1.429   .     A
C741   C744    1.417   .     A
C742   C102    1.389   1_556 S
C743   H772    1.075   .     S
C743   C750    1.385   .     A
C743   C746    1.416   .     A
C745   C749    1.416   .     A
C745   C98     1.428   1_556 S
C747   H766    1.111   .     S
C747   H765    1.110   .     S
C747   N783    1.445   .     S
C747   H764    1.110   .     S
C748   H771    1.110   .     S
C748   H770    1.111   .     S
C748   N784    1.445   .     S
C748   H769    1.110   .     S
C749   C751    1.385   .     A
C749   H773    1.075   .     S
C750   H757    1.085   .     S
C751   H768    1.085   .     S
C751   C96     1.389   1_556 S
C752   H778    1.083   .     S
C752   C1186   1.384   1_545 S
C753   H779    1.083   .     S
C753   C938    1.384   .     S
C754   H780    1.083   .     S
C754   C795    1.401   .     S
C754   C968    1.384   .     S
Cu755  O792    1.937   .     S
Cu755  N781    2.013   .     S
Cu755  O785    1.965   .     S
Cu755  O789    1.953   .     S
Cu755  O788    1.965   .     S
Cu756  O791    1.937   .     S
Cu756  O787    1.965   .     S
Cu756  N782    2.013   .     S
Cu756  O786    1.965   .     S
Cu756  O790    1.953   .     S
Cu756  Cu827   2.678   .     S
H763   N783    1.032   .     S
H767   N784    1.032   .     S
N783   C809    1.422   .     S
O786   C804    1.291   .     S
O790   C802    1.295   .     S
C793   C796    1.450   .     S
C793   O859    1.291   .     A
C793   O713    1.291   1_655 S
C794   H830    1.083   .     S
C794   C1257   1.384   1_545 S
C795   C825    1.401   .     A
C795   C804    1.450   .     S
C796   C824    1.401   .     A
C796   C650    1.401   1_655 S
C797   N854    1.367   .     A
C797   H831    1.082   .     S
C797   C799    1.416   .     A
C798   N853    1.367   .     A
C798   H832    1.082   .     S
C798   C800    1.416   .     A
C799   H833    1.081   .     S
C799   N853    1.367   .     A
C800   H834    1.081   .     S
C800   N854    1.367   .     A
C801   C803    1.472   .     S
C801   O863    1.297   .     A
C801   O717    1.295   1_655 S
C802   C805    1.472   .     S
C802   O864    1.297   .     A
C803   C810    1.399   .     A
C803   C808    1.409   .     A
C804   O860    1.291   .     A
C805   C809    1.409   .     A
C805   C811    1.399   .     A
C806   H848    1.085   .     S
C806   C814    1.401   .     A
C806   C808    1.397   .     A
C807   C809    1.397   .     A
C807   H849    1.085   .     S
C807   C816    1.401   .     A
C808   N712    1.422   1_655 S
C810   H847    1.075   .     S
C810   C812    1.408   .     A
C811   H846    1.075   .     S
C811   C813    1.408   .     A
C812   C817    1.429   .     A
C812   C814    1.417   .     A
C813   C818    1.429   .     A
C813   C816    1.417   .     A
C814   C174    1.389   1_556 S
C815   H844    1.075   .     S
C815   C822    1.385   .     A
C815   C818    1.416   .     A
C817   C821    1.416   .     A
C817   C170    1.428   1_556 S
C819   H838    1.111   .     S
C819   H837    1.110   .     S
C819   N855    1.445   .     S
C819   H836    1.110   .     S
C820   H843    1.110   .     S
C820   H842    1.111   .     S
C820   N856    1.445   .     S
C820   H841    1.110   .     S
C821   C823    1.385   .     A
C821   H845    1.075   .     S
C822   H829    1.085   .     S
C823   H840    1.085   .     S
C823   C168    1.389   1_556 S
C824   H850    1.083   .     S
C824   C1258   1.384   1_545 S
C825   H851    1.083   .     S
C825   C1010   1.384   .     S
C826   H852    1.083   .     S
C826   C651    1.401   1_655 S
C826   C1040   1.384   .     S
Cu827  O864    1.937   .     S
Cu827  N853    2.013   .     S
Cu827  O857    1.965   .     S
Cu827  O861    1.953   .     S
Cu827  O860    1.965   .     S
Cu828  O863    1.937   .     S
Cu828  O859    1.965   .     S
Cu828  N854    2.013   .     S
Cu828  O858    1.965   .     S
Cu828  O862    1.953   .     S
Cu828  Cu683   2.678   1_655 S
H835   N855    1.032   .     S
H839   N856    1.032   .     S
N855   C665    1.422   1_655 S
O858   C660    1.291   1_655 S
O862   C658    1.295   1_655 S
C865   C868    1.450   .     S
C865   O931    1.291   .     A
C865   O1001   1.291   .     S
C866   H902    1.083   .     S
C866   C1012   1.401   1_455 S
C867   C897    1.401   .     A
C867   C876    1.450   .     S
C867   C1042   1.401   1_455 S
C868   C896    1.401   .     A
C868   C938    1.401   .     S
C869   N926    1.367   .     A
C869   H903    1.082   .     S
C869   C871    1.416   .     A
C870   N925    1.367   .     A
C870   H904    1.082   .     S
C870   C872    1.416   .     A
C871   H905    1.081   .     S
C871   N925    1.367   .     A
C872   H906    1.081   .     S
C872   N926    1.367   .     A
C873   C875    1.472   .     S
C873   O935    1.297   .     A
C873   O1005   1.295   .     S
C874   C877    1.472   .     S
C874   O936    1.297   .     A
C874   O1078   1.295   1_455 S
C875   C882    1.399   .     A
C875   C880    1.409   .     A
C876   O932    1.291   .     A
C876   O1074   1.291   1_455 S
C877   C881    1.409   .     A
C877   C883    1.399   .     A
C878   H920    1.085   .     S
C878   C886    1.401   .     A
C878   C880    1.397   .     A
C879   C881    1.397   .     A
C879   H921    1.085   .     S
C879   C888    1.401   .     A
C880   N1000   1.422   .     S
C881   N1071   1.422   1_455 S
C882   H919    1.075   .     S
C882   C884    1.408   .     A
C883   H918    1.075   .     S
C883   C885    1.408   .     A
C884   C889    1.429   .     A
C884   C886    1.417   .     A
C885   C890    1.429   .     A
C885   C888    1.417   .     A
C886   C246    1.389   1_556 S
C887   H916    1.075   .     S
C887   C894    1.385   .     A
C887   C890    1.416   .     A
C889   C893    1.416   .     A
C889   C242    1.428   1_556 S
C891   H910    1.111   .     S
C891   H909    1.110   .     S
C891   N927    1.445   .     S
C891   H908    1.110   .     S
C892   H915    1.110   .     S
C892   H914    1.111   .     S
C892   N928    1.445   .     S
C892   H913    1.110   .     S
C893   C895    1.385   .     A
C893   H917    1.075   .     S
C894   H901    1.085   .     S
C895   H912    1.085   .     S
C895   C240    1.389   1_556 S
C896   H922    1.083   .     S
C897   H923    1.083   .     S
C897   C1082   1.384   .     S
C898   H924    1.083   .     S
C898   C939    1.401   .     S
C898   C1112   1.384   .     S
Cu899  O936    1.937   .     S
Cu899  N925    2.013   .     S
Cu899  O929    1.965   .     S
Cu899  O933    1.953   .     S
Cu899  O932    1.965   .     S
Cu899  Cu1044  2.678   1_455 S
Cu900  O935    1.937   .     S
Cu900  O931    1.965   .     S
Cu900  N926    2.013   .     S
Cu900  O930    1.965   .     S
Cu900  O934    1.953   .     S
Cu900  Cu971   2.678   .     S
H907   N927    1.032   .     S
H911   N928    1.032   .     S
N927   C953    1.422   .     S
N928   C1024   1.422   1_455 S
O929   C1009   1.291   1_455 S
O930   C948    1.291   .     S
O933   C1017   1.295   1_455 S
O934   C946    1.295   .     S
C937   C940    1.450   .     S
C937   O1003   1.291   .     A
C937   O1073   1.291   .     S
C938   H974    1.083   .     S
C939   C969    1.401   .     A
C939   C948    1.450   .     S
C940   C968    1.401   .     A
C940   C1010   1.401   .     S
C941   N998    1.367   .     A
C941   H975    1.082   .     S
C941   C943    1.416   .     A
C942   N997    1.367   .     A
C942   H976    1.082   .     S
C942   C944    1.416   .     A
C943   H977    1.081   .     S
C943   N997    1.367   .     A
C944   H978    1.081   .     S
C944   N998    1.367   .     A
C945   C947    1.472   .     S
C945   O1007   1.297   .     A
C945   O1077   1.295   .     S
C946   C949    1.472   .     S
C946   O1008   1.297   .     A
C947   C954    1.399   .     A
C947   C952    1.409   .     A
C948   O1004   1.291   .     A
C949   C953    1.409   .     A
C949   C955    1.399   .     A
C950   H992    1.085   .     S
C950   C958    1.401   .     A
C950   C952    1.397   .     A
C951   C953    1.397   .     A
C951   H993    1.085   .     S
C951   C960    1.401   .     A
C952   N1072   1.422   .     S
C954   H991    1.075   .     S
C954   C956    1.408   .     A
C955   H990    1.075   .     S
C955   C957    1.408   .     A
C956   C961    1.429   .     A
C956   C958    1.417   .     A
C957   C962    1.429   .     A
C957   C960    1.417   .     A
C958   C318    1.389   1_556 S
C959   H988    1.075   .     S
C959   C966    1.385   .     A
C959   C962    1.416   .     A
C961   C965    1.416   .     A
C961   C314    1.428   1_556 S
C963   H982    1.111   .     S
C963   H981    1.110   .     S
C963   N999    1.445   .     S
C963   H980    1.110   .     S
C964   H987    1.110   .     S
C964   H986    1.111   .     S
C964   N1000   1.445   .     S
C964   H985    1.110   .     S
C965   C967    1.385   .     A
C965   H989    1.075   .     S
C966   H973    1.085   .     S
C967   H984    1.085   .     S
C967   C312    1.389   1_556 S
C968   H994    1.083   .     S
C969   H995    1.083   .     S
C969   C1154   1.384   .     S
C970   H996    1.083   .     S
C970   C1011   1.401   .     S
C970   C1184   1.384   .     S
Cu971  O1008   1.937   .     S
Cu971  N997    2.013   .     S
Cu971  O1001   1.965   .     S
Cu971  O1005   1.953   .     S
Cu971  O1004   1.965   .     S
Cu972  O1007   1.937   .     S
Cu972  O1003   1.965   .     S
Cu972  N998    2.013   .     S
Cu972  O1002   1.965   .     S
Cu972  O1006   1.953   .     S
Cu972  Cu1043  2.678   .     S
H979   N999    1.032   .     S
H983   N1000   1.032   .     S
N999   C1025   1.422   .     S
O1002  C1020   1.291   .     S
O1006  C1018   1.295   .     S
C1009  C1012   1.450   .     S
C1009  O1075   1.291   .     A
C1009  O929    1.291   1_655 S
C1010  H1046   1.083   .     S
C1011  C1041   1.401   .     A
C1011  C1020   1.450   .     S
C1012  C1040   1.401   .     A
C1012  C866    1.401   1_655 S
C1013  N1070   1.367   .     A
C1013  H1047   1.082   .     S
C1013  C1015   1.416   .     A
C1014  N1069   1.367   .     A
C1014  H1048   1.082   .     S
C1014  C1016   1.416   .     A
C1015  H1049   1.081   .     S
C1015  N1069   1.367   .     A
C1016  H1050   1.081   .     S
C1016  N1070   1.367   .     A
C1017  C1019   1.472   .     S
C1017  O1079   1.297   .     A
C1017  O933    1.295   1_655 S
C1018  C1021   1.472   .     S
C1018  O1080   1.297   .     A
C1019  C1026   1.399   .     A
C1019  C1024   1.409   .     A
C1020  O1076   1.291   .     A
C1021  C1025   1.409   .     A
C1021  C1027   1.399   .     A
C1022  H1064   1.085   .     S
C1022  C1030   1.401   .     A
C1022  C1024   1.397   .     A
C1023  C1025   1.397   .     A
C1023  H1065   1.085   .     S
C1023  C1032   1.401   .     A
C1024  N928    1.422   1_655 S
C1026  H1063   1.075   .     S
C1026  C1028   1.408   .     A
C1027  H1062   1.075   .     S
C1027  C1029   1.408   .     A
C1028  C1033   1.429   .     A
C1028  C1030   1.417   .     A
C1029  C1034   1.429   .     A
C1029  C1032   1.417   .     A
C1030  C390    1.389   1_556 S
C1031  H1060   1.075   .     S
C1031  C1038   1.385   .     A
C1031  C1034   1.416   .     A
C1033  C1037   1.416   .     A
C1033  C386    1.428   1_556 S
C1035  H1054   1.111   .     S
C1035  H1053   1.110   .     S
C1035  N1071   1.445   .     S
C1035  H1052   1.110   .     S
C1036  H1059   1.110   .     S
C1036  H1058   1.111   .     S
C1036  N1072   1.445   .     S
C1036  H1057   1.110   .     S
C1037  C1039   1.385   .     A
C1037  H1061   1.075   .     S
C1038  H1045   1.085   .     S
C1039  H1056   1.085   .     S
C1039  C384    1.389   1_556 S
C1040  H1066   1.083   .     S
C1041  H1067   1.083   .     S
C1041  C1226   1.384   .     S
C1042  H1068   1.083   .     S
C1042  C867    1.401   1_655 S
C1042  C1256   1.384   .     S
Cu1043 O1080   1.937   .     S
Cu1043 N1069   2.013   .     S
Cu1043 O1073   1.965   .     S
Cu1043 O1077   1.953   .     S
Cu1043 O1076   1.965   .     S
Cu1044 O1079   1.937   .     S
Cu1044 O1075   1.965   .     S
Cu1044 N1070   2.013   .     S
Cu1044 O1074   1.965   .     S
Cu1044 O1078   1.953   .     S
Cu1044 Cu899   2.678   1_655 S
H1051  N1071   1.032   .     S
H1055  N1072   1.032   .     S
N1071  C881    1.422   1_655 S
O1074  C876    1.291   1_655 S
O1078  C874    1.295   1_655 S
C1081  C1084   1.450   .     S
C1081  O1147   1.291   .     A
C1081  O1217   1.291   .     S
C1082  H1118   1.083   .     S
C1082  C1228   1.401   1_455 S
C1083  C1113   1.401   .     A
C1083  C1092   1.450   .     S
C1083  C1258   1.401   1_455 S
C1084  C1112   1.401   .     A
C1084  C1154   1.401   .     S
C1085  N1142   1.367   .     A
C1085  H1119   1.082   .     S
C1085  C1087   1.416   .     A
C1086  N1141   1.367   .     A
C1086  H1120   1.082   .     S
C1086  C1088   1.416   .     A
C1087  H1121   1.081   .     S
C1087  N1141   1.367   .     A
C1088  H1122   1.081   .     S
C1088  N1142   1.367   .     A
C1089  C1091   1.472   .     S
C1089  O1151   1.297   .     A
C1089  O1221   1.295   .     S
C1090  C1093   1.472   .     S
C1090  O1152   1.297   .     A
C1090  O1294   1.295   1_455 S
C1091  C1098   1.399   .     A
C1091  C1096   1.409   .     A
C1092  O1148   1.291   .     A
C1092  O1290   1.291   1_455 S
C1093  C1097   1.409   .     A
C1093  C1099   1.399   .     A
C1094  H1136   1.085   .     S
C1094  C1102   1.401   .     A
C1094  C1096   1.397   .     A
C1095  C1097   1.397   .     A
C1095  H1137   1.085   .     S
C1095  C1104   1.401   .     A
C1096  N1216   1.422   .     S
C1097  N1287   1.422   1_455 S
C1098  H1135   1.075   .     S
C1098  C1100   1.408   .     A
C1099  H1134   1.075   .     S
C1099  C1101   1.408   .     A
C1100  C1105   1.429   .     A
C1100  C1102   1.417   .     A
C1101  C1106   1.429   .     A
C1101  C1104   1.417   .     A
C1102  C462    1.389   1_556 S
C1103  H1132   1.075   .     S
C1103  C1110   1.385   .     A
C1103  C1106   1.416   .     A
C1105  C1109   1.416   .     A
C1105  C458    1.428   1_556 S
C1107  H1126   1.111   .     S
C1107  H1125   1.110   .     S
C1107  N1143   1.445   .     S
C1107  H1124   1.110   .     S
C1108  H1131   1.110   .     S
C1108  H1130   1.111   .     S
C1108  N1144   1.445   .     S
C1108  H1129   1.110   .     S
C1109  C1111   1.385   .     A
C1109  H1133   1.075   .     S
C1110  H1117   1.085   .     S
C1111  H1128   1.085   .     S
C1111  C456    1.389   1_556 S
C1112  H1138   1.083   .     S
C1113  H1139   1.083   .     S
C1113  C650    1.384   1_565 S
C1114  H1140   1.083   .     S
C1114  C1155   1.401   .     S
C1114  C680    1.384   1_565 S
Cu1115 O1152   1.937   .     S
Cu1115 N1141   2.013   .     S
Cu1115 O1145   1.965   .     S
Cu1115 O1149   1.953   .     S
Cu1115 O1148   1.965   .     S
Cu1115 Cu1260  2.678   1_455 S
Cu1116 O1151   1.937   .     S
Cu1116 O1147   1.965   .     S
Cu1116 N1142   2.013   .     S
Cu1116 O1146   1.965   .     S
Cu1116 O1150   1.953   .     S
Cu1116 Cu1187  2.678   .     S
H1123  N1143   1.032   .     S
H1127  N1144   1.032   .     S
N1143  C1169   1.422   .     S
N1144  C1240   1.422   1_455 S
O1145  C1225   1.291   1_455 S
O1146  C1164   1.291   .     S
O1149  C1233   1.295   1_455 S
O1150  C1162   1.295   .     S
C1153  C1156   1.450   .     S
C1153  O1219   1.291   .     A
C1153  O1289   1.291   .     S
C1154  H1190   1.083   .     S
C1155  C1185   1.401   .     A
C1155  C1164   1.450   .     S
C1156  C1184   1.401   .     A
C1156  C1226   1.401   .     S
C1157  N1214   1.367   .     A
C1157  H1191   1.082   .     S
C1157  C1159   1.416   .     A
C1158  N1213   1.367   .     A
C1158  H1192   1.082   .     S
C1158  C1160   1.416   .     A
C1159  H1193   1.081   .     S
C1159  N1213   1.367   .     A
C1160  H1194   1.081   .     S
C1160  N1214   1.367   .     A
C1161  C1163   1.472   .     S
C1161  O1223   1.297   .     A
C1161  O1293   1.295   .     S
C1162  C1165   1.472   .     S
C1162  O1224   1.297   .     A
C1163  C1170   1.399   .     A
C1163  C1168   1.409   .     A
C1164  O1220   1.291   .     A
C1165  C1169   1.409   .     A
C1165  C1171   1.399   .     A
C1166  H1208   1.085   .     S
C1166  C1174   1.401   .     A
C1166  C1168   1.397   .     A
C1167  C1169   1.397   .     A
C1167  H1209   1.085   .     S
C1167  C1176   1.401   .     A
C1168  N1288   1.422   .     S
C1170  H1207   1.075   .     S
C1170  C1172   1.408   .     A
C1171  H1206   1.075   .     S
C1171  C1173   1.408   .     A
C1172  C1177   1.429   .     A
C1172  C1174   1.417   .     A
C1173  C1178   1.429   .     A
C1173  C1176   1.417   .     A
C1174  C534    1.389   1_556 S
C1175  H1204   1.075   .     S
C1175  C1182   1.385   .     A
C1175  C1178   1.416   .     A
C1177  C1181   1.416   .     A
C1177  C530    1.428   1_556 S
C1179  H1198   1.111   .     S
C1179  H1197   1.110   .     S
C1179  N1215   1.445   .     S
C1179  H1196   1.110   .     S
C1180  H1203   1.110   .     S
C1180  H1202   1.111   .     S
C1180  N1216   1.445   .     S
C1180  H1201   1.110   .     S
C1181  C1183   1.385   .     A
C1181  H1205   1.075   .     S
C1182  H1189   1.085   .     S
C1183  H1200   1.085   .     S
C1183  C528    1.389   1_556 S
C1184  H1210   1.083   .     S
C1185  H1211   1.083   .     S
C1185  C722    1.384   1_565 S
C1186  H1212   1.083   .     S
C1186  C1227   1.401   .     S
C1186  C752    1.384   1_565 S
Cu1187 O1224   1.937   .     S
Cu1187 N1213   2.013   .     S
Cu1187 O1217   1.965   .     S
Cu1187 O1221   1.953   .     S
Cu1187 O1220   1.965   .     S
Cu1188 O1223   1.937   .     S
Cu1188 O1219   1.965   .     S
Cu1188 N1214   2.013   .     S
Cu1188 O1218   1.965   .     S
Cu1188 O1222   1.953   .     S
Cu1188 Cu1259  2.678   .     S
H1195  N1215   1.032   .     S
H1199  N1216   1.032   .     S
N1215  C1241   1.422   .     S
O1218  C1236   1.291   .     S
O1222  C1234   1.295   .     S
C1225  C1228   1.450   .     S
C1225  O1291   1.291   .     A
C1225  O1145   1.291   1_655 S
C1226  H1262   1.083   .     S
C1227  C1257   1.401   .     A
C1227  C1236   1.450   .     S
C1228  C1256   1.401   .     A
C1228  C1082   1.401   1_655 S
C1229  N1286   1.367   .     A
C1229  H1263   1.082   .     S
C1229  C1231   1.416   .     A
C1230  N1285   1.367   .     A
C1230  H1264   1.082   .     S
C1230  C1232   1.416   .     A
C1231  H1265   1.081   .     S
C1231  N1285   1.367   .     A
C1232  H1266   1.081   .     S
C1232  N1286   1.367   .     A
C1233  C1235   1.472   .     S
C1233  O1295   1.297   .     A
C1233  O1149   1.295   1_655 S
C1234  C1237   1.472   .     S
C1234  O1296   1.297   .     A
C1235  C1242   1.399   .     A
C1235  C1240   1.409   .     A
C1236  O1292   1.291   .     A
C1237  C1241   1.409   .     A
C1237  C1243   1.399   .     A
C1238  H1280   1.085   .     S
C1238  C1246   1.401   .     A
C1238  C1240   1.397   .     A
C1239  C1241   1.397   .     A
C1239  H1281   1.085   .     S
C1239  C1248   1.401   .     A
C1240  N1144   1.422   1_655 S
C1242  H1279   1.075   .     S
C1242  C1244   1.408   .     A
C1243  H1278   1.075   .     S
C1243  C1245   1.408   .     A
C1244  C1249   1.429   .     A
C1244  C1246   1.417   .     A
C1245  C1250   1.429   .     A
C1245  C1248   1.417   .     A
C1246  C606    1.389   1_556 S
C1247  H1276   1.075   .     S
C1247  C1254   1.385   .     A
C1247  C1250   1.416   .     A
C1249  C1253   1.416   .     A
C1249  C602    1.428   1_556 S
C1251  H1270   1.111   .     S
C1251  H1269   1.110   .     S
C1251  N1287   1.445   .     S
C1251  H1268   1.110   .     S
C1252  H1275   1.110   .     S
C1252  H1274   1.111   .     S
C1252  N1288   1.445   .     S
C1252  H1273   1.110   .     S
C1253  C1255   1.385   .     A
C1253  H1277   1.075   .     S
C1254  H1261   1.085   .     S
C1255  H1272   1.085   .     S
C1255  C600    1.389   1_556 S
C1256  H1282   1.083   .     S
C1257  H1283   1.083   .     S
C1257  C794    1.384   1_565 S
C1258  H1284   1.083   .     S
C1258  C1083   1.401   1_655 S
C1258  C824    1.384   1_565 S
Cu1259 O1296   1.937   .     S
Cu1259 N1285   2.013   .     S
Cu1259 O1289   1.965   .     S
Cu1259 O1293   1.953   .     S
Cu1259 O1292   1.965   .     S
Cu1260 O1295   1.937   .     S
Cu1260 O1291   1.965   .     S
Cu1260 N1286   2.013   .     S
Cu1260 O1290   1.965   .     S
Cu1260 O1294   1.953   .     S
Cu1260 Cu1115  2.678   1_655 S
H1267  N1287   1.032   .     S
H1271  N1288   1.032   .     S
N1287  C1097   1.422   1_655 S
O1290  C1092   1.291   1_655 S
O1294  C1090   1.295   1_655 S
