data_str_m2_o2_o5_pcu_sym.23
_audit_creation_date              2020-01-03
_audit_creation_method            'Materials Studio'
_symmetry_space_group_name_H-M    'P1'
_symmetry_Int_Tables_number       1
_symmetry_cell_setting            triclinic
loop_
_symmetry_equiv_pos_as_xyz
  x,y,z
_cell_length_a                    30.2046
_cell_length_b                    27.7498
_cell_length_c                    27.2352
_cell_angle_alpha                 89.9997
_cell_angle_beta                  90.1361
_cell_angle_gamma                 90.0000
loop_
_atom_site_label
_atom_site_type_symbol
_atom_site_fract_x
_atom_site_fract_y
_atom_site_fract_z
_atom_site_U_iso_or_equiv
_atom_site_adp_type
_atom_site_occupancy
O1     O     0.18573   0.29071   0.16667   0.00000  Uiso   1.00
O2     O     0.31427   0.20929   0.16666   0.00000  Uiso   1.00
O3     O     0.31427   0.29071   0.16666   0.00000  Uiso   1.00
O4     O     0.18573   0.20928   0.16667   0.00000  Uiso   1.00
C5     C     0.16500   0.25000   0.16666   0.00000  Uiso   1.00
C6     C     0.33500   0.25000   0.16667   0.00000  Uiso   1.00
O7     O     0.25000   0.29071   0.09613   0.00000  Uiso   1.00
O8     O     0.25000   0.20929   0.23720   0.00000  Uiso   1.00
O9     O     0.25000   0.29071   0.23720   0.00000  Uiso   1.00
O10    O     0.25000   0.20929   0.09613   0.00000  Uiso   1.00
C11    C     0.27180   0.05399   0.20367   0.00000  Uiso   1.00
C12    C     0.21536   0.44605   0.14482   0.00000  Uiso   1.00
C13    C     0.22820   0.05399   0.12966   0.00000  Uiso   1.00
C14    C     0.28464   0.44605   0.18851   0.00000  Uiso   1.00
C15    C     0.24997   0.25000   0.07352   0.00000  Uiso   1.00
C16    C     0.25003   0.25000   0.25982   0.00000  Uiso   1.00
Cu17   Cu    0.25000   0.29821   0.16667   0.00000  Uiso   1.00
Cu18   Cu    0.25000   0.20179   0.16667   0.00000  Uiso   1.00
H19    H     0.28889   0.12435   0.23132   0.00000  Uiso   1.00
H20    H     0.18942   0.37577   0.12756   0.00000  Uiso   1.00
H21    H     0.21110   0.12435   0.10202   0.00000  Uiso   1.00
H22    H     0.31058   0.37577   0.20577   0.00000  Uiso   1.00
N23    N     0.25000   0.12935   0.16667   0.00000  Uiso   1.00
N24    N     0.25000   0.37065   0.16667   0.00000  Uiso   1.00
C25    C     0.25000   0.02737   0.16667   0.00000  Uiso   1.00
C26    C     0.25000   0.47268   0.16667   0.00000  Uiso   1.00
C27    C     0.24999   0.24999   0.02184   0.00000  Uiso   1.00
C28    C     0.25001   0.24999   0.31150   0.00000  Uiso   1.00
C29    C     0.04712   0.27346   0.20407   0.00000  Uiso   1.00
C30    C     0.45301   0.22630   0.20407   0.00000  Uiso   1.00
C31    C     0.45288   0.27350   0.12928   0.00000  Uiso   1.00
C32    C     0.04699   0.22634   0.12925   0.00000  Uiso   1.00
H33    H     0.02888   0.29123   0.23314   0.00000  Uiso   1.00
H34    H     0.47135   0.20848   0.23311   0.00000  Uiso   1.00
H35    H     0.47112   0.29129   0.10024   0.00000  Uiso   1.00
H36    H     0.02865   0.20854   0.10019   0.00000  Uiso   1.00
C37    C     0.09335   0.27368   0.20472   0.00000  Uiso   1.00
C38    C     0.40678   0.22618   0.20473   0.00000  Uiso   1.00
C39    C     0.40665   0.27372   0.12863   0.00000  Uiso   1.00
C40    C     0.09322   0.22622   0.12858   0.00000  Uiso   1.00
C41    C     0.11666   0.24998   0.16664   0.00000  Uiso   1.00
C42    C     0.38334   0.24998   0.16669   0.00000  Uiso   1.00
C43    C     0.02413   0.24988   0.16667   0.00000  Uiso   1.00
C44    C     0.47587   0.24988   0.16667   0.00000  Uiso   1.00
C45    C     0.27167   0.10471   0.20278   0.00000  Uiso   1.00
C46    C     0.21618   0.39533   0.14491   0.00000  Uiso   1.00
C47    C     0.22833   0.10471   0.13056   0.00000  Uiso   1.00
C48    C     0.28382   0.39533   0.18843   0.00000  Uiso   1.00
H49    H     0.28847   0.03605   0.23372   0.00000  Uiso   1.00
H50    H     0.18729   0.46399   0.12822   0.00000  Uiso   1.00
H51    H     0.21153   0.03605   0.09961   0.00000  Uiso   1.00
H52    H     0.31270   0.46399   0.20511   0.00000  Uiso   1.00
N53    N     0.11588   0.29677   0.24492   0.00000  Uiso   1.00
O54    O     0.14930   0.27577   0.26620   0.00000  Uiso   1.00
O55    O     0.09904   0.33511   0.26509   0.00000  Uiso   1.00
N56    N     0.38437   0.20304   0.24488   0.00000  Uiso   1.00
O57    O     0.35096   0.22394   0.26609   0.00000  Uiso   1.00
O58    O     0.40126   0.16464   0.26498   0.00000  Uiso   1.00
N59    N     0.38412   0.29683   0.08844   0.00000  Uiso   1.00
O60    O     0.35070   0.27585   0.06716   0.00000  Uiso   1.00
O61    O     0.40098   0.33517   0.06829   0.00000  Uiso   1.00
N62    N     0.11563   0.20312   0.08841   0.00000  Uiso   1.00
O63    O     0.14905   0.22404   0.06722   0.00000  Uiso   1.00
O64    O     0.09873   0.16476   0.06825   0.00000  Uiso   1.00
O65    O     0.68573   0.29071   0.16667   0.00000  Uiso   1.00
O66    O     0.81427   0.20929   0.16666   0.00000  Uiso   1.00
O67    O     0.81427   0.29071   0.16666   0.00000  Uiso   1.00
O68    O     0.68573   0.20928   0.16667   0.00000  Uiso   1.00
C69    C     0.66500   0.25000   0.16666   0.00000  Uiso   1.00
C70    C     0.83500   0.25000   0.16667   0.00000  Uiso   1.00
O71    O     0.75000   0.29071   0.09613   0.00000  Uiso   1.00
O72    O     0.75000   0.20929   0.23720   0.00000  Uiso   1.00
O73    O     0.75000   0.29071   0.23720   0.00000  Uiso   1.00
O74    O     0.75000   0.20929   0.09613   0.00000  Uiso   1.00
C75    C     0.77180   0.05399   0.20367   0.00000  Uiso   1.00
C76    C     0.71536   0.44605   0.14482   0.00000  Uiso   1.00
C77    C     0.72820   0.05399   0.12966   0.00000  Uiso   1.00
C78    C     0.78464   0.44605   0.18851   0.00000  Uiso   1.00
C79    C     0.74997   0.25000   0.07352   0.00000  Uiso   1.00
C80    C     0.75003   0.25000   0.25982   0.00000  Uiso   1.00
Cu81   Cu    0.75000   0.29821   0.16667   0.00000  Uiso   1.00
Cu82   Cu    0.75000   0.20179   0.16667   0.00000  Uiso   1.00
H83    H     0.78889   0.12435   0.23132   0.00000  Uiso   1.00
H84    H     0.68942   0.37577   0.12756   0.00000  Uiso   1.00
H85    H     0.71110   0.12435   0.10202   0.00000  Uiso   1.00
H86    H     0.81058   0.37577   0.20577   0.00000  Uiso   1.00
N87    N     0.75000   0.12935   0.16667   0.00000  Uiso   1.00
N88    N     0.75000   0.37065   0.16667   0.00000  Uiso   1.00
C89    C     0.75000   0.02737   0.16667   0.00000  Uiso   1.00
C90    C     0.75000   0.47268   0.16667   0.00000  Uiso   1.00
C91    C     0.74999   0.24999   0.02184   0.00000  Uiso   1.00
C92    C     0.75001   0.24999   0.31150   0.00000  Uiso   1.00
C93    C     0.54712   0.27346   0.20407   0.00000  Uiso   1.00
C94    C     0.95301   0.22630   0.20407   0.00000  Uiso   1.00
C95    C     0.95288   0.27350   0.12928   0.00000  Uiso   1.00
C96    C     0.54699   0.22634   0.12925   0.00000  Uiso   1.00
H97    H     0.52888   0.29123   0.23314   0.00000  Uiso   1.00
H98    H     0.97135   0.20848   0.23311   0.00000  Uiso   1.00
H99    H     0.97112   0.29129   0.10024   0.00000  Uiso   1.00
H100   H     0.52865   0.20854   0.10019   0.00000  Uiso   1.00
C101   C     0.59335   0.27368   0.20472   0.00000  Uiso   1.00
C102   C     0.90678   0.22618   0.20473   0.00000  Uiso   1.00
C103   C     0.90665   0.27372   0.12863   0.00000  Uiso   1.00
C104   C     0.59322   0.22622   0.12858   0.00000  Uiso   1.00
C105   C     0.61666   0.24998   0.16664   0.00000  Uiso   1.00
C106   C     0.88334   0.24998   0.16669   0.00000  Uiso   1.00
C107   C     0.52413   0.24988   0.16667   0.00000  Uiso   1.00
C108   C     0.97587   0.24988   0.16667   0.00000  Uiso   1.00
C109   C     0.77167   0.10471   0.20278   0.00000  Uiso   1.00
C110   C     0.71618   0.39533   0.14491   0.00000  Uiso   1.00
C111   C     0.72833   0.10471   0.13056   0.00000  Uiso   1.00
C112   C     0.78382   0.39533   0.18843   0.00000  Uiso   1.00
H113   H     0.78847   0.03605   0.23372   0.00000  Uiso   1.00
H114   H     0.68729   0.46399   0.12822   0.00000  Uiso   1.00
H115   H     0.71153   0.03605   0.09961   0.00000  Uiso   1.00
H116   H     0.81270   0.46399   0.20511   0.00000  Uiso   1.00
N117   N     0.61588   0.29677   0.24492   0.00000  Uiso   1.00
O118   O     0.64930   0.27577   0.26620   0.00000  Uiso   1.00
O119   O     0.59904   0.33511   0.26509   0.00000  Uiso   1.00
N120   N     0.88437   0.20304   0.24488   0.00000  Uiso   1.00
O121   O     0.85096   0.22394   0.26609   0.00000  Uiso   1.00
O122   O     0.90126   0.16464   0.26498   0.00000  Uiso   1.00
N123   N     0.88412   0.29683   0.08844   0.00000  Uiso   1.00
O124   O     0.85070   0.27585   0.06716   0.00000  Uiso   1.00
O125   O     0.90098   0.33517   0.06829   0.00000  Uiso   1.00
N126   N     0.61563   0.20312   0.08841   0.00000  Uiso   1.00
O127   O     0.64905   0.22404   0.06722   0.00000  Uiso   1.00
O128   O     0.59873   0.16476   0.06825   0.00000  Uiso   1.00
O129   O     0.18573   0.79071   0.16667   0.00000  Uiso   1.00
O130   O     0.31427   0.70929   0.16666   0.00000  Uiso   1.00
O131   O     0.31427   0.79071   0.16666   0.00000  Uiso   1.00
O132   O     0.18573   0.70928   0.16667   0.00000  Uiso   1.00
C133   C     0.16500   0.75000   0.16666   0.00000  Uiso   1.00
C134   C     0.33500   0.75000   0.16667   0.00000  Uiso   1.00
O135   O     0.25000   0.79071   0.09613   0.00000  Uiso   1.00
O136   O     0.25000   0.70929   0.23720   0.00000  Uiso   1.00
O137   O     0.25000   0.79071   0.23720   0.00000  Uiso   1.00
O138   O     0.25000   0.70929   0.09613   0.00000  Uiso   1.00
C139   C     0.27180   0.55399   0.20367   0.00000  Uiso   1.00
C140   C     0.21536   0.94605   0.14482   0.00000  Uiso   1.00
C141   C     0.22820   0.55399   0.12966   0.00000  Uiso   1.00
C142   C     0.28464   0.94605   0.18851   0.00000  Uiso   1.00
C143   C     0.24997   0.75000   0.07352   0.00000  Uiso   1.00
C144   C     0.25003   0.75000   0.25982   0.00000  Uiso   1.00
Cu145  Cu    0.25000   0.79821   0.16667   0.00000  Uiso   1.00
Cu146  Cu    0.25000   0.70179   0.16667   0.00000  Uiso   1.00
H147   H     0.28889   0.62435   0.23132   0.00000  Uiso   1.00
H148   H     0.18942   0.87577   0.12756   0.00000  Uiso   1.00
H149   H     0.21110   0.62435   0.10202   0.00000  Uiso   1.00
H150   H     0.31058   0.87577   0.20577   0.00000  Uiso   1.00
N151   N     0.25000   0.62935   0.16667   0.00000  Uiso   1.00
N152   N     0.25000   0.87065   0.16667   0.00000  Uiso   1.00
C153   C     0.25000   0.52737   0.16667   0.00000  Uiso   1.00
C154   C     0.25000   0.97268   0.16667   0.00000  Uiso   1.00
C155   C     0.24999   0.74999   0.02184   0.00000  Uiso   1.00
C156   C     0.25001   0.74999   0.31150   0.00000  Uiso   1.00
C157   C     0.04712   0.77346   0.20407   0.00000  Uiso   1.00
C158   C     0.45301   0.72630   0.20407   0.00000  Uiso   1.00
C159   C     0.45288   0.77350   0.12928   0.00000  Uiso   1.00
C160   C     0.04699   0.72634   0.12925   0.00000  Uiso   1.00
H161   H     0.02888   0.79123   0.23314   0.00000  Uiso   1.00
H162   H     0.47135   0.70848   0.23311   0.00000  Uiso   1.00
H163   H     0.47112   0.79129   0.10024   0.00000  Uiso   1.00
H164   H     0.02865   0.70854   0.10019   0.00000  Uiso   1.00
C165   C     0.09335   0.77368   0.20472   0.00000  Uiso   1.00
C166   C     0.40678   0.72618   0.20473   0.00000  Uiso   1.00
C167   C     0.40665   0.77372   0.12863   0.00000  Uiso   1.00
C168   C     0.09322   0.72622   0.12858   0.00000  Uiso   1.00
C169   C     0.11666   0.74998   0.16664   0.00000  Uiso   1.00
C170   C     0.38334   0.74998   0.16669   0.00000  Uiso   1.00
C171   C     0.02413   0.74988   0.16667   0.00000  Uiso   1.00
C172   C     0.47587   0.74988   0.16667   0.00000  Uiso   1.00
C173   C     0.27167   0.60471   0.20278   0.00000  Uiso   1.00
C174   C     0.21618   0.89533   0.14491   0.00000  Uiso   1.00
C175   C     0.22833   0.60471   0.13056   0.00000  Uiso   1.00
C176   C     0.28382   0.89533   0.18843   0.00000  Uiso   1.00
H177   H     0.28847   0.53605   0.23372   0.00000  Uiso   1.00
H178   H     0.18729   0.96399   0.12822   0.00000  Uiso   1.00
H179   H     0.21153   0.53605   0.09961   0.00000  Uiso   1.00
H180   H     0.31270   0.96399   0.20511   0.00000  Uiso   1.00
N181   N     0.11588   0.79677   0.24492   0.00000  Uiso   1.00
O182   O     0.14930   0.77577   0.26620   0.00000  Uiso   1.00
O183   O     0.09904   0.83511   0.26509   0.00000  Uiso   1.00
N184   N     0.38437   0.70304   0.24488   0.00000  Uiso   1.00
O185   O     0.35096   0.72394   0.26609   0.00000  Uiso   1.00
O186   O     0.40126   0.66464   0.26498   0.00000  Uiso   1.00
N187   N     0.38412   0.79683   0.08844   0.00000  Uiso   1.00
O188   O     0.35070   0.77585   0.06716   0.00000  Uiso   1.00
O189   O     0.40098   0.83517   0.06829   0.00000  Uiso   1.00
N190   N     0.11563   0.70312   0.08841   0.00000  Uiso   1.00
O191   O     0.14905   0.72404   0.06722   0.00000  Uiso   1.00
O192   O     0.09873   0.66476   0.06825   0.00000  Uiso   1.00
O193   O     0.68573   0.79071   0.16667   0.00000  Uiso   1.00
O194   O     0.81427   0.70929   0.16666   0.00000  Uiso   1.00
O195   O     0.81427   0.79071   0.16666   0.00000  Uiso   1.00
O196   O     0.68573   0.70928   0.16667   0.00000  Uiso   1.00
C197   C     0.66500   0.75000   0.16666   0.00000  Uiso   1.00
C198   C     0.83500   0.75000   0.16667   0.00000  Uiso   1.00
O199   O     0.75000   0.79071   0.09613   0.00000  Uiso   1.00
O200   O     0.75000   0.70929   0.23720   0.00000  Uiso   1.00
O201   O     0.75000   0.79071   0.23720   0.00000  Uiso   1.00
O202   O     0.75000   0.70929   0.09613   0.00000  Uiso   1.00
C203   C     0.77180   0.55399   0.20367   0.00000  Uiso   1.00
C204   C     0.71536   0.94605   0.14482   0.00000  Uiso   1.00
C205   C     0.72820   0.55399   0.12966   0.00000  Uiso   1.00
C206   C     0.78464   0.94605   0.18851   0.00000  Uiso   1.00
C207   C     0.74997   0.75000   0.07352   0.00000  Uiso   1.00
C208   C     0.75003   0.75000   0.25982   0.00000  Uiso   1.00
Cu209  Cu    0.75000   0.79821   0.16667   0.00000  Uiso   1.00
Cu210  Cu    0.75000   0.70179   0.16667   0.00000  Uiso   1.00
H211   H     0.78889   0.62435   0.23132   0.00000  Uiso   1.00
H212   H     0.68942   0.87577   0.12756   0.00000  Uiso   1.00
H213   H     0.71110   0.62435   0.10202   0.00000  Uiso   1.00
H214   H     0.81058   0.87577   0.20577   0.00000  Uiso   1.00
N215   N     0.75000   0.62935   0.16667   0.00000  Uiso   1.00
N216   N     0.75000   0.87065   0.16667   0.00000  Uiso   1.00
C217   C     0.75000   0.52737   0.16667   0.00000  Uiso   1.00
C218   C     0.75000   0.97268   0.16667   0.00000  Uiso   1.00
C219   C     0.74999   0.74999   0.02184   0.00000  Uiso   1.00
C220   C     0.75001   0.74999   0.31150   0.00000  Uiso   1.00
C221   C     0.54712   0.77346   0.20407   0.00000  Uiso   1.00
C222   C     0.95301   0.72630   0.20407   0.00000  Uiso   1.00
C223   C     0.95288   0.77350   0.12928   0.00000  Uiso   1.00
C224   C     0.54699   0.72634   0.12925   0.00000  Uiso   1.00
H225   H     0.52888   0.79123   0.23314   0.00000  Uiso   1.00
H226   H     0.97135   0.70848   0.23311   0.00000  Uiso   1.00
H227   H     0.97112   0.79129   0.10024   0.00000  Uiso   1.00
H228   H     0.52865   0.70854   0.10019   0.00000  Uiso   1.00
C229   C     0.59335   0.77368   0.20472   0.00000  Uiso   1.00
C230   C     0.90678   0.72618   0.20473   0.00000  Uiso   1.00
C231   C     0.90665   0.77372   0.12863   0.00000  Uiso   1.00
C232   C     0.59322   0.72622   0.12858   0.00000  Uiso   1.00
C233   C     0.61666   0.74998   0.16664   0.00000  Uiso   1.00
C234   C     0.88334   0.74998   0.16669   0.00000  Uiso   1.00
C235   C     0.52413   0.74988   0.16667   0.00000  Uiso   1.00
C236   C     0.97587   0.74988   0.16667   0.00000  Uiso   1.00
C237   C     0.77167   0.60471   0.20278   0.00000  Uiso   1.00
C238   C     0.71618   0.89533   0.14491   0.00000  Uiso   1.00
C239   C     0.72833   0.60471   0.13056   0.00000  Uiso   1.00
C240   C     0.78382   0.89533   0.18843   0.00000  Uiso   1.00
H241   H     0.78847   0.53605   0.23372   0.00000  Uiso   1.00
H242   H     0.68729   0.96399   0.12822   0.00000  Uiso   1.00
H243   H     0.71153   0.53605   0.09961   0.00000  Uiso   1.00
H244   H     0.81270   0.96399   0.20511   0.00000  Uiso   1.00
N245   N     0.61588   0.79677   0.24492   0.00000  Uiso   1.00
O246   O     0.64930   0.77577   0.26620   0.00000  Uiso   1.00
O247   O     0.59904   0.83511   0.26509   0.00000  Uiso   1.00
N248   N     0.88437   0.70304   0.24488   0.00000  Uiso   1.00
O249   O     0.85096   0.72394   0.26609   0.00000  Uiso   1.00
O250   O     0.90126   0.66464   0.26498   0.00000  Uiso   1.00
N251   N     0.88412   0.79683   0.08844   0.00000  Uiso   1.00
O252   O     0.85070   0.77585   0.06716   0.00000  Uiso   1.00
O253   O     0.90098   0.83517   0.06829   0.00000  Uiso   1.00
N254   N     0.61563   0.70312   0.08841   0.00000  Uiso   1.00
O255   O     0.64905   0.72404   0.06722   0.00000  Uiso   1.00
O256   O     0.59873   0.66476   0.06825   0.00000  Uiso   1.00
O257   O     0.18573   0.29071   0.50000   0.00000  Uiso   1.00
O258   O     0.31427   0.20929   0.50000   0.00000  Uiso   1.00
O259   O     0.31427   0.29071   0.50000   0.00000  Uiso   1.00
O260   O     0.18573   0.20928   0.50000   0.00000  Uiso   1.00
C261   C     0.16500   0.25000   0.49999   0.00000  Uiso   1.00
C262   C     0.33500   0.25000   0.50001   0.00000  Uiso   1.00
O263   O     0.25000   0.29071   0.42946   0.00000  Uiso   1.00
O264   O     0.25000   0.20929   0.57054   0.00000  Uiso   1.00
O265   O     0.25000   0.29071   0.57054   0.00000  Uiso   1.00
O266   O     0.25000   0.20929   0.42946   0.00000  Uiso   1.00
C267   C     0.27180   0.05399   0.53701   0.00000  Uiso   1.00
C268   C     0.21536   0.44605   0.47816   0.00000  Uiso   1.00
C269   C     0.22820   0.05399   0.46299   0.00000  Uiso   1.00
C270   C     0.28464   0.44605   0.52184   0.00000  Uiso   1.00
C271   C     0.24997   0.25000   0.40685   0.00000  Uiso   1.00
C272   C     0.25003   0.25000   0.59315   0.00000  Uiso   1.00
Cu273  Cu    0.25000   0.29821   0.50000   0.00000  Uiso   1.00
Cu274  Cu    0.25000   0.20179   0.50000   0.00000  Uiso   1.00
H275   H     0.28889   0.12435   0.56465   0.00000  Uiso   1.00
H276   H     0.18942   0.37577   0.46090   0.00000  Uiso   1.00
H277   H     0.21110   0.12435   0.43535   0.00000  Uiso   1.00
H278   H     0.31058   0.37577   0.53910   0.00000  Uiso   1.00
N279   N     0.25000   0.12935   0.50000   0.00000  Uiso   1.00
N280   N     0.25000   0.37065   0.50000   0.00000  Uiso   1.00
C281   C     0.25000   0.02737   0.50000   0.00000  Uiso   1.00
C282   C     0.25000   0.47268   0.50000   0.00000  Uiso   1.00
C283   C     0.24999   0.24999   0.35517   0.00000  Uiso   1.00
C284   C     0.25001   0.24999   0.64483   0.00000  Uiso   1.00
C285   C     0.04712   0.27346   0.53741   0.00000  Uiso   1.00
C286   C     0.45301   0.22630   0.53740   0.00000  Uiso   1.00
C287   C     0.45288   0.27350   0.46262   0.00000  Uiso   1.00
C288   C     0.04699   0.22634   0.46258   0.00000  Uiso   1.00
H289   H     0.02888   0.29123   0.56647   0.00000  Uiso   1.00
H290   H     0.47135   0.20848   0.56644   0.00000  Uiso   1.00
H291   H     0.47112   0.29129   0.43357   0.00000  Uiso   1.00
H292   H     0.02865   0.20854   0.43352   0.00000  Uiso   1.00
C293   C     0.09335   0.27368   0.53805   0.00000  Uiso   1.00
C294   C     0.40678   0.22618   0.53806   0.00000  Uiso   1.00
C295   C     0.40665   0.27372   0.46197   0.00000  Uiso   1.00
C296   C     0.09322   0.22622   0.46191   0.00000  Uiso   1.00
C297   C     0.11666   0.24998   0.49998   0.00000  Uiso   1.00
C298   C     0.38334   0.24998   0.50002   0.00000  Uiso   1.00
C299   C     0.02413   0.24988   0.50000   0.00000  Uiso   1.00
C300   C     0.47587   0.24988   0.50000   0.00000  Uiso   1.00
C301   C     0.27167   0.10471   0.53611   0.00000  Uiso   1.00
C302   C     0.21618   0.39533   0.47824   0.00000  Uiso   1.00
C303   C     0.22833   0.10471   0.46389   0.00000  Uiso   1.00
C304   C     0.28382   0.39533   0.52176   0.00000  Uiso   1.00
H305   H     0.28847   0.03605   0.56706   0.00000  Uiso   1.00
H306   H     0.18729   0.46399   0.46156   0.00000  Uiso   1.00
H307   H     0.21153   0.03605   0.43294   0.00000  Uiso   1.00
H308   H     0.31270   0.46399   0.53844   0.00000  Uiso   1.00
N309   N     0.11588   0.29677   0.57825   0.00000  Uiso   1.00
O310   O     0.14930   0.27577   0.59954   0.00000  Uiso   1.00
O311   O     0.09904   0.33511   0.59842   0.00000  Uiso   1.00
N312   N     0.38437   0.20304   0.57821   0.00000  Uiso   1.00
O313   O     0.35096   0.22394   0.59942   0.00000  Uiso   1.00
O314   O     0.40126   0.16464   0.59831   0.00000  Uiso   1.00
N315   N     0.38412   0.29683   0.42178   0.00000  Uiso   1.00
O316   O     0.35070   0.27585   0.40049   0.00000  Uiso   1.00
O317   O     0.40098   0.33517   0.40162   0.00000  Uiso   1.00
N318   N     0.11563   0.20312   0.42174   0.00000  Uiso   1.00
O319   O     0.14905   0.22404   0.40056   0.00000  Uiso   1.00
O320   O     0.09873   0.16476   0.40159   0.00000  Uiso   1.00
O321   O     0.68573   0.29071   0.50000   0.00000  Uiso   1.00
O322   O     0.81427   0.20929   0.50000   0.00000  Uiso   1.00
O323   O     0.81427   0.29071   0.50000   0.00000  Uiso   1.00
O324   O     0.68573   0.20928   0.50000   0.00000  Uiso   1.00
C325   C     0.66500   0.25000   0.49999   0.00000  Uiso   1.00
C326   C     0.83500   0.25000   0.50001   0.00000  Uiso   1.00
O327   O     0.75000   0.29071   0.42946   0.00000  Uiso   1.00
O328   O     0.75000   0.20929   0.57054   0.00000  Uiso   1.00
O329   O     0.75000   0.29071   0.57054   0.00000  Uiso   1.00
O330   O     0.75000   0.20929   0.42946   0.00000  Uiso   1.00
C331   C     0.77180   0.05399   0.53701   0.00000  Uiso   1.00
C332   C     0.71536   0.44605   0.47816   0.00000  Uiso   1.00
C333   C     0.72820   0.05399   0.46299   0.00000  Uiso   1.00
C334   C     0.78464   0.44605   0.52184   0.00000  Uiso   1.00
C335   C     0.74997   0.25000   0.40685   0.00000  Uiso   1.00
C336   C     0.75003   0.25000   0.59315   0.00000  Uiso   1.00
Cu337  Cu    0.75000   0.29821   0.50000   0.00000  Uiso   1.00
Cu338  Cu    0.75000   0.20179   0.50000   0.00000  Uiso   1.00
H339   H     0.78889   0.12435   0.56465   0.00000  Uiso   1.00
H340   H     0.68942   0.37577   0.46090   0.00000  Uiso   1.00
H341   H     0.71110   0.12435   0.43535   0.00000  Uiso   1.00
H342   H     0.81058   0.37577   0.53910   0.00000  Uiso   1.00
N343   N     0.75000   0.12935   0.50000   0.00000  Uiso   1.00
N344   N     0.75000   0.37065   0.50000   0.00000  Uiso   1.00
C345   C     0.75000   0.02737   0.50000   0.00000  Uiso   1.00
C346   C     0.75000   0.47268   0.50000   0.00000  Uiso   1.00
C347   C     0.74999   0.24999   0.35517   0.00000  Uiso   1.00
C348   C     0.75001   0.24999   0.64483   0.00000  Uiso   1.00
C349   C     0.54712   0.27346   0.53741   0.00000  Uiso   1.00
C350   C     0.95301   0.22630   0.53740   0.00000  Uiso   1.00
C351   C     0.95288   0.27350   0.46262   0.00000  Uiso   1.00
C352   C     0.54699   0.22634   0.46258   0.00000  Uiso   1.00
H353   H     0.52888   0.29123   0.56647   0.00000  Uiso   1.00
H354   H     0.97135   0.20848   0.56644   0.00000  Uiso   1.00
H355   H     0.97112   0.29129   0.43357   0.00000  Uiso   1.00
H356   H     0.52865   0.20854   0.43352   0.00000  Uiso   1.00
C357   C     0.59335   0.27368   0.53805   0.00000  Uiso   1.00
C358   C     0.90678   0.22618   0.53806   0.00000  Uiso   1.00
C359   C     0.90665   0.27372   0.46197   0.00000  Uiso   1.00
C360   C     0.59322   0.22622   0.46191   0.00000  Uiso   1.00
C361   C     0.61666   0.24998   0.49998   0.00000  Uiso   1.00
C362   C     0.88334   0.24998   0.50002   0.00000  Uiso   1.00
C363   C     0.52413   0.24988   0.50000   0.00000  Uiso   1.00
C364   C     0.97587   0.24988   0.50000   0.00000  Uiso   1.00
C365   C     0.77167   0.10471   0.53611   0.00000  Uiso   1.00
C366   C     0.71618   0.39533   0.47824   0.00000  Uiso   1.00
C367   C     0.72833   0.10471   0.46389   0.00000  Uiso   1.00
C368   C     0.78382   0.39533   0.52176   0.00000  Uiso   1.00
H369   H     0.78847   0.03605   0.56706   0.00000  Uiso   1.00
H370   H     0.68729   0.46399   0.46156   0.00000  Uiso   1.00
H371   H     0.71153   0.03605   0.43294   0.00000  Uiso   1.00
H372   H     0.81270   0.46399   0.53844   0.00000  Uiso   1.00
N373   N     0.61588   0.29677   0.57825   0.00000  Uiso   1.00
O374   O     0.64930   0.27577   0.59954   0.00000  Uiso   1.00
O375   O     0.59904   0.33511   0.59842   0.00000  Uiso   1.00
N376   N     0.88437   0.20304   0.57821   0.00000  Uiso   1.00
O377   O     0.85096   0.22394   0.59942   0.00000  Uiso   1.00
O378   O     0.90126   0.16464   0.59831   0.00000  Uiso   1.00
N379   N     0.88412   0.29683   0.42178   0.00000  Uiso   1.00
O380   O     0.85070   0.27585   0.40049   0.00000  Uiso   1.00
O381   O     0.90098   0.33517   0.40162   0.00000  Uiso   1.00
N382   N     0.61563   0.20312   0.42174   0.00000  Uiso   1.00
O383   O     0.64905   0.22404   0.40056   0.00000  Uiso   1.00
O384   O     0.59873   0.16476   0.40159   0.00000  Uiso   1.00
O385   O     0.18573   0.79071   0.50000   0.00000  Uiso   1.00
O386   O     0.31427   0.70929   0.50000   0.00000  Uiso   1.00
O387   O     0.31427   0.79071   0.50000   0.00000  Uiso   1.00
O388   O     0.18573   0.70928   0.50000   0.00000  Uiso   1.00
C389   C     0.16500   0.75000   0.49999   0.00000  Uiso   1.00
C390   C     0.33500   0.75000   0.50001   0.00000  Uiso   1.00
O391   O     0.25000   0.79071   0.42946   0.00000  Uiso   1.00
O392   O     0.25000   0.70929   0.57054   0.00000  Uiso   1.00
O393   O     0.25000   0.79071   0.57054   0.00000  Uiso   1.00
O394   O     0.25000   0.70929   0.42946   0.00000  Uiso   1.00
C395   C     0.27180   0.55399   0.53701   0.00000  Uiso   1.00
C396   C     0.21536   0.94605   0.47816   0.00000  Uiso   1.00
C397   C     0.22820   0.55399   0.46299   0.00000  Uiso   1.00
C398   C     0.28464   0.94605   0.52184   0.00000  Uiso   1.00
C399   C     0.24997   0.75000   0.40685   0.00000  Uiso   1.00
C400   C     0.25003   0.75000   0.59315   0.00000  Uiso   1.00
Cu401  Cu    0.25000   0.79821   0.50000   0.00000  Uiso   1.00
Cu402  Cu    0.25000   0.70179   0.50000   0.00000  Uiso   1.00
H403   H     0.28889   0.62435   0.56465   0.00000  Uiso   1.00
H404   H     0.18942   0.87577   0.46090   0.00000  Uiso   1.00
H405   H     0.21110   0.62435   0.43535   0.00000  Uiso   1.00
H406   H     0.31058   0.87577   0.53910   0.00000  Uiso   1.00
N407   N     0.25000   0.62935   0.50000   0.00000  Uiso   1.00
N408   N     0.25000   0.87065   0.50000   0.00000  Uiso   1.00
C409   C     0.25000   0.52737   0.50000   0.00000  Uiso   1.00
C410   C     0.25000   0.97268   0.50000   0.00000  Uiso   1.00
C411   C     0.24999   0.74999   0.35517   0.00000  Uiso   1.00
C412   C     0.25001   0.74999   0.64483   0.00000  Uiso   1.00
C413   C     0.04712   0.77346   0.53741   0.00000  Uiso   1.00
C414   C     0.45301   0.72630   0.53740   0.00000  Uiso   1.00
C415   C     0.45288   0.77350   0.46262   0.00000  Uiso   1.00
C416   C     0.04699   0.72634   0.46258   0.00000  Uiso   1.00
H417   H     0.02888   0.79123   0.56647   0.00000  Uiso   1.00
H418   H     0.47135   0.70848   0.56644   0.00000  Uiso   1.00
H419   H     0.47112   0.79129   0.43357   0.00000  Uiso   1.00
H420   H     0.02865   0.70854   0.43352   0.00000  Uiso   1.00
C421   C     0.09335   0.77368   0.53805   0.00000  Uiso   1.00
C422   C     0.40678   0.72618   0.53806   0.00000  Uiso   1.00
C423   C     0.40665   0.77372   0.46197   0.00000  Uiso   1.00
C424   C     0.09322   0.72622   0.46191   0.00000  Uiso   1.00
C425   C     0.11666   0.74998   0.49998   0.00000  Uiso   1.00
C426   C     0.38334   0.74998   0.50002   0.00000  Uiso   1.00
C427   C     0.02413   0.74988   0.50000   0.00000  Uiso   1.00
C428   C     0.47587   0.74988   0.50000   0.00000  Uiso   1.00
C429   C     0.27167   0.60471   0.53611   0.00000  Uiso   1.00
C430   C     0.21618   0.89533   0.47824   0.00000  Uiso   1.00
C431   C     0.22833   0.60471   0.46389   0.00000  Uiso   1.00
C432   C     0.28382   0.89533   0.52176   0.00000  Uiso   1.00
H433   H     0.28847   0.53605   0.56706   0.00000  Uiso   1.00
H434   H     0.18729   0.96399   0.46156   0.00000  Uiso   1.00
H435   H     0.21153   0.53605   0.43294   0.00000  Uiso   1.00
H436   H     0.31270   0.96399   0.53844   0.00000  Uiso   1.00
N437   N     0.11588   0.79677   0.57825   0.00000  Uiso   1.00
O438   O     0.14930   0.77577   0.59954   0.00000  Uiso   1.00
O439   O     0.09904   0.83511   0.59842   0.00000  Uiso   1.00
N440   N     0.38437   0.70304   0.57821   0.00000  Uiso   1.00
O441   O     0.35096   0.72394   0.59942   0.00000  Uiso   1.00
O442   O     0.40126   0.66464   0.59831   0.00000  Uiso   1.00
N443   N     0.38412   0.79683   0.42178   0.00000  Uiso   1.00
O444   O     0.35070   0.77585   0.40049   0.00000  Uiso   1.00
O445   O     0.40098   0.83517   0.40162   0.00000  Uiso   1.00
N446   N     0.11563   0.70312   0.42174   0.00000  Uiso   1.00
O447   O     0.14905   0.72404   0.40056   0.00000  Uiso   1.00
O448   O     0.09873   0.66476   0.40159   0.00000  Uiso   1.00
O449   O     0.68573   0.79071   0.50000   0.00000  Uiso   1.00
O450   O     0.81427   0.70929   0.50000   0.00000  Uiso   1.00
O451   O     0.81427   0.79071   0.50000   0.00000  Uiso   1.00
O452   O     0.68573   0.70928   0.50000   0.00000  Uiso   1.00
C453   C     0.66500   0.75000   0.49999   0.00000  Uiso   1.00
C454   C     0.83500   0.75000   0.50001   0.00000  Uiso   1.00
O455   O     0.75000   0.79071   0.42946   0.00000  Uiso   1.00
O456   O     0.75000   0.70929   0.57054   0.00000  Uiso   1.00
O457   O     0.75000   0.79071   0.57054   0.00000  Uiso   1.00
O458   O     0.75000   0.70929   0.42946   0.00000  Uiso   1.00
C459   C     0.77180   0.55399   0.53701   0.00000  Uiso   1.00
C460   C     0.71536   0.94605   0.47816   0.00000  Uiso   1.00
C461   C     0.72820   0.55399   0.46299   0.00000  Uiso   1.00
C462   C     0.78464   0.94605   0.52184   0.00000  Uiso   1.00
C463   C     0.74997   0.75000   0.40685   0.00000  Uiso   1.00
C464   C     0.75003   0.75000   0.59315   0.00000  Uiso   1.00
Cu465  Cu    0.75000   0.79821   0.50000   0.00000  Uiso   1.00
Cu466  Cu    0.75000   0.70179   0.50000   0.00000  Uiso   1.00
H467   H     0.78889   0.62435   0.56465   0.00000  Uiso   1.00
H468   H     0.68942   0.87577   0.46090   0.00000  Uiso   1.00
H469   H     0.71110   0.62435   0.43535   0.00000  Uiso   1.00
H470   H     0.81058   0.87577   0.53910   0.00000  Uiso   1.00
N471   N     0.75000   0.62935   0.50000   0.00000  Uiso   1.00
N472   N     0.75000   0.87065   0.50000   0.00000  Uiso   1.00
C473   C     0.75000   0.52737   0.50000   0.00000  Uiso   1.00
C474   C     0.75000   0.97268   0.50000   0.00000  Uiso   1.00
C475   C     0.74999   0.74999   0.35517   0.00000  Uiso   1.00
C476   C     0.75001   0.74999   0.64483   0.00000  Uiso   1.00
C477   C     0.54712   0.77346   0.53741   0.00000  Uiso   1.00
C478   C     0.95301   0.72630   0.53740   0.00000  Uiso   1.00
C479   C     0.95288   0.77350   0.46262   0.00000  Uiso   1.00
C480   C     0.54699   0.72634   0.46258   0.00000  Uiso   1.00
H481   H     0.52888   0.79123   0.56647   0.00000  Uiso   1.00
H482   H     0.97135   0.70848   0.56644   0.00000  Uiso   1.00
H483   H     0.97112   0.79129   0.43357   0.00000  Uiso   1.00
H484   H     0.52865   0.70854   0.43352   0.00000  Uiso   1.00
C485   C     0.59335   0.77368   0.53805   0.00000  Uiso   1.00
C486   C     0.90678   0.72618   0.53806   0.00000  Uiso   1.00
C487   C     0.90665   0.77372   0.46197   0.00000  Uiso   1.00
C488   C     0.59322   0.72622   0.46191   0.00000  Uiso   1.00
C489   C     0.61666   0.74998   0.49998   0.00000  Uiso   1.00
C490   C     0.88334   0.74998   0.50002   0.00000  Uiso   1.00
C491   C     0.52413   0.74988   0.50000   0.00000  Uiso   1.00
C492   C     0.97587   0.74988   0.50000   0.00000  Uiso   1.00
C493   C     0.77167   0.60471   0.53611   0.00000  Uiso   1.00
C494   C     0.71618   0.89533   0.47824   0.00000  Uiso   1.00
C495   C     0.72833   0.60471   0.46389   0.00000  Uiso   1.00
C496   C     0.78382   0.89533   0.52176   0.00000  Uiso   1.00
H497   H     0.78847   0.53605   0.56706   0.00000  Uiso   1.00
H498   H     0.68729   0.96399   0.46156   0.00000  Uiso   1.00
H499   H     0.71153   0.53605   0.43294   0.00000  Uiso   1.00
H500   H     0.81270   0.96399   0.53844   0.00000  Uiso   1.00
N501   N     0.61588   0.79677   0.57825   0.00000  Uiso   1.00
O502   O     0.64930   0.77577   0.59954   0.00000  Uiso   1.00
O503   O     0.59904   0.83511   0.59842   0.00000  Uiso   1.00
N504   N     0.88437   0.70304   0.57821   0.00000  Uiso   1.00
O505   O     0.85096   0.72394   0.59942   0.00000  Uiso   1.00
O506   O     0.90126   0.66464   0.59831   0.00000  Uiso   1.00
N507   N     0.88412   0.79683   0.42178   0.00000  Uiso   1.00
O508   O     0.85070   0.77585   0.40049   0.00000  Uiso   1.00
O509   O     0.90098   0.83517   0.40162   0.00000  Uiso   1.00
N510   N     0.61563   0.70312   0.42174   0.00000  Uiso   1.00
O511   O     0.64905   0.72404   0.40056   0.00000  Uiso   1.00
O512   O     0.59873   0.66476   0.40159   0.00000  Uiso   1.00
O513   O     0.18573   0.29071   0.83334   0.00000  Uiso   1.00
O514   O     0.31427   0.20929   0.83333   0.00000  Uiso   1.00
O515   O     0.31427   0.29071   0.83333   0.00000  Uiso   1.00
O516   O     0.18573   0.20928   0.83334   0.00000  Uiso   1.00
C517   C     0.16500   0.25000   0.83333   0.00000  Uiso   1.00
C518   C     0.33500   0.25000   0.83334   0.00000  Uiso   1.00
O519   O     0.25000   0.29071   0.76280   0.00000  Uiso   1.00
O520   O     0.25000   0.20929   0.90387   0.00000  Uiso   1.00
O521   O     0.25000   0.29071   0.90387   0.00000  Uiso   1.00
O522   O     0.25000   0.20929   0.76280   0.00000  Uiso   1.00
C523   C     0.27180   0.05399   0.87034   0.00000  Uiso   1.00
C524   C     0.21536   0.44605   0.81149   0.00000  Uiso   1.00
C525   C     0.22820   0.05399   0.79633   0.00000  Uiso   1.00
C526   C     0.28464   0.44605   0.85518   0.00000  Uiso   1.00
C527   C     0.24997   0.25000   0.74018   0.00000  Uiso   1.00
C528   C     0.25003   0.25000   0.92648   0.00000  Uiso   1.00
Cu529  Cu    0.25000   0.29821   0.83333   0.00000  Uiso   1.00
Cu530  Cu    0.25000   0.20179   0.83333   0.00000  Uiso   1.00
H531   H     0.28889   0.12435   0.89798   0.00000  Uiso   1.00
H532   H     0.18942   0.37577   0.79423   0.00000  Uiso   1.00
H533   H     0.21110   0.12435   0.76868   0.00000  Uiso   1.00
H534   H     0.31058   0.37577   0.87244   0.00000  Uiso   1.00
N535   N     0.25000   0.12935   0.83333   0.00000  Uiso   1.00
N536   N     0.25000   0.37065   0.83333   0.00000  Uiso   1.00
C537   C     0.25000   0.02737   0.83333   0.00000  Uiso   1.00
C538   C     0.25000   0.47268   0.83333   0.00000  Uiso   1.00
C539   C     0.24999   0.24999   0.68850   0.00000  Uiso   1.00
C540   C     0.25001   0.24999   0.97816   0.00000  Uiso   1.00
C541   C     0.04712   0.27346   0.87074   0.00000  Uiso   1.00
C542   C     0.45301   0.22630   0.87073   0.00000  Uiso   1.00
C543   C     0.45288   0.27350   0.79595   0.00000  Uiso   1.00
C544   C     0.04699   0.22634   0.79591   0.00000  Uiso   1.00
H545   H     0.02888   0.29123   0.89980   0.00000  Uiso   1.00
H546   H     0.47135   0.20848   0.89977   0.00000  Uiso   1.00
H547   H     0.47112   0.29129   0.76690   0.00000  Uiso   1.00
H548   H     0.02865   0.20854   0.76686   0.00000  Uiso   1.00
C549   C     0.09335   0.27368   0.87139   0.00000  Uiso   1.00
C550   C     0.40678   0.22618   0.87140   0.00000  Uiso   1.00
C551   C     0.40665   0.27372   0.79530   0.00000  Uiso   1.00
C552   C     0.09322   0.22622   0.79524   0.00000  Uiso   1.00
C553   C     0.11666   0.24998   0.83331   0.00000  Uiso   1.00
C554   C     0.38334   0.24998   0.83336   0.00000  Uiso   1.00
C555   C     0.02413   0.24988   0.83334   0.00000  Uiso   1.00
C556   C     0.47587   0.24988   0.83333   0.00000  Uiso   1.00
C557   C     0.27167   0.10471   0.86944   0.00000  Uiso   1.00
C558   C     0.21618   0.39533   0.81157   0.00000  Uiso   1.00
C559   C     0.22833   0.10471   0.79722   0.00000  Uiso   1.00
C560   C     0.28382   0.39533   0.85509   0.00000  Uiso   1.00
H561   H     0.28847   0.03605   0.90039   0.00000  Uiso   1.00
H562   H     0.18729   0.46399   0.79489   0.00000  Uiso   1.00
H563   H     0.21153   0.03605   0.76628   0.00000  Uiso   1.00
H564   H     0.31270   0.46399   0.87178   0.00000  Uiso   1.00
N565   N     0.11588   0.29677   0.91159   0.00000  Uiso   1.00
O566   O     0.14930   0.27577   0.93287   0.00000  Uiso   1.00
O567   O     0.09904   0.33511   0.93175   0.00000  Uiso   1.00
N568   N     0.38437   0.20304   0.91154   0.00000  Uiso   1.00
O569   O     0.35096   0.22394   0.93276   0.00000  Uiso   1.00
O570   O     0.40126   0.16464   0.93165   0.00000  Uiso   1.00
N571   N     0.38412   0.29683   0.75511   0.00000  Uiso   1.00
O572   O     0.35070   0.27585   0.73382   0.00000  Uiso   1.00
O573   O     0.40098   0.33517   0.73496   0.00000  Uiso   1.00
N574   N     0.11563   0.20312   0.75508   0.00000  Uiso   1.00
O575   O     0.14905   0.22404   0.73389   0.00000  Uiso   1.00
O576   O     0.09873   0.16476   0.73492   0.00000  Uiso   1.00
O577   O     0.68573   0.29071   0.83334   0.00000  Uiso   1.00
O578   O     0.81427   0.20929   0.83333   0.00000  Uiso   1.00
O579   O     0.81427   0.29071   0.83333   0.00000  Uiso   1.00
O580   O     0.68573   0.20928   0.83334   0.00000  Uiso   1.00
C581   C     0.66500   0.25000   0.83333   0.00000  Uiso   1.00
C582   C     0.83500   0.25000   0.83334   0.00000  Uiso   1.00
O583   O     0.75000   0.29071   0.76280   0.00000  Uiso   1.00
O584   O     0.75000   0.20929   0.90387   0.00000  Uiso   1.00
O585   O     0.75000   0.29071   0.90387   0.00000  Uiso   1.00
O586   O     0.75000   0.20929   0.76280   0.00000  Uiso   1.00
C587   C     0.77180   0.05399   0.87034   0.00000  Uiso   1.00
C588   C     0.71536   0.44605   0.81149   0.00000  Uiso   1.00
C589   C     0.72820   0.05399   0.79633   0.00000  Uiso   1.00
C590   C     0.78464   0.44605   0.85518   0.00000  Uiso   1.00
C591   C     0.74997   0.25000   0.74018   0.00000  Uiso   1.00
C592   C     0.75003   0.25000   0.92648   0.00000  Uiso   1.00
Cu593  Cu    0.75000   0.29821   0.83333   0.00000  Uiso   1.00
Cu594  Cu    0.75000   0.20179   0.83333   0.00000  Uiso   1.00
H595   H     0.78889   0.12435   0.89798   0.00000  Uiso   1.00
H596   H     0.68942   0.37577   0.79423   0.00000  Uiso   1.00
H597   H     0.71110   0.12435   0.76868   0.00000  Uiso   1.00
H598   H     0.81058   0.37577   0.87244   0.00000  Uiso   1.00
N599   N     0.75000   0.12935   0.83333   0.00000  Uiso   1.00
N600   N     0.75000   0.37065   0.83333   0.00000  Uiso   1.00
C601   C     0.75000   0.02737   0.83333   0.00000  Uiso   1.00
C602   C     0.75000   0.47268   0.83333   0.00000  Uiso   1.00
C603   C     0.74999   0.24999   0.68850   0.00000  Uiso   1.00
C604   C     0.75001   0.24999   0.97816   0.00000  Uiso   1.00
C605   C     0.54712   0.27346   0.87074   0.00000  Uiso   1.00
C606   C     0.95301   0.22630   0.87073   0.00000  Uiso   1.00
C607   C     0.95288   0.27350   0.79595   0.00000  Uiso   1.00
C608   C     0.54699   0.22634   0.79591   0.00000  Uiso   1.00
H609   H     0.52888   0.29123   0.89980   0.00000  Uiso   1.00
H610   H     0.97135   0.20848   0.89977   0.00000  Uiso   1.00
H611   H     0.97112   0.29129   0.76690   0.00000  Uiso   1.00
H612   H     0.52865   0.20854   0.76686   0.00000  Uiso   1.00
C613   C     0.59335   0.27368   0.87139   0.00000  Uiso   1.00
C614   C     0.90678   0.22618   0.87140   0.00000  Uiso   1.00
C615   C     0.90665   0.27372   0.79530   0.00000  Uiso   1.00
C616   C     0.59322   0.22622   0.79524   0.00000  Uiso   1.00
C617   C     0.61666   0.24998   0.83331   0.00000  Uiso   1.00
C618   C     0.88334   0.24998   0.83336   0.00000  Uiso   1.00
C619   C     0.52413   0.24988   0.83334   0.00000  Uiso   1.00
C620   C     0.97587   0.24988   0.83333   0.00000  Uiso   1.00
C621   C     0.77167   0.10471   0.86944   0.00000  Uiso   1.00
C622   C     0.71618   0.39533   0.81157   0.00000  Uiso   1.00
C623   C     0.72833   0.10471   0.79722   0.00000  Uiso   1.00
C624   C     0.78382   0.39533   0.85509   0.00000  Uiso   1.00
H625   H     0.78847   0.03605   0.90039   0.00000  Uiso   1.00
H626   H     0.68729   0.46399   0.79489   0.00000  Uiso   1.00
H627   H     0.71153   0.03605   0.76628   0.00000  Uiso   1.00
H628   H     0.81270   0.46399   0.87178   0.00000  Uiso   1.00
N629   N     0.61588   0.29677   0.91159   0.00000  Uiso   1.00
O630   O     0.64930   0.27577   0.93287   0.00000  Uiso   1.00
O631   O     0.59904   0.33511   0.93175   0.00000  Uiso   1.00
N632   N     0.88437   0.20304   0.91154   0.00000  Uiso   1.00
O633   O     0.85096   0.22394   0.93276   0.00000  Uiso   1.00
O634   O     0.90126   0.16464   0.93165   0.00000  Uiso   1.00
N635   N     0.88412   0.29683   0.75511   0.00000  Uiso   1.00
O636   O     0.85070   0.27585   0.73382   0.00000  Uiso   1.00
O637   O     0.90098   0.33517   0.73496   0.00000  Uiso   1.00
N638   N     0.61563   0.20312   0.75508   0.00000  Uiso   1.00
O639   O     0.64905   0.22404   0.73389   0.00000  Uiso   1.00
O640   O     0.59873   0.16476   0.73492   0.00000  Uiso   1.00
O641   O     0.18573   0.79071   0.83334   0.00000  Uiso   1.00
O642   O     0.31427   0.70929   0.83333   0.00000  Uiso   1.00
O643   O     0.31427   0.79071   0.83333   0.00000  Uiso   1.00
O644   O     0.18573   0.70928   0.83334   0.00000  Uiso   1.00
C645   C     0.16500   0.75000   0.83333   0.00000  Uiso   1.00
C646   C     0.33500   0.75000   0.83334   0.00000  Uiso   1.00
O647   O     0.25000   0.79071   0.76280   0.00000  Uiso   1.00
O648   O     0.25000   0.70929   0.90387   0.00000  Uiso   1.00
O649   O     0.25000   0.79071   0.90387   0.00000  Uiso   1.00
O650   O     0.25000   0.70929   0.76280   0.00000  Uiso   1.00
C651   C     0.27180   0.55399   0.87034   0.00000  Uiso   1.00
C652   C     0.21536   0.94605   0.81149   0.00000  Uiso   1.00
C653   C     0.22820   0.55399   0.79633   0.00000  Uiso   1.00
C654   C     0.28464   0.94605   0.85518   0.00000  Uiso   1.00
C655   C     0.24997   0.75000   0.74018   0.00000  Uiso   1.00
C656   C     0.25003   0.75000   0.92648   0.00000  Uiso   1.00
Cu657  Cu    0.25000   0.79821   0.83333   0.00000  Uiso   1.00
Cu658  Cu    0.25000   0.70179   0.83333   0.00000  Uiso   1.00
H659   H     0.28889   0.62435   0.89798   0.00000  Uiso   1.00
H660   H     0.18942   0.87577   0.79423   0.00000  Uiso   1.00
H661   H     0.21110   0.62435   0.76868   0.00000  Uiso   1.00
H662   H     0.31058   0.87577   0.87244   0.00000  Uiso   1.00
N663   N     0.25000   0.62935   0.83333   0.00000  Uiso   1.00
N664   N     0.25000   0.87065   0.83333   0.00000  Uiso   1.00
C665   C     0.25000   0.52737   0.83333   0.00000  Uiso   1.00
C666   C     0.25000   0.97268   0.83333   0.00000  Uiso   1.00
C667   C     0.24999   0.74999   0.68850   0.00000  Uiso   1.00
C668   C     0.25001   0.74999   0.97816   0.00000  Uiso   1.00
C669   C     0.04712   0.77346   0.87074   0.00000  Uiso   1.00
C670   C     0.45301   0.72630   0.87073   0.00000  Uiso   1.00
C671   C     0.45288   0.77350   0.79595   0.00000  Uiso   1.00
C672   C     0.04699   0.72634   0.79591   0.00000  Uiso   1.00
H673   H     0.02888   0.79123   0.89980   0.00000  Uiso   1.00
H674   H     0.47135   0.70848   0.89977   0.00000  Uiso   1.00
H675   H     0.47112   0.79129   0.76690   0.00000  Uiso   1.00
H676   H     0.02865   0.70854   0.76686   0.00000  Uiso   1.00
C677   C     0.09335   0.77368   0.87139   0.00000  Uiso   1.00
C678   C     0.40678   0.72618   0.87140   0.00000  Uiso   1.00
C679   C     0.40665   0.77372   0.79530   0.00000  Uiso   1.00
C680   C     0.09322   0.72622   0.79524   0.00000  Uiso   1.00
C681   C     0.11666   0.74998   0.83331   0.00000  Uiso   1.00
C682   C     0.38334   0.74998   0.83336   0.00000  Uiso   1.00
C683   C     0.02413   0.74988   0.83334   0.00000  Uiso   1.00
C684   C     0.47587   0.74988   0.83333   0.00000  Uiso   1.00
C685   C     0.27167   0.60471   0.86944   0.00000  Uiso   1.00
C686   C     0.21618   0.89533   0.81157   0.00000  Uiso   1.00
C687   C     0.22833   0.60471   0.79722   0.00000  Uiso   1.00
C688   C     0.28382   0.89533   0.85509   0.00000  Uiso   1.00
H689   H     0.28847   0.53605   0.90039   0.00000  Uiso   1.00
H690   H     0.18729   0.96399   0.79489   0.00000  Uiso   1.00
H691   H     0.21153   0.53605   0.76628   0.00000  Uiso   1.00
H692   H     0.31270   0.96399   0.87178   0.00000  Uiso   1.00
N693   N     0.11588   0.79677   0.91159   0.00000  Uiso   1.00
O694   O     0.14930   0.77577   0.93287   0.00000  Uiso   1.00
O695   O     0.09904   0.83511   0.93175   0.00000  Uiso   1.00
N696   N     0.38437   0.70304   0.91154   0.00000  Uiso   1.00
O697   O     0.35096   0.72394   0.93276   0.00000  Uiso   1.00
O698   O     0.40126   0.66464   0.93165   0.00000  Uiso   1.00
N699   N     0.38412   0.79683   0.75511   0.00000  Uiso   1.00
O700   O     0.35070   0.77585   0.73382   0.00000  Uiso   1.00
O701   O     0.40098   0.83517   0.73496   0.00000  Uiso   1.00
N702   N     0.11563   0.70312   0.75508   0.00000  Uiso   1.00
O703   O     0.14905   0.72404   0.73389   0.00000  Uiso   1.00
O704   O     0.09873   0.66476   0.73492   0.00000  Uiso   1.00
O705   O     0.68573   0.79071   0.83334   0.00000  Uiso   1.00
O706   O     0.81427   0.70929   0.83333   0.00000  Uiso   1.00
O707   O     0.81427   0.79071   0.83333   0.00000  Uiso   1.00
O708   O     0.68573   0.70928   0.83334   0.00000  Uiso   1.00
C709   C     0.66500   0.75000   0.83333   0.00000  Uiso   1.00
C710   C     0.83500   0.75000   0.83334   0.00000  Uiso   1.00
O711   O     0.75000   0.79071   0.76280   0.00000  Uiso   1.00
O712   O     0.75000   0.70929   0.90387   0.00000  Uiso   1.00
O713   O     0.75000   0.79071   0.90387   0.00000  Uiso   1.00
O714   O     0.75000   0.70929   0.76280   0.00000  Uiso   1.00
C715   C     0.77180   0.55399   0.87034   0.00000  Uiso   1.00
C716   C     0.71536   0.94605   0.81149   0.00000  Uiso   1.00
C717   C     0.72820   0.55399   0.79633   0.00000  Uiso   1.00
C718   C     0.78464   0.94605   0.85518   0.00000  Uiso   1.00
C719   C     0.74997   0.75000   0.74018   0.00000  Uiso   1.00
C720   C     0.75003   0.75000   0.92648   0.00000  Uiso   1.00
Cu721  Cu    0.75000   0.79821   0.83333   0.00000  Uiso   1.00
Cu722  Cu    0.75000   0.70179   0.83333   0.00000  Uiso   1.00
H723   H     0.78889   0.62435   0.89798   0.00000  Uiso   1.00
H724   H     0.68942   0.87577   0.79423   0.00000  Uiso   1.00
H725   H     0.71110   0.62435   0.76868   0.00000  Uiso   1.00
H726   H     0.81058   0.87577   0.87244   0.00000  Uiso   1.00
N727   N     0.75000   0.62935   0.83333   0.00000  Uiso   1.00
N728   N     0.75000   0.87065   0.83333   0.00000  Uiso   1.00
C729   C     0.75000   0.52737   0.83333   0.00000  Uiso   1.00
C730   C     0.75000   0.97268   0.83333   0.00000  Uiso   1.00
C731   C     0.74999   0.74999   0.68850   0.00000  Uiso   1.00
C732   C     0.75001   0.74999   0.97816   0.00000  Uiso   1.00
C733   C     0.54712   0.77346   0.87074   0.00000  Uiso   1.00
C734   C     0.95301   0.72630   0.87073   0.00000  Uiso   1.00
C735   C     0.95288   0.77350   0.79595   0.00000  Uiso   1.00
C736   C     0.54699   0.72634   0.79591   0.00000  Uiso   1.00
H737   H     0.52888   0.79123   0.89980   0.00000  Uiso   1.00
H738   H     0.97135   0.70848   0.89977   0.00000  Uiso   1.00
H739   H     0.97112   0.79129   0.76690   0.00000  Uiso   1.00
H740   H     0.52865   0.70854   0.76686   0.00000  Uiso   1.00
C741   C     0.59335   0.77368   0.87139   0.00000  Uiso   1.00
C742   C     0.90678   0.72618   0.87140   0.00000  Uiso   1.00
C743   C     0.90665   0.77372   0.79530   0.00000  Uiso   1.00
C744   C     0.59322   0.72622   0.79524   0.00000  Uiso   1.00
C745   C     0.61666   0.74998   0.83331   0.00000  Uiso   1.00
C746   C     0.88334   0.74998   0.83336   0.00000  Uiso   1.00
C747   C     0.52413   0.74988   0.83334   0.00000  Uiso   1.00
C748   C     0.97587   0.74988   0.83333   0.00000  Uiso   1.00
C749   C     0.77167   0.60471   0.86944   0.00000  Uiso   1.00
C750   C     0.71618   0.89533   0.81157   0.00000  Uiso   1.00
C751   C     0.72833   0.60471   0.79722   0.00000  Uiso   1.00
C752   C     0.78382   0.89533   0.85509   0.00000  Uiso   1.00
H753   H     0.78847   0.53605   0.90039   0.00000  Uiso   1.00
H754   H     0.68729   0.96399   0.79489   0.00000  Uiso   1.00
H755   H     0.71153   0.53605   0.76628   0.00000  Uiso   1.00
H756   H     0.81270   0.96399   0.87178   0.00000  Uiso   1.00
N757   N     0.61588   0.79677   0.91159   0.00000  Uiso   1.00
O758   O     0.64930   0.77577   0.93287   0.00000  Uiso   1.00
O759   O     0.59904   0.83511   0.93175   0.00000  Uiso   1.00
N760   N     0.88437   0.70304   0.91154   0.00000  Uiso   1.00
O761   O     0.85096   0.72394   0.93276   0.00000  Uiso   1.00
O762   O     0.90126   0.66464   0.93165   0.00000  Uiso   1.00
N763   N     0.88412   0.79683   0.75511   0.00000  Uiso   1.00
O764   O     0.85070   0.77585   0.73382   0.00000  Uiso   1.00
O765   O     0.90098   0.83517   0.73496   0.00000  Uiso   1.00
N766   N     0.61563   0.70312   0.75508   0.00000  Uiso   1.00
O767   O     0.64905   0.72404   0.73389   0.00000  Uiso   1.00
O768   O     0.59873   0.66476   0.73492   0.00000  Uiso   1.00
loop_
_geom_bond_atom_site_label_1
_geom_bond_atom_site_label_2
_geom_bond_distance
_geom_bond_site_symmetry_2
_ccdc_geom_bond_type
O1     Cu17    1.952   .     S
O1     C5      1.292   .     A
O2     Cu18    1.952   .     S
O2     C6      1.292   .     A
O3     Cu17    1.952   .     S
O3     C6      1.292   .     A
O4     C5      1.292   .     A
O4     Cu18    1.952   .     S
C5     C41     1.460   .     S
C6     C42     1.460   .     S
O7     C15     1.287   .     A
O7     Cu17    1.932   .     S
O8     Cu18    1.932   .     S
O8     C16     1.287   .     A
O9     Cu17    1.932   .     S
O9     C16     1.287   .     A
O10    Cu18    1.932   .     S
O10    C15     1.287   .     A
C11    H49     1.081   .     S
C11    C45     1.407   .     A
C11    C25     1.412   .     A
C12    C46     1.408   .     A
C12    C26     1.411   .     A
C12    H50     1.081   .     S
C13    C47     1.407   .     A
C13    H51     1.081   .     S
C13    C25     1.411   .     A
C14    C26     1.411   .     A
C14    C48     1.408   .     A
C14    H52     1.081   .     S
C15    C27     1.408   .     S
C16    C28     1.408   .     S
Cu17   Cu18    2.676   .     S
Cu17   N24     2.010   .     S
Cu18   N23     2.010   .     S
H19    C45     1.082   .     S
H20    C46     1.081   .     S
H21    C47     1.082   .     S
H22    C48     1.081   .     S
N23    C45     1.364   .     A
N23    C47     1.364   .     A
N24    C46     1.364   .     A
N24    C48     1.364   .     A
C25    C154    1.518   1_545 S
C26    C153    1.518   .     S
C27    C540    1.189   1_554 S
C28    C283    1.189   .     S
C29    C43     1.395   .     A
C29    H33     1.084   .     S
C29    C37     1.396   .     A
C30    C44     1.395   .     A
C30    H34     1.084   .     S
C30    C38     1.397   .     A
C31    C39     1.396   .     A
C31    H35     1.084   .     S
C31    C44     1.395   .     A
C32    H36     1.084   .     S
C32    C43     1.395   .     A
C32    C40     1.397   .     A
C37    N53     1.438   .     S
C37    C41     1.417   .     A
C38    N56     1.439   .     S
C38    C42     1.417   .     A
C39    N59     1.438   .     S
C39    C42     1.417   .     A
C40    C41     1.417   .     A
C40    N62     1.439   .     S
C43    C108    1.458   1_455 S
C44    C107    1.458   .     S
N53    O54     1.301   .     A
N53    O55     1.301   .     A
N56    O58     1.301   .     A
N56    O57     1.301   .     A
N59    O60     1.301   .     A
N59    O61     1.301   .     A
N62    O63     1.301   .     A
N62    O64     1.301   .     A
O65    Cu81    1.952   .     S
O65    C69     1.292   .     A
O66    Cu82    1.952   .     S
O66    C70     1.292   .     A
O67    Cu81    1.952   .     S
O67    C70     1.292   .     A
O68    C69     1.292   .     A
O68    Cu82    1.952   .     S
C69    C105    1.460   .     S
C70    C106    1.460   .     S
O71    C79     1.287   .     A
O71    Cu81    1.932   .     S
O72    Cu82    1.932   .     S
O72    C80     1.287   .     A
O73    Cu81    1.932   .     S
O73    C80     1.287   .     A
O74    Cu82    1.932   .     S
O74    C79     1.287   .     A
C75    H113    1.081   .     S
C75    C109    1.407   .     A
C75    C89     1.412   .     A
C76    C110    1.408   .     A
C76    C90     1.411   .     A
C76    H114    1.081   .     S
C77    C111    1.407   .     A
C77    H115    1.081   .     S
C77    C89     1.411   .     A
C78    C90     1.411   .     A
C78    C112    1.408   .     A
C78    H116    1.081   .     S
C79    C91     1.408   .     S
C80    C92     1.408   .     S
Cu81   Cu82    2.676   .     S
Cu81   N88     2.010   .     S
Cu82   N87     2.010   .     S
H83    C109    1.082   .     S
H84    C110    1.081   .     S
H85    C111    1.082   .     S
H86    C112    1.081   .     S
N87    C109    1.364   .     A
N87    C111    1.364   .     A
N88    C110    1.364   .     A
N88    C112    1.364   .     A
C89    C218    1.518   1_545 S
C90    C217    1.518   .     S
C91    C604    1.189   1_554 S
C92    C347    1.189   .     S
C93    C107    1.395   .     A
C93    H97     1.084   .     S
C93    C101    1.396   .     A
C94    C108    1.395   .     A
C94    H98     1.084   .     S
C94    C102    1.397   .     A
C95    C103    1.396   .     A
C95    H99     1.084   .     S
C95    C108    1.395   .     A
C96    H100    1.084   .     S
C96    C107    1.395   .     A
C96    C104    1.397   .     A
C101   N117    1.438   .     S
C101   C105    1.417   .     A
C102   N120    1.439   .     S
C102   C106    1.417   .     A
C103   N123    1.438   .     S
C103   C106    1.417   .     A
C104   C105    1.417   .     A
C104   N126    1.439   .     S
C108   C43     1.458   1_655 S
N117   O118    1.301   .     A
N117   O119    1.301   .     A
N120   O122    1.301   .     A
N120   O121    1.301   .     A
N123   O124    1.301   .     A
N123   O125    1.301   .     A
N126   O127    1.301   .     A
N126   O128    1.301   .     A
O129   Cu145   1.952   .     S
O129   C133    1.292   .     A
O130   Cu146   1.952   .     S
O130   C134    1.292   .     A
O131   Cu145   1.952   .     S
O131   C134    1.292   .     A
O132   C133    1.292   .     A
O132   Cu146   1.952   .     S
C133   C169    1.460   .     S
C134   C170    1.460   .     S
O135   C143    1.287   .     A
O135   Cu145   1.932   .     S
O136   Cu146   1.932   .     S
O136   C144    1.287   .     A
O137   Cu145   1.932   .     S
O137   C144    1.287   .     A
O138   Cu146   1.932   .     S
O138   C143    1.287   .     A
C139   H177    1.081   .     S
C139   C173    1.407   .     A
C139   C153    1.412   .     A
C140   C174    1.408   .     A
C140   C154    1.411   .     A
C140   H178    1.081   .     S
C141   C175    1.407   .     A
C141   H179    1.081   .     S
C141   C153    1.411   .     A
C142   C154    1.411   .     A
C142   C176    1.408   .     A
C142   H180    1.081   .     S
C143   C155    1.408   .     S
C144   C156    1.408   .     S
Cu145  Cu146   2.676   .     S
Cu145  N152    2.010   .     S
Cu146  N151    2.010   .     S
H147   C173    1.082   .     S
H148   C174    1.081   .     S
H149   C175    1.082   .     S
H150   C176    1.081   .     S
N151   C173    1.364   .     A
N151   C175    1.364   .     A
N152   C174    1.364   .     A
N152   C176    1.364   .     A
C154   C25     1.518   1_565 S
C155   C668    1.189   1_554 S
C156   C411    1.189   .     S
C157   C171    1.395   .     A
C157   H161    1.084   .     S
C157   C165    1.396   .     A
C158   C172    1.395   .     A
C158   H162    1.084   .     S
C158   C166    1.397   .     A
C159   C167    1.396   .     A
C159   H163    1.084   .     S
C159   C172    1.395   .     A
C160   H164    1.084   .     S
C160   C171    1.395   .     A
C160   C168    1.397   .     A
C165   N181    1.438   .     S
C165   C169    1.417   .     A
C166   N184    1.439   .     S
C166   C170    1.417   .     A
C167   N187    1.438   .     S
C167   C170    1.417   .     A
C168   C169    1.417   .     A
C168   N190    1.439   .     S
C171   C236    1.458   1_455 S
C172   C235    1.458   .     S
N181   O182    1.301   .     A
N181   O183    1.301   .     A
N184   O186    1.301   .     A
N184   O185    1.301   .     A
N187   O188    1.301   .     A
N187   O189    1.301   .     A
N190   O191    1.301   .     A
N190   O192    1.301   .     A
O193   Cu209   1.952   .     S
O193   C197    1.292   .     A
O194   Cu210   1.952   .     S
O194   C198    1.292   .     A
O195   Cu209   1.952   .     S
O195   C198    1.292   .     A
O196   C197    1.292   .     A
O196   Cu210   1.952   .     S
C197   C233    1.460   .     S
C198   C234    1.460   .     S
O199   C207    1.287   .     A
O199   Cu209   1.932   .     S
O200   Cu210   1.932   .     S
O200   C208    1.287   .     A
O201   Cu209   1.932   .     S
O201   C208    1.287   .     A
O202   Cu210   1.932   .     S
O202   C207    1.287   .     A
C203   H241    1.081   .     S
C203   C237    1.407   .     A
C203   C217    1.412   .     A
C204   C238    1.408   .     A
C204   C218    1.411   .     A
C204   H242    1.081   .     S
C205   C239    1.407   .     A
C205   H243    1.081   .     S
C205   C217    1.411   .     A
C206   C218    1.411   .     A
C206   C240    1.408   .     A
C206   H244    1.081   .     S
C207   C219    1.408   .     S
C208   C220    1.408   .     S
Cu209  Cu210   2.676   .     S
Cu209  N216    2.010   .     S
Cu210  N215    2.010   .     S
H211   C237    1.082   .     S
H212   C238    1.081   .     S
H213   C239    1.082   .     S
H214   C240    1.081   .     S
N215   C237    1.364   .     A
N215   C239    1.364   .     A
N216   C238    1.364   .     A
N216   C240    1.364   .     A
C218   C89     1.518   1_565 S
C219   C732    1.189   1_554 S
C220   C475    1.189   .     S
C221   C235    1.395   .     A
C221   H225    1.084   .     S
C221   C229    1.396   .     A
C222   C236    1.395   .     A
C222   H226    1.084   .     S
C222   C230    1.397   .     A
C223   C231    1.396   .     A
C223   H227    1.084   .     S
C223   C236    1.395   .     A
C224   H228    1.084   .     S
C224   C235    1.395   .     A
C224   C232    1.397   .     A
C229   N245    1.438   .     S
C229   C233    1.417   .     A
C230   N248    1.439   .     S
C230   C234    1.417   .     A
C231   N251    1.438   .     S
C231   C234    1.417   .     A
C232   C233    1.417   .     A
C232   N254    1.439   .     S
C236   C171    1.458   1_655 S
N245   O246    1.301   .     A
N245   O247    1.301   .     A
N248   O250    1.301   .     A
N248   O249    1.301   .     A
N251   O252    1.301   .     A
N251   O253    1.301   .     A
N254   O255    1.301   .     A
N254   O256    1.301   .     A
O257   Cu273   1.952   .     S
O257   C261    1.292   .     A
O258   Cu274   1.952   .     S
O258   C262    1.292   .     A
O259   Cu273   1.952   .     S
O259   C262    1.292   .     A
O260   C261    1.292   .     A
O260   Cu274   1.952   .     S
C261   C297    1.460   .     S
C262   C298    1.460   .     S
O263   C271    1.287   .     A
O263   Cu273   1.932   .     S
O264   Cu274   1.932   .     S
O264   C272    1.287   .     A
O265   Cu273   1.932   .     S
O265   C272    1.287   .     A
O266   Cu274   1.932   .     S
O266   C271    1.287   .     A
C267   H305    1.081   .     S
C267   C301    1.407   .     A
C267   C281    1.412   .     A
C268   C302    1.408   .     A
C268   C282    1.411   .     A
C268   H306    1.081   .     S
C269   C303    1.407   .     A
C269   H307    1.081   .     S
C269   C281    1.411   .     A
C270   C282    1.411   .     A
C270   C304    1.408   .     A
C270   H308    1.081   .     S
C271   C283    1.408   .     S
C272   C284    1.408   .     S
Cu273  Cu274   2.676   .     S
Cu273  N280    2.010   .     S
Cu274  N279    2.010   .     S
H275   C301    1.082   .     S
H276   C302    1.081   .     S
H277   C303    1.082   .     S
H278   C304    1.081   .     S
N279   C301    1.364   .     A
N279   C303    1.364   .     A
N280   C302    1.364   .     A
N280   C304    1.364   .     A
C281   C410    1.518   1_545 S
C282   C409    1.518   .     S
C284   C539    1.189   .     S
C285   C299    1.395   .     A
C285   H289    1.084   .     S
C285   C293    1.396   .     A
C286   C300    1.395   .     A
C286   H290    1.084   .     S
C286   C294    1.397   .     A
C287   C295    1.396   .     A
C287   H291    1.084   .     S
C287   C300    1.395   .     A
C288   H292    1.084   .     S
C288   C299    1.395   .     A
C288   C296    1.397   .     A
C293   N309    1.438   .     S
C293   C297    1.417   .     A
C294   N312    1.439   .     S
C294   C298    1.417   .     A
C295   N315    1.438   .     S
C295   C298    1.417   .     A
C296   C297    1.417   .     A
C296   N318    1.439   .     S
C299   C364    1.458   1_455 S
C300   C363    1.458   .     S
N309   O310    1.301   .     A
N309   O311    1.301   .     A
N312   O314    1.301   .     A
N312   O313    1.301   .     A
N315   O316    1.301   .     A
N315   O317    1.301   .     A
N318   O319    1.301   .     A
N318   O320    1.301   .     A
O321   Cu337   1.952   .     S
O321   C325    1.292   .     A
O322   Cu338   1.952   .     S
O322   C326    1.292   .     A
O323   Cu337   1.952   .     S
O323   C326    1.292   .     A
O324   C325    1.292   .     A
O324   Cu338   1.952   .     S
C325   C361    1.460   .     S
C326   C362    1.460   .     S
O327   C335    1.287   .     A
O327   Cu337   1.932   .     S
O328   Cu338   1.932   .     S
O328   C336    1.287   .     A
O329   Cu337   1.932   .     S
O329   C336    1.287   .     A
O330   Cu338   1.932   .     S
O330   C335    1.287   .     A
C331   H369    1.081   .     S
C331   C365    1.407   .     A
C331   C345    1.412   .     A
C332   C366    1.408   .     A
C332   C346    1.411   .     A
C332   H370    1.081   .     S
C333   C367    1.407   .     A
C333   H371    1.081   .     S
C333   C345    1.411   .     A
C334   C346    1.411   .     A
C334   C368    1.408   .     A
C334   H372    1.081   .     S
C335   C347    1.408   .     S
C336   C348    1.408   .     S
Cu337  Cu338   2.676   .     S
Cu337  N344    2.010   .     S
Cu338  N343    2.010   .     S
H339   C365    1.082   .     S
H340   C366    1.081   .     S
H341   C367    1.082   .     S
H342   C368    1.081   .     S
N343   C365    1.364   .     A
N343   C367    1.364   .     A
N344   C366    1.364   .     A
N344   C368    1.364   .     A
C345   C474    1.518   1_545 S
C346   C473    1.518   .     S
C348   C603    1.189   .     S
C349   C363    1.395   .     A
C349   H353    1.084   .     S
C349   C357    1.396   .     A
C350   C364    1.395   .     A
C350   H354    1.084   .     S
C350   C358    1.397   .     A
C351   C359    1.396   .     A
C351   H355    1.084   .     S
C351   C364    1.395   .     A
C352   H356    1.084   .     S
C352   C363    1.395   .     A
C352   C360    1.397   .     A
C357   N373    1.438   .     S
C357   C361    1.417   .     A
C358   N376    1.439   .     S
C358   C362    1.417   .     A
C359   N379    1.438   .     S
C359   C362    1.417   .     A
C360   C361    1.417   .     A
C360   N382    1.439   .     S
C364   C299    1.458   1_655 S
N373   O374    1.301   .     A
N373   O375    1.301   .     A
N376   O378    1.301   .     A
N376   O377    1.301   .     A
N379   O380    1.301   .     A
N379   O381    1.301   .     A
N382   O383    1.301   .     A
N382   O384    1.301   .     A
O385   Cu401   1.952   .     S
O385   C389    1.292   .     A
O386   Cu402   1.952   .     S
O386   C390    1.292   .     A
O387   Cu401   1.952   .     S
O387   C390    1.292   .     A
O388   C389    1.292   .     A
O388   Cu402   1.952   .     S
C389   C425    1.460   .     S
C390   C426    1.460   .     S
O391   C399    1.287   .     A
O391   Cu401   1.932   .     S
O392   Cu402   1.932   .     S
O392   C400    1.287   .     A
O393   Cu401   1.932   .     S
O393   C400    1.287   .     A
O394   Cu402   1.932   .     S
O394   C399    1.287   .     A
C395   H433    1.081   .     S
C395   C429    1.407   .     A
C395   C409    1.412   .     A
C396   C430    1.408   .     A
C396   C410    1.411   .     A
C396   H434    1.081   .     S
C397   C431    1.407   .     A
C397   H435    1.081   .     S
C397   C409    1.411   .     A
C398   C410    1.411   .     A
C398   C432    1.408   .     A
C398   H436    1.081   .     S
C399   C411    1.408   .     S
C400   C412    1.408   .     S
Cu401  Cu402   2.676   .     S
Cu401  N408    2.010   .     S
Cu402  N407    2.010   .     S
H403   C429    1.082   .     S
H404   C430    1.081   .     S
H405   C431    1.082   .     S
H406   C432    1.081   .     S
N407   C429    1.364   .     A
N407   C431    1.364   .     A
N408   C430    1.364   .     A
N408   C432    1.364   .     A
C410   C281    1.518   1_565 S
C412   C667    1.189   .     S
C413   C427    1.395   .     A
C413   H417    1.084   .     S
C413   C421    1.396   .     A
C414   C428    1.395   .     A
C414   H418    1.084   .     S
C414   C422    1.397   .     A
C415   C423    1.396   .     A
C415   H419    1.084   .     S
C415   C428    1.395   .     A
C416   H420    1.084   .     S
C416   C427    1.395   .     A
C416   C424    1.397   .     A
C421   N437    1.438   .     S
C421   C425    1.417   .     A
C422   N440    1.439   .     S
C422   C426    1.417   .     A
C423   N443    1.438   .     S
C423   C426    1.417   .     A
C424   C425    1.417   .     A
C424   N446    1.439   .     S
C427   C492    1.458   1_455 S
C428   C491    1.458   .     S
N437   O438    1.301   .     A
N437   O439    1.301   .     A
N440   O442    1.301   .     A
N440   O441    1.301   .     A
N443   O444    1.301   .     A
N443   O445    1.301   .     A
N446   O447    1.301   .     A
N446   O448    1.301   .     A
O449   Cu465   1.952   .     S
O449   C453    1.292   .     A
O450   Cu466   1.952   .     S
O450   C454    1.292   .     A
O451   Cu465   1.952   .     S
O451   C454    1.292   .     A
O452   C453    1.292   .     A
O452   Cu466   1.952   .     S
C453   C489    1.460   .     S
C454   C490    1.460   .     S
O455   C463    1.287   .     A
O455   Cu465   1.932   .     S
O456   Cu466   1.932   .     S
O456   C464    1.287   .     A
O457   Cu465   1.932   .     S
O457   C464    1.287   .     A
O458   Cu466   1.932   .     S
O458   C463    1.287   .     A
C459   H497    1.081   .     S
C459   C493    1.407   .     A
C459   C473    1.412   .     A
C460   C494    1.408   .     A
C460   C474    1.411   .     A
C460   H498    1.081   .     S
C461   C495    1.407   .     A
C461   H499    1.081   .     S
C461   C473    1.411   .     A
C462   C474    1.411   .     A
C462   C496    1.408   .     A
C462   H500    1.081   .     S
C463   C475    1.408   .     S
C464   C476    1.408   .     S
Cu465  Cu466   2.676   .     S
Cu465  N472    2.010   .     S
Cu466  N471    2.010   .     S
H467   C493    1.082   .     S
H468   C494    1.081   .     S
H469   C495    1.082   .     S
H470   C496    1.081   .     S
N471   C493    1.364   .     A
N471   C495    1.364   .     A
N472   C494    1.364   .     A
N472   C496    1.364   .     A
C474   C345    1.518   1_565 S
C476   C731    1.189   .     S
C477   C491    1.395   .     A
C477   H481    1.084   .     S
C477   C485    1.396   .     A
C478   C492    1.395   .     A
C478   H482    1.084   .     S
C478   C486    1.397   .     A
C479   C487    1.396   .     A
C479   H483    1.084   .     S
C479   C492    1.395   .     A
C480   H484    1.084   .     S
C480   C491    1.395   .     A
C480   C488    1.397   .     A
C485   N501    1.438   .     S
C485   C489    1.417   .     A
C486   N504    1.439   .     S
C486   C490    1.417   .     A
C487   N507    1.438   .     S
C487   C490    1.417   .     A
C488   C489    1.417   .     A
C488   N510    1.439   .     S
C492   C427    1.458   1_655 S
N501   O502    1.301   .     A
N501   O503    1.301   .     A
N504   O506    1.301   .     A
N504   O505    1.301   .     A
N507   O508    1.301   .     A
N507   O509    1.301   .     A
N510   O511    1.301   .     A
N510   O512    1.301   .     A
O513   Cu529   1.952   .     S
O513   C517    1.292   .     A
O514   Cu530   1.952   .     S
O514   C518    1.292   .     A
O515   Cu529   1.952   .     S
O515   C518    1.292   .     A
O516   C517    1.292   .     A
O516   Cu530   1.952   .     S
C517   C553    1.460   .     S
C518   C554    1.460   .     S
O519   C527    1.287   .     A
O519   Cu529   1.932   .     S
O520   Cu530   1.932   .     S
O520   C528    1.287   .     A
O521   Cu529   1.932   .     S
O521   C528    1.287   .     A
O522   Cu530   1.932   .     S
O522   C527    1.287   .     A
C523   H561    1.081   .     S
C523   C557    1.407   .     A
C523   C537    1.412   .     A
C524   C558    1.408   .     A
C524   C538    1.411   .     A
C524   H562    1.081   .     S
C525   C559    1.407   .     A
C525   H563    1.081   .     S
C525   C537    1.411   .     A
C526   C538    1.411   .     A
C526   C560    1.408   .     A
C526   H564    1.081   .     S
C527   C539    1.408   .     S
C528   C540    1.408   .     S
Cu529  Cu530   2.676   .     S
Cu529  N536    2.010   .     S
Cu530  N535    2.010   .     S
H531   C557    1.082   .     S
H532   C558    1.081   .     S
H533   C559    1.082   .     S
H534   C560    1.081   .     S
N535   C557    1.364   .     A
N535   C559    1.364   .     A
N536   C558    1.364   .     A
N536   C560    1.364   .     A
C537   C666    1.518   1_545 S
C538   C665    1.518   .     S
C540   C27     1.189   1_556 S
C541   C555    1.395   .     A
C541   H545    1.084   .     S
C541   C549    1.396   .     A
C542   C556    1.395   .     A
C542   H546    1.084   .     S
C542   C550    1.397   .     A
C543   C551    1.396   .     A
C543   H547    1.084   .     S
C543   C556    1.395   .     A
C544   H548    1.084   .     S
C544   C555    1.395   .     A
C544   C552    1.397   .     A
C549   N565    1.438   .     S
C549   C553    1.417   .     A
C550   N568    1.439   .     S
C550   C554    1.417   .     A
C551   N571    1.438   .     S
C551   C554    1.417   .     A
C552   C553    1.417   .     A
C552   N574    1.439   .     S
C555   C620    1.458   1_455 S
C556   C619    1.458   .     S
N565   O566    1.301   .     A
N565   O567    1.301   .     A
N568   O570    1.301   .     A
N568   O569    1.301   .     A
N571   O572    1.301   .     A
N571   O573    1.301   .     A
N574   O575    1.301   .     A
N574   O576    1.301   .     A
O577   Cu593   1.952   .     S
O577   C581    1.292   .     A
O578   Cu594   1.952   .     S
O578   C582    1.292   .     A
O579   Cu593   1.952   .     S
O579   C582    1.292   .     A
O580   C581    1.292   .     A
O580   Cu594   1.952   .     S
C581   C617    1.460   .     S
C582   C618    1.460   .     S
O583   C591    1.287   .     A
O583   Cu593   1.932   .     S
O584   Cu594   1.932   .     S
O584   C592    1.287   .     A
O585   Cu593   1.932   .     S
O585   C592    1.287   .     A
O586   Cu594   1.932   .     S
O586   C591    1.287   .     A
C587   H625    1.081   .     S
C587   C621    1.407   .     A
C587   C601    1.412   .     A
C588   C622    1.408   .     A
C588   C602    1.411   .     A
C588   H626    1.081   .     S
C589   C623    1.407   .     A
C589   H627    1.081   .     S
C589   C601    1.411   .     A
C590   C602    1.411   .     A
C590   C624    1.408   .     A
C590   H628    1.081   .     S
C591   C603    1.408   .     S
C592   C604    1.408   .     S
Cu593  Cu594   2.676   .     S
Cu593  N600    2.010   .     S
Cu594  N599    2.010   .     S
H595   C621    1.082   .     S
H596   C622    1.081   .     S
H597   C623    1.082   .     S
H598   C624    1.081   .     S
N599   C621    1.364   .     A
N599   C623    1.364   .     A
N600   C622    1.364   .     A
N600   C624    1.364   .     A
C601   C730    1.518   1_545 S
C602   C729    1.518   .     S
C604   C91     1.189   1_556 S
C605   C619    1.395   .     A
C605   H609    1.084   .     S
C605   C613    1.396   .     A
C606   C620    1.395   .     A
C606   H610    1.084   .     S
C606   C614    1.397   .     A
C607   C615    1.396   .     A
C607   H611    1.084   .     S
C607   C620    1.395   .     A
C608   H612    1.084   .     S
C608   C619    1.395   .     A
C608   C616    1.397   .     A
C613   N629    1.438   .     S
C613   C617    1.417   .     A
C614   N632    1.439   .     S
C614   C618    1.417   .     A
C615   N635    1.438   .     S
C615   C618    1.417   .     A
C616   C617    1.417   .     A
C616   N638    1.439   .     S
C620   C555    1.458   1_655 S
N629   O630    1.301   .     A
N629   O631    1.301   .     A
N632   O634    1.301   .     A
N632   O633    1.301   .     A
N635   O636    1.301   .     A
N635   O637    1.301   .     A
N638   O639    1.301   .     A
N638   O640    1.301   .     A
O641   Cu657   1.952   .     S
O641   C645    1.292   .     A
O642   Cu658   1.952   .     S
O642   C646    1.292   .     A
O643   Cu657   1.952   .     S
O643   C646    1.292   .     A
O644   C645    1.292   .     A
O644   Cu658   1.952   .     S
C645   C681    1.460   .     S
C646   C682    1.460   .     S
O647   C655    1.287   .     A
O647   Cu657   1.932   .     S
O648   Cu658   1.932   .     S
O648   C656    1.287   .     A
O649   Cu657   1.932   .     S
O649   C656    1.287   .     A
O650   Cu658   1.932   .     S
O650   C655    1.287   .     A
C651   H689    1.081   .     S
C651   C685    1.407   .     A
C651   C665    1.412   .     A
C652   C686    1.408   .     A
C652   C666    1.411   .     A
C652   H690    1.081   .     S
C653   C687    1.407   .     A
C653   H691    1.081   .     S
C653   C665    1.411   .     A
C654   C666    1.411   .     A
C654   C688    1.408   .     A
C654   H692    1.081   .     S
C655   C667    1.408   .     S
C656   C668    1.408   .     S
Cu657  Cu658   2.676   .     S
Cu657  N664    2.010   .     S
Cu658  N663    2.010   .     S
H659   C685    1.082   .     S
H660   C686    1.081   .     S
H661   C687    1.082   .     S
H662   C688    1.081   .     S
N663   C685    1.364   .     A
N663   C687    1.364   .     A
N664   C686    1.364   .     A
N664   C688    1.364   .     A
C666   C537    1.518   1_565 S
C668   C155    1.189   1_556 S
C669   C683    1.395   .     A
C669   H673    1.084   .     S
C669   C677    1.396   .     A
C670   C684    1.395   .     A
C670   H674    1.084   .     S
C670   C678    1.397   .     A
C671   C679    1.396   .     A
C671   H675    1.084   .     S
C671   C684    1.395   .     A
C672   H676    1.084   .     S
C672   C683    1.395   .     A
C672   C680    1.397   .     A
C677   N693    1.438   .     S
C677   C681    1.417   .     A
C678   N696    1.439   .     S
C678   C682    1.417   .     A
C679   N699    1.438   .     S
C679   C682    1.417   .     A
C680   C681    1.417   .     A
C680   N702    1.439   .     S
C683   C748    1.458   1_455 S
C684   C747    1.458   .     S
N693   O694    1.301   .     A
N693   O695    1.301   .     A
N696   O698    1.301   .     A
N696   O697    1.301   .     A
N699   O700    1.301   .     A
N699   O701    1.301   .     A
N702   O703    1.301   .     A
N702   O704    1.301   .     A
O705   Cu721   1.952   .     S
O705   C709    1.292   .     A
O706   Cu722   1.952   .     S
O706   C710    1.292   .     A
O707   Cu721   1.952   .     S
O707   C710    1.292   .     A
O708   C709    1.292   .     A
O708   Cu722   1.952   .     S
C709   C745    1.460   .     S
C710   C746    1.460   .     S
O711   C719    1.287   .     A
O711   Cu721   1.932   .     S
O712   Cu722   1.932   .     S
O712   C720    1.287   .     A
O713   Cu721   1.932   .     S
O713   C720    1.287   .     A
O714   Cu722   1.932   .     S
O714   C719    1.287   .     A
C715   H753    1.081   .     S
C715   C749    1.407   .     A
C715   C729    1.412   .     A
C716   C750    1.408   .     A
C716   C730    1.411   .     A
C716   H754    1.081   .     S
C717   C751    1.407   .     A
C717   H755    1.081   .     S
C717   C729    1.411   .     A
C718   C730    1.411   .     A
C718   C752    1.408   .     A
C718   H756    1.081   .     S
C719   C731    1.408   .     S
C720   C732    1.408   .     S
Cu721  Cu722   2.676   .     S
Cu721  N728    2.010   .     S
Cu722  N727    2.010   .     S
H723   C749    1.082   .     S
H724   C750    1.081   .     S
H725   C751    1.082   .     S
H726   C752    1.081   .     S
N727   C749    1.364   .     A
N727   C751    1.364   .     A
N728   C750    1.364   .     A
N728   C752    1.364   .     A
C730   C601    1.518   1_565 S
C732   C219    1.189   1_556 S
C733   C747    1.395   .     A
C733   H737    1.084   .     S
C733   C741    1.396   .     A
C734   C748    1.395   .     A
C734   H738    1.084   .     S
C734   C742    1.397   .     A
C735   C743    1.396   .     A
C735   H739    1.084   .     S
C735   C748    1.395   .     A
C736   H740    1.084   .     S
C736   C747    1.395   .     A
C736   C744    1.397   .     A
C741   N757    1.438   .     S
C741   C745    1.417   .     A
C742   N760    1.439   .     S
C742   C746    1.417   .     A
C743   N763    1.438   .     S
C743   C746    1.417   .     A
C744   C745    1.417   .     A
C744   N766    1.439   .     S
C748   C683    1.458   1_655 S
N757   O758    1.301   .     A
N757   O759    1.301   .     A
N760   O762    1.301   .     A
N760   O761    1.301   .     A
N763   O764    1.301   .     A
N763   O765    1.301   .     A
N766   O767    1.301   .     A
N766   O768    1.301   .     A
