data_str_m2_o1_o2_pcu_sym.12
_audit_creation_date              2020-01-03
_audit_creation_method            'Materials Studio'
_symmetry_space_group_name_H-M    'P1'
_symmetry_Int_Tables_number       1
_symmetry_cell_setting            triclinic
loop_
_symmetry_equiv_pos_as_xyz
  x,y,z
_cell_length_a                    32.6902
_cell_length_b                    28.7992
_cell_length_c                    30.1684
_cell_angle_alpha                 90.8944
_cell_angle_beta                  93.2788
_cell_angle_gamma                 89.9813
loop_
_atom_site_label
_atom_site_type_symbol
_atom_site_fract_x
_atom_site_fract_y
_atom_site_fract_z
_atom_site_U_iso_or_equiv
_atom_site_adp_type
_atom_site_occupancy
O1     O     0.10655   0.20625   0.25000   0.00000  Uiso   1.00
O2     O     0.22679   0.12709   0.25001   0.00000  Uiso   1.00
O3     O     0.22679   0.20625   0.25001   0.00000  Uiso   1.00
O4     O     0.10655   0.12709   0.25000   0.00000  Uiso   1.00
N5     N     0.16667   0.28402   0.25000   0.00000  Uiso   1.00
N6     N     0.16667   0.04931   0.25000   0.00000  Uiso   1.00
C7     C     0.08749   0.16667   0.25110   0.00000  Uiso   1.00
C8     C     0.24585   0.16658   0.24885   0.00000  Uiso   1.00
O9     O     0.16666   0.20626   0.18573   0.00000  Uiso   1.00
O10    O     0.16667   0.12707   0.31427   0.00000  Uiso   1.00
O11    O     0.16667   0.20626   0.31427   0.00000  Uiso   1.00
O12    O     0.16666   0.12707   0.18573   0.00000  Uiso   1.00
C13    C     0.16618   0.16631   0.16515   0.00000  Uiso   1.00
C14    C     0.16206   0.16707   0.33460   0.00000  Uiso   1.00
Cu15   Cu    0.16667   0.21355   0.25000   0.00000  Uiso   1.00
Cu16   Cu    0.16667   0.11978   0.25000   0.00000  Uiso   1.00
C17    C     0.14392   0.02426   0.21837   0.00000  Uiso   1.00
C18    C     0.19246   0.30929   0.27899   0.00000  Uiso   1.00
C19    C     0.19000   0.02519   0.28116   0.00000  Uiso   1.00
C20    C     0.14311   0.30818   0.21897   0.00000  Uiso   1.00
C21    C     0.02127   0.12432   0.25156   0.00000  Uiso   1.00
C22    C     0.31202   0.20826   0.24573   0.00000  Uiso   1.00
C23    C     0.31222   0.12414   0.24847   0.00000  Uiso   1.00
C24    C     0.02101   0.20856   0.24971   0.00000  Uiso   1.00
C25    C     0.19594   0.17468   0.04709   0.00000  Uiso   1.00
C26    C     0.14607   0.12421   0.45024   0.00000  Uiso   1.00
C27    C     0.15959   0.20683   0.45474   0.00000  Uiso   1.00
C28    C     0.12434   0.15211   0.04709   0.00000  Uiso   1.00
C29    C     0.19872   0.17573   0.09350   0.00000  Uiso   1.00
C30    C     0.14265   0.12605   0.40372   0.00000  Uiso   1.00
C31    C     0.15675   0.20946   0.40844   0.00000  Uiso   1.00
C32    C     0.12624   0.15361   0.09352   0.00000  Uiso   1.00
C33    C     0.16371   0.16528   0.11678   0.00000  Uiso   1.00
C34    C     0.15331   0.16779   0.38253   0.00000  Uiso   1.00
C35    C     0.15899   0.16271   0.02401   0.00000  Uiso   1.00
C36    C     0.15600   0.16417   0.47543   0.00000  Uiso   1.00
C37    C     0.29046   0.16627   0.24731   0.00000  Uiso   1.00
C38    C     0.04282   0.16655   0.25147   0.00000  Uiso   1.00
N39    N     0.12172   0.04753   0.18313   0.00000  Uiso   1.00
O40    O     0.13695   0.04830   0.14423   0.00000  Uiso   1.00
O41    O     0.08273   0.05487   0.18591   0.00000  Uiso   1.00
N42    N     0.22701   0.28789   0.30208   0.00000  Uiso   1.00
O43    O     0.22216   0.26320   0.33694   0.00000  Uiso   1.00
O44    O     0.26333   0.30466   0.29683   0.00000  Uiso   1.00
N45    N     0.21152   0.04890   0.31754   0.00000  Uiso   1.00
O46    O     0.24639   0.06875   0.31178   0.00000  Uiso   1.00
O47    O     0.20303   0.03859   0.35778   0.00000  Uiso   1.00
N48    N     0.12029   0.28401   0.18396   0.00000  Uiso   1.00
O49    O     0.08096   0.27946   0.18627   0.00000  Uiso   1.00
O50    O     0.13556   0.28102   0.14512   0.00000  Uiso   1.00
F51    F     0.22954   0.18403   0.02423   0.00000  Uiso   1.00
F52    F     0.13847   0.08400   0.47127   0.00000  Uiso   1.00
F53    F     0.16356   0.24624   0.48004   0.00000  Uiso   1.00
F54    F     0.08813   0.14301   0.02420   0.00000  Uiso   1.00
N55    N     0.23730   0.18643   0.11660   0.00000  Uiso   1.00
O56    O     0.25196   0.15941   0.14777   0.00000  Uiso   1.00
O57    O     0.26016   0.21968   0.10295   0.00000  Uiso   1.00
N58    N     0.12399   0.08769   0.37879   0.00000  Uiso   1.00
O59    O     0.09708   0.09587   0.34638   0.00000  Uiso   1.00
O60    O     0.12695   0.04561   0.39372   0.00000  Uiso   1.00
N61    N     0.15318   0.25453   0.38879   0.00000  Uiso   1.00
O62    O     0.12224   0.26328   0.36109   0.00000  Uiso   1.00
O63    O     0.17450   0.28922   0.40592   0.00000  Uiso   1.00
N64    N     0.08973   0.14486   0.11655   0.00000  Uiso   1.00
O65    O     0.06375   0.11326   0.10175   0.00000  Uiso   1.00
O66    O     0.07981   0.17211   0.14899   0.00000  Uiso   1.00
F67    F     0.04080   0.08288   0.25545   0.00000  Uiso   1.00
F68    F     0.29249   0.24917   0.23873   0.00000  Uiso   1.00
F69    F     0.29293   0.08243   0.24535   0.00000  Uiso   1.00
F70    F     0.04020   0.25031   0.25258   0.00000  Uiso   1.00
O71    O     0.43988   0.20625   0.25000   0.00000  Uiso   1.00
O72    O     0.56012   0.12709   0.25001   0.00000  Uiso   1.00
O73    O     0.56012   0.20625   0.25001   0.00000  Uiso   1.00
O74    O     0.43988   0.12709   0.25000   0.00000  Uiso   1.00
N75    N     0.50000   0.28402   0.25000   0.00000  Uiso   1.00
N76    N     0.50000   0.04931   0.25000   0.00000  Uiso   1.00
C77    C     0.42082   0.16667   0.25110   0.00000  Uiso   1.00
C78    C     0.57918   0.16658   0.24885   0.00000  Uiso   1.00
O79    O     0.50000   0.20626   0.18573   0.00000  Uiso   1.00
O80    O     0.50000   0.12707   0.31427   0.00000  Uiso   1.00
O81    O     0.50000   0.20626   0.31427   0.00000  Uiso   1.00
O82    O     0.50000   0.12707   0.18573   0.00000  Uiso   1.00
C83    C     0.49951   0.16631   0.16515   0.00000  Uiso   1.00
C84    C     0.49539   0.16707   0.33460   0.00000  Uiso   1.00
Cu85   Cu    0.50000   0.21355   0.25000   0.00000  Uiso   1.00
Cu86   Cu    0.50000   0.11978   0.25000   0.00000  Uiso   1.00
C87    C     0.47725   0.02426   0.21837   0.00000  Uiso   1.00
C88    C     0.52580   0.30929   0.27899   0.00000  Uiso   1.00
C89    C     0.52333   0.02519   0.28116   0.00000  Uiso   1.00
C90    C     0.47645   0.30818   0.21897   0.00000  Uiso   1.00
C91    C     0.35460   0.12432   0.25156   0.00000  Uiso   1.00
C92    C     0.64536   0.20826   0.24573   0.00000  Uiso   1.00
C93    C     0.64556   0.12414   0.24847   0.00000  Uiso   1.00
C94    C     0.35434   0.20856   0.24971   0.00000  Uiso   1.00
C95    C     0.52927   0.17468   0.04709   0.00000  Uiso   1.00
C96    C     0.47941   0.12421   0.45024   0.00000  Uiso   1.00
C97    C     0.49292   0.20683   0.45474   0.00000  Uiso   1.00
C98    C     0.45768   0.15211   0.04709   0.00000  Uiso   1.00
C99    C     0.53206   0.17573   0.09350   0.00000  Uiso   1.00
C100   C     0.47599   0.12605   0.40372   0.00000  Uiso   1.00
C101   C     0.49009   0.20946   0.40844   0.00000  Uiso   1.00
C102   C     0.45957   0.15361   0.09352   0.00000  Uiso   1.00
C103   C     0.49705   0.16528   0.11678   0.00000  Uiso   1.00
C104   C     0.48665   0.16779   0.38253   0.00000  Uiso   1.00
C105   C     0.49232   0.16271   0.02401   0.00000  Uiso   1.00
C106   C     0.48933   0.16417   0.47543   0.00000  Uiso   1.00
C107   C     0.62380   0.16627   0.24731   0.00000  Uiso   1.00
C108   C     0.37616   0.16655   0.25147   0.00000  Uiso   1.00
N109   N     0.45505   0.04753   0.18313   0.00000  Uiso   1.00
O110   O     0.47028   0.04830   0.14423   0.00000  Uiso   1.00
O111   O     0.41607   0.05487   0.18591   0.00000  Uiso   1.00
N112   N     0.56035   0.28789   0.30208   0.00000  Uiso   1.00
O113   O     0.55550   0.26320   0.33694   0.00000  Uiso   1.00
O114   O     0.59666   0.30466   0.29683   0.00000  Uiso   1.00
N115   N     0.54485   0.04890   0.31754   0.00000  Uiso   1.00
O116   O     0.57972   0.06875   0.31178   0.00000  Uiso   1.00
O117   O     0.53637   0.03859   0.35778   0.00000  Uiso   1.00
N118   N     0.45363   0.28401   0.18396   0.00000  Uiso   1.00
O119   O     0.41429   0.27946   0.18627   0.00000  Uiso   1.00
O120   O     0.46889   0.28102   0.14512   0.00000  Uiso   1.00
F121   F     0.56288   0.18403   0.02423   0.00000  Uiso   1.00
F122   F     0.47180   0.08400   0.47127   0.00000  Uiso   1.00
F123   F     0.49690   0.24624   0.48004   0.00000  Uiso   1.00
F124   F     0.42147   0.14301   0.02420   0.00000  Uiso   1.00
N125   N     0.57063   0.18643   0.11660   0.00000  Uiso   1.00
O126   O     0.58529   0.15941   0.14777   0.00000  Uiso   1.00
O127   O     0.59350   0.21968   0.10295   0.00000  Uiso   1.00
N128   N     0.45732   0.08769   0.37879   0.00000  Uiso   1.00
O129   O     0.43041   0.09587   0.34638   0.00000  Uiso   1.00
O130   O     0.46028   0.04561   0.39372   0.00000  Uiso   1.00
N131   N     0.48651   0.25453   0.38879   0.00000  Uiso   1.00
O132   O     0.45558   0.26328   0.36109   0.00000  Uiso   1.00
O133   O     0.50783   0.28922   0.40592   0.00000  Uiso   1.00
N134   N     0.42306   0.14486   0.11655   0.00000  Uiso   1.00
O135   O     0.39709   0.11326   0.10175   0.00000  Uiso   1.00
O136   O     0.41314   0.17211   0.14899   0.00000  Uiso   1.00
F137   F     0.37414   0.08288   0.25545   0.00000  Uiso   1.00
F138   F     0.62582   0.24917   0.23873   0.00000  Uiso   1.00
F139   F     0.62626   0.08243   0.24535   0.00000  Uiso   1.00
F140   F     0.37353   0.25031   0.25258   0.00000  Uiso   1.00
O141   O     0.77321   0.20625   0.25000   0.00000  Uiso   1.00
O142   O     0.89345   0.12709   0.25001   0.00000  Uiso   1.00
O143   O     0.89345   0.20625   0.25001   0.00000  Uiso   1.00
O144   O     0.77321   0.12709   0.25000   0.00000  Uiso   1.00
N145   N     0.83333   0.28402   0.25000   0.00000  Uiso   1.00
N146   N     0.83333   0.04931   0.25000   0.00000  Uiso   1.00
C147   C     0.75415   0.16667   0.25110   0.00000  Uiso   1.00
C148   C     0.91251   0.16658   0.24885   0.00000  Uiso   1.00
O149   O     0.83333   0.20626   0.18573   0.00000  Uiso   1.00
O150   O     0.83334   0.12707   0.31427   0.00000  Uiso   1.00
O151   O     0.83334   0.20626   0.31427   0.00000  Uiso   1.00
O152   O     0.83333   0.12707   0.18573   0.00000  Uiso   1.00
C153   C     0.83285   0.16631   0.16515   0.00000  Uiso   1.00
C154   C     0.82873   0.16707   0.33460   0.00000  Uiso   1.00
Cu155  Cu    0.83333   0.21355   0.25000   0.00000  Uiso   1.00
Cu156  Cu    0.83333   0.11978   0.25000   0.00000  Uiso   1.00
C157   C     0.81058   0.02426   0.21837   0.00000  Uiso   1.00
C158   C     0.85913   0.30929   0.27899   0.00000  Uiso   1.00
C159   C     0.85667   0.02519   0.28116   0.00000  Uiso   1.00
C160   C     0.80978   0.30818   0.21897   0.00000  Uiso   1.00
C161   C     0.68793   0.12432   0.25156   0.00000  Uiso   1.00
C162   C     0.97869   0.20826   0.24573   0.00000  Uiso   1.00
C163   C     0.97889   0.12414   0.24847   0.00000  Uiso   1.00
C164   C     0.68767   0.20856   0.24971   0.00000  Uiso   1.00
C165   C     0.86260   0.17468   0.04709   0.00000  Uiso   1.00
C166   C     0.81274   0.12421   0.45024   0.00000  Uiso   1.00
C167   C     0.82626   0.20683   0.45474   0.00000  Uiso   1.00
C168   C     0.79101   0.15211   0.04709   0.00000  Uiso   1.00
C169   C     0.86539   0.17573   0.09350   0.00000  Uiso   1.00
C170   C     0.80932   0.12605   0.40372   0.00000  Uiso   1.00
C171   C     0.82342   0.20946   0.40844   0.00000  Uiso   1.00
C172   C     0.79290   0.15361   0.09352   0.00000  Uiso   1.00
C173   C     0.83038   0.16528   0.11678   0.00000  Uiso   1.00
C174   C     0.81998   0.16779   0.38253   0.00000  Uiso   1.00
C175   C     0.82566   0.16271   0.02401   0.00000  Uiso   1.00
C176   C     0.82267   0.16417   0.47543   0.00000  Uiso   1.00
C177   C     0.95713   0.16627   0.24731   0.00000  Uiso   1.00
C178   C     0.70949   0.16655   0.25147   0.00000  Uiso   1.00
N179   N     0.78839   0.04753   0.18313   0.00000  Uiso   1.00
O180   O     0.80361   0.04830   0.14423   0.00000  Uiso   1.00
O181   O     0.74940   0.05487   0.18591   0.00000  Uiso   1.00
N182   N     0.89368   0.28789   0.30208   0.00000  Uiso   1.00
O183   O     0.88883   0.26320   0.33694   0.00000  Uiso   1.00
O184   O     0.92999   0.30466   0.29683   0.00000  Uiso   1.00
N185   N     0.87819   0.04890   0.31754   0.00000  Uiso   1.00
O186   O     0.91305   0.06875   0.31178   0.00000  Uiso   1.00
O187   O     0.86970   0.03859   0.35778   0.00000  Uiso   1.00
N188   N     0.78696   0.28401   0.18396   0.00000  Uiso   1.00
O189   O     0.74762   0.27946   0.18627   0.00000  Uiso   1.00
O190   O     0.80222   0.28102   0.14512   0.00000  Uiso   1.00
F191   F     0.89621   0.18403   0.02423   0.00000  Uiso   1.00
F192   F     0.80513   0.08400   0.47127   0.00000  Uiso   1.00
F193   F     0.83023   0.24624   0.48004   0.00000  Uiso   1.00
F194   F     0.75480   0.14301   0.02420   0.00000  Uiso   1.00
N195   N     0.90397   0.18643   0.11660   0.00000  Uiso   1.00
O196   O     0.91862   0.15941   0.14777   0.00000  Uiso   1.00
O197   O     0.92683   0.21968   0.10295   0.00000  Uiso   1.00
N198   N     0.79065   0.08769   0.37879   0.00000  Uiso   1.00
O199   O     0.76375   0.09587   0.34638   0.00000  Uiso   1.00
O200   O     0.79361   0.04561   0.39372   0.00000  Uiso   1.00
N201   N     0.81984   0.25453   0.38879   0.00000  Uiso   1.00
O202   O     0.78891   0.26328   0.36109   0.00000  Uiso   1.00
O203   O     0.84117   0.28922   0.40592   0.00000  Uiso   1.00
N204   N     0.75640   0.14486   0.11655   0.00000  Uiso   1.00
O205   O     0.73042   0.11326   0.10175   0.00000  Uiso   1.00
O206   O     0.74648   0.17211   0.14899   0.00000  Uiso   1.00
F207   F     0.70747   0.08288   0.25545   0.00000  Uiso   1.00
F208   F     0.95915   0.24917   0.23873   0.00000  Uiso   1.00
F209   F     0.95959   0.08243   0.24535   0.00000  Uiso   1.00
F210   F     0.70687   0.25031   0.25258   0.00000  Uiso   1.00
O211   O     0.10655   0.53958   0.25000   0.00000  Uiso   1.00
O212   O     0.22679   0.46042   0.25001   0.00000  Uiso   1.00
O213   O     0.22679   0.53958   0.25001   0.00000  Uiso   1.00
O214   O     0.10655   0.46042   0.25000   0.00000  Uiso   1.00
N215   N     0.16667   0.61736   0.25000   0.00000  Uiso   1.00
N216   N     0.16667   0.38264   0.25000   0.00000  Uiso   1.00
C217   C     0.08749   0.50000   0.25110   0.00000  Uiso   1.00
C218   C     0.24585   0.49991   0.24885   0.00000  Uiso   1.00
O219   O     0.16666   0.53959   0.18573   0.00000  Uiso   1.00
O220   O     0.16667   0.46041   0.31427   0.00000  Uiso   1.00
O221   O     0.16667   0.53959   0.31427   0.00000  Uiso   1.00
O222   O     0.16666   0.46041   0.18573   0.00000  Uiso   1.00
C223   C     0.16618   0.49964   0.16515   0.00000  Uiso   1.00
C224   C     0.16206   0.50041   0.33460   0.00000  Uiso   1.00
Cu225  Cu    0.16667   0.54689   0.25000   0.00000  Uiso   1.00
Cu226  Cu    0.16667   0.45311   0.25000   0.00000  Uiso   1.00
C227   C     0.14392   0.35759   0.21837   0.00000  Uiso   1.00
C228   C     0.19246   0.64263   0.27899   0.00000  Uiso   1.00
C229   C     0.19000   0.35852   0.28116   0.00000  Uiso   1.00
C230   C     0.14311   0.64152   0.21897   0.00000  Uiso   1.00
C231   C     0.02127   0.45765   0.25156   0.00000  Uiso   1.00
C232   C     0.31202   0.54159   0.24573   0.00000  Uiso   1.00
C233   C     0.31222   0.45748   0.24847   0.00000  Uiso   1.00
C234   C     0.02101   0.54190   0.24971   0.00000  Uiso   1.00
C235   C     0.19594   0.50802   0.04709   0.00000  Uiso   1.00
C236   C     0.14607   0.45754   0.45024   0.00000  Uiso   1.00
C237   C     0.15959   0.54016   0.45474   0.00000  Uiso   1.00
C238   C     0.12434   0.48544   0.04709   0.00000  Uiso   1.00
C239   C     0.19872   0.50907   0.09350   0.00000  Uiso   1.00
C240   C     0.14265   0.45938   0.40372   0.00000  Uiso   1.00
C241   C     0.15675   0.54280   0.40844   0.00000  Uiso   1.00
C242   C     0.12624   0.48695   0.09352   0.00000  Uiso   1.00
C243   C     0.16371   0.49861   0.11678   0.00000  Uiso   1.00
C244   C     0.15331   0.50113   0.38253   0.00000  Uiso   1.00
C245   C     0.15899   0.49604   0.02401   0.00000  Uiso   1.00
C246   C     0.15600   0.49751   0.47543   0.00000  Uiso   1.00
C247   C     0.29046   0.49960   0.24731   0.00000  Uiso   1.00
C248   C     0.04282   0.49988   0.25147   0.00000  Uiso   1.00
N249   N     0.12172   0.38086   0.18313   0.00000  Uiso   1.00
O250   O     0.13695   0.38163   0.14423   0.00000  Uiso   1.00
O251   O     0.08273   0.38820   0.18591   0.00000  Uiso   1.00
N252   N     0.22701   0.62123   0.30208   0.00000  Uiso   1.00
O253   O     0.22216   0.59654   0.33694   0.00000  Uiso   1.00
O254   O     0.26333   0.63799   0.29683   0.00000  Uiso   1.00
N255   N     0.21152   0.38223   0.31754   0.00000  Uiso   1.00
O256   O     0.24639   0.40208   0.31178   0.00000  Uiso   1.00
O257   O     0.20303   0.37192   0.35778   0.00000  Uiso   1.00
N258   N     0.12029   0.61734   0.18396   0.00000  Uiso   1.00
O259   O     0.08096   0.61279   0.18627   0.00000  Uiso   1.00
O260   O     0.13556   0.61435   0.14512   0.00000  Uiso   1.00
F261   F     0.22954   0.51737   0.02423   0.00000  Uiso   1.00
F262   F     0.13847   0.41733   0.47127   0.00000  Uiso   1.00
F263   F     0.16356   0.57957   0.48004   0.00000  Uiso   1.00
F264   F     0.08813   0.47634   0.02420   0.00000  Uiso   1.00
N265   N     0.23730   0.51976   0.11660   0.00000  Uiso   1.00
O266   O     0.25196   0.49274   0.14777   0.00000  Uiso   1.00
O267   O     0.26016   0.55301   0.10295   0.00000  Uiso   1.00
N268   N     0.12399   0.42102   0.37879   0.00000  Uiso   1.00
O269   O     0.09708   0.42921   0.34638   0.00000  Uiso   1.00
O270   O     0.12695   0.37895   0.39372   0.00000  Uiso   1.00
N271   N     0.15318   0.58787   0.38879   0.00000  Uiso   1.00
O272   O     0.12224   0.59662   0.36109   0.00000  Uiso   1.00
O273   O     0.17450   0.62255   0.40592   0.00000  Uiso   1.00
N274   N     0.08973   0.47820   0.11655   0.00000  Uiso   1.00
O275   O     0.06375   0.44659   0.10175   0.00000  Uiso   1.00
O276   O     0.07981   0.50544   0.14899   0.00000  Uiso   1.00
F277   F     0.04080   0.41621   0.25545   0.00000  Uiso   1.00
F278   F     0.29249   0.58251   0.23873   0.00000  Uiso   1.00
F279   F     0.29293   0.41577   0.24535   0.00000  Uiso   1.00
F280   F     0.04020   0.58365   0.25258   0.00000  Uiso   1.00
O281   O     0.43988   0.53958   0.25000   0.00000  Uiso   1.00
O282   O     0.56012   0.46042   0.25001   0.00000  Uiso   1.00
O283   O     0.56012   0.53958   0.25001   0.00000  Uiso   1.00
O284   O     0.43988   0.46042   0.25000   0.00000  Uiso   1.00
N285   N     0.50000   0.61736   0.25000   0.00000  Uiso   1.00
N286   N     0.50000   0.38264   0.25000   0.00000  Uiso   1.00
C287   C     0.42082   0.50000   0.25110   0.00000  Uiso   1.00
C288   C     0.57918   0.49991   0.24885   0.00000  Uiso   1.00
O289   O     0.50000   0.53959   0.18573   0.00000  Uiso   1.00
O290   O     0.50000   0.46041   0.31427   0.00000  Uiso   1.00
O291   O     0.50000   0.53959   0.31427   0.00000  Uiso   1.00
O292   O     0.50000   0.46041   0.18573   0.00000  Uiso   1.00
C293   C     0.49951   0.49964   0.16515   0.00000  Uiso   1.00
C294   C     0.49539   0.50041   0.33460   0.00000  Uiso   1.00
Cu295  Cu    0.50000   0.54689   0.25000   0.00000  Uiso   1.00
Cu296  Cu    0.50000   0.45311   0.25000   0.00000  Uiso   1.00
C297   C     0.47725   0.35759   0.21837   0.00000  Uiso   1.00
C298   C     0.52580   0.64263   0.27899   0.00000  Uiso   1.00
C299   C     0.52333   0.35852   0.28116   0.00000  Uiso   1.00
C300   C     0.47645   0.64152   0.21897   0.00000  Uiso   1.00
C301   C     0.35460   0.45765   0.25156   0.00000  Uiso   1.00
C302   C     0.64536   0.54159   0.24573   0.00000  Uiso   1.00
C303   C     0.64556   0.45748   0.24847   0.00000  Uiso   1.00
C304   C     0.35434   0.54190   0.24971   0.00000  Uiso   1.00
C305   C     0.52927   0.50802   0.04709   0.00000  Uiso   1.00
C306   C     0.47941   0.45754   0.45024   0.00000  Uiso   1.00
C307   C     0.49292   0.54016   0.45474   0.00000  Uiso   1.00
C308   C     0.45768   0.48544   0.04709   0.00000  Uiso   1.00
C309   C     0.53206   0.50907   0.09350   0.00000  Uiso   1.00
C310   C     0.47599   0.45938   0.40372   0.00000  Uiso   1.00
C311   C     0.49009   0.54280   0.40844   0.00000  Uiso   1.00
C312   C     0.45957   0.48695   0.09352   0.00000  Uiso   1.00
C313   C     0.49705   0.49861   0.11678   0.00000  Uiso   1.00
C314   C     0.48665   0.50113   0.38253   0.00000  Uiso   1.00
C315   C     0.49232   0.49604   0.02401   0.00000  Uiso   1.00
C316   C     0.48933   0.49751   0.47543   0.00000  Uiso   1.00
C317   C     0.62380   0.49960   0.24731   0.00000  Uiso   1.00
C318   C     0.37616   0.49988   0.25147   0.00000  Uiso   1.00
N319   N     0.45505   0.38086   0.18313   0.00000  Uiso   1.00
O320   O     0.47028   0.38163   0.14423   0.00000  Uiso   1.00
O321   O     0.41607   0.38820   0.18591   0.00000  Uiso   1.00
N322   N     0.56035   0.62123   0.30208   0.00000  Uiso   1.00
O323   O     0.55550   0.59654   0.33694   0.00000  Uiso   1.00
O324   O     0.59666   0.63799   0.29683   0.00000  Uiso   1.00
N325   N     0.54485   0.38223   0.31754   0.00000  Uiso   1.00
O326   O     0.57972   0.40208   0.31178   0.00000  Uiso   1.00
O327   O     0.53637   0.37192   0.35778   0.00000  Uiso   1.00
N328   N     0.45363   0.61734   0.18396   0.00000  Uiso   1.00
O329   O     0.41429   0.61279   0.18627   0.00000  Uiso   1.00
O330   O     0.46889   0.61435   0.14512   0.00000  Uiso   1.00
F331   F     0.56288   0.51737   0.02423   0.00000  Uiso   1.00
F332   F     0.47180   0.41733   0.47127   0.00000  Uiso   1.00
F333   F     0.49690   0.57957   0.48004   0.00000  Uiso   1.00
F334   F     0.42147   0.47634   0.02420   0.00000  Uiso   1.00
N335   N     0.57063   0.51976   0.11660   0.00000  Uiso   1.00
O336   O     0.58529   0.49274   0.14777   0.00000  Uiso   1.00
O337   O     0.59350   0.55301   0.10295   0.00000  Uiso   1.00
N338   N     0.45732   0.42102   0.37879   0.00000  Uiso   1.00
O339   O     0.43041   0.42921   0.34638   0.00000  Uiso   1.00
O340   O     0.46028   0.37895   0.39372   0.00000  Uiso   1.00
N341   N     0.48651   0.58787   0.38879   0.00000  Uiso   1.00
O342   O     0.45558   0.59662   0.36109   0.00000  Uiso   1.00
O343   O     0.50783   0.62255   0.40592   0.00000  Uiso   1.00
N344   N     0.42306   0.47820   0.11655   0.00000  Uiso   1.00
O345   O     0.39709   0.44659   0.10175   0.00000  Uiso   1.00
O346   O     0.41314   0.50544   0.14899   0.00000  Uiso   1.00
F347   F     0.37414   0.41621   0.25545   0.00000  Uiso   1.00
F348   F     0.62582   0.58251   0.23873   0.00000  Uiso   1.00
F349   F     0.62626   0.41577   0.24535   0.00000  Uiso   1.00
F350   F     0.37353   0.58365   0.25258   0.00000  Uiso   1.00
O351   O     0.77321   0.53958   0.25000   0.00000  Uiso   1.00
O352   O     0.89345   0.46042   0.25001   0.00000  Uiso   1.00
O353   O     0.89345   0.53958   0.25001   0.00000  Uiso   1.00
O354   O     0.77321   0.46042   0.25000   0.00000  Uiso   1.00
N355   N     0.83333   0.61736   0.25000   0.00000  Uiso   1.00
N356   N     0.83333   0.38264   0.25000   0.00000  Uiso   1.00
C357   C     0.75415   0.50000   0.25110   0.00000  Uiso   1.00
C358   C     0.91251   0.49991   0.24885   0.00000  Uiso   1.00
O359   O     0.83333   0.53959   0.18573   0.00000  Uiso   1.00
O360   O     0.83334   0.46041   0.31427   0.00000  Uiso   1.00
O361   O     0.83334   0.53959   0.31427   0.00000  Uiso   1.00
O362   O     0.83333   0.46041   0.18573   0.00000  Uiso   1.00
C363   C     0.83285   0.49964   0.16515   0.00000  Uiso   1.00
C364   C     0.82873   0.50041   0.33460   0.00000  Uiso   1.00
Cu365  Cu    0.83333   0.54689   0.25000   0.00000  Uiso   1.00
Cu366  Cu    0.83333   0.45311   0.25000   0.00000  Uiso   1.00
C367   C     0.81058   0.35759   0.21837   0.00000  Uiso   1.00
C368   C     0.85913   0.64263   0.27899   0.00000  Uiso   1.00
C369   C     0.85667   0.35852   0.28116   0.00000  Uiso   1.00
C370   C     0.80978   0.64152   0.21897   0.00000  Uiso   1.00
C371   C     0.68793   0.45765   0.25156   0.00000  Uiso   1.00
C372   C     0.97869   0.54159   0.24573   0.00000  Uiso   1.00
C373   C     0.97889   0.45748   0.24847   0.00000  Uiso   1.00
C374   C     0.68767   0.54190   0.24971   0.00000  Uiso   1.00
C375   C     0.86260   0.50802   0.04709   0.00000  Uiso   1.00
C376   C     0.81274   0.45754   0.45024   0.00000  Uiso   1.00
C377   C     0.82626   0.54016   0.45474   0.00000  Uiso   1.00
C378   C     0.79101   0.48544   0.04709   0.00000  Uiso   1.00
C379   C     0.86539   0.50907   0.09350   0.00000  Uiso   1.00
C380   C     0.80932   0.45938   0.40372   0.00000  Uiso   1.00
C381   C     0.82342   0.54280   0.40844   0.00000  Uiso   1.00
C382   C     0.79290   0.48695   0.09352   0.00000  Uiso   1.00
C383   C     0.83038   0.49861   0.11678   0.00000  Uiso   1.00
C384   C     0.81998   0.50113   0.38253   0.00000  Uiso   1.00
C385   C     0.82566   0.49604   0.02401   0.00000  Uiso   1.00
C386   C     0.82267   0.49751   0.47543   0.00000  Uiso   1.00
C387   C     0.95713   0.49960   0.24731   0.00000  Uiso   1.00
C388   C     0.70949   0.49988   0.25147   0.00000  Uiso   1.00
N389   N     0.78839   0.38086   0.18313   0.00000  Uiso   1.00
O390   O     0.80361   0.38163   0.14423   0.00000  Uiso   1.00
O391   O     0.74940   0.38820   0.18591   0.00000  Uiso   1.00
N392   N     0.89368   0.62123   0.30208   0.00000  Uiso   1.00
O393   O     0.88883   0.59654   0.33694   0.00000  Uiso   1.00
O394   O     0.92999   0.63799   0.29683   0.00000  Uiso   1.00
N395   N     0.87819   0.38223   0.31754   0.00000  Uiso   1.00
O396   O     0.91305   0.40208   0.31178   0.00000  Uiso   1.00
O397   O     0.86970   0.37192   0.35778   0.00000  Uiso   1.00
N398   N     0.78696   0.61734   0.18396   0.00000  Uiso   1.00
O399   O     0.74762   0.61279   0.18627   0.00000  Uiso   1.00
O400   O     0.80222   0.61435   0.14512   0.00000  Uiso   1.00
F401   F     0.89621   0.51737   0.02423   0.00000  Uiso   1.00
F402   F     0.80513   0.41733   0.47127   0.00000  Uiso   1.00
F403   F     0.83023   0.57957   0.48004   0.00000  Uiso   1.00
F404   F     0.75480   0.47634   0.02420   0.00000  Uiso   1.00
N405   N     0.90397   0.51976   0.11660   0.00000  Uiso   1.00
O406   O     0.91862   0.49274   0.14777   0.00000  Uiso   1.00
O407   O     0.92683   0.55301   0.10295   0.00000  Uiso   1.00
N408   N     0.79065   0.42102   0.37879   0.00000  Uiso   1.00
O409   O     0.76375   0.42921   0.34638   0.00000  Uiso   1.00
O410   O     0.79361   0.37895   0.39372   0.00000  Uiso   1.00
N411   N     0.81984   0.58787   0.38879   0.00000  Uiso   1.00
O412   O     0.78891   0.59662   0.36109   0.00000  Uiso   1.00
O413   O     0.84117   0.62255   0.40592   0.00000  Uiso   1.00
N414   N     0.75640   0.47820   0.11655   0.00000  Uiso   1.00
O415   O     0.73042   0.44659   0.10175   0.00000  Uiso   1.00
O416   O     0.74648   0.50544   0.14899   0.00000  Uiso   1.00
F417   F     0.70747   0.41621   0.25545   0.00000  Uiso   1.00
F418   F     0.95915   0.58251   0.23873   0.00000  Uiso   1.00
F419   F     0.95959   0.41577   0.24535   0.00000  Uiso   1.00
F420   F     0.70687   0.58365   0.25258   0.00000  Uiso   1.00
O421   O     0.10655   0.87291   0.25000   0.00000  Uiso   1.00
O422   O     0.22679   0.79375   0.25001   0.00000  Uiso   1.00
O423   O     0.22679   0.87291   0.25001   0.00000  Uiso   1.00
O424   O     0.10655   0.79375   0.25000   0.00000  Uiso   1.00
N425   N     0.16667   0.95069   0.25000   0.00000  Uiso   1.00
N426   N     0.16667   0.71598   0.25000   0.00000  Uiso   1.00
C427   C     0.08749   0.83333   0.25110   0.00000  Uiso   1.00
C428   C     0.24585   0.83324   0.24885   0.00000  Uiso   1.00
O429   O     0.16666   0.87293   0.18573   0.00000  Uiso   1.00
O430   O     0.16667   0.79374   0.31427   0.00000  Uiso   1.00
O431   O     0.16667   0.87293   0.31427   0.00000  Uiso   1.00
O432   O     0.16666   0.79374   0.18573   0.00000  Uiso   1.00
C433   C     0.16618   0.83298   0.16515   0.00000  Uiso   1.00
C434   C     0.16206   0.83374   0.33460   0.00000  Uiso   1.00
Cu435  Cu    0.16667   0.88022   0.25000   0.00000  Uiso   1.00
Cu436  Cu    0.16667   0.78645   0.25000   0.00000  Uiso   1.00
C437   C     0.14392   0.69092   0.21837   0.00000  Uiso   1.00
C438   C     0.19246   0.97596   0.27899   0.00000  Uiso   1.00
C439   C     0.19000   0.69185   0.28116   0.00000  Uiso   1.00
C440   C     0.14311   0.97485   0.21897   0.00000  Uiso   1.00
C441   C     0.02127   0.79098   0.25156   0.00000  Uiso   1.00
C442   C     0.31202   0.87492   0.24573   0.00000  Uiso   1.00
C443   C     0.31222   0.79081   0.24847   0.00000  Uiso   1.00
C444   C     0.02101   0.87523   0.24971   0.00000  Uiso   1.00
C445   C     0.19594   0.84135   0.04709   0.00000  Uiso   1.00
C446   C     0.14607   0.79088   0.45024   0.00000  Uiso   1.00
C447   C     0.15959   0.87349   0.45474   0.00000  Uiso   1.00
C448   C     0.12434   0.81877   0.04709   0.00000  Uiso   1.00
C449   C     0.19872   0.84240   0.09350   0.00000  Uiso   1.00
C450   C     0.14265   0.79271   0.40372   0.00000  Uiso   1.00
C451   C     0.15675   0.87613   0.40844   0.00000  Uiso   1.00
C452   C     0.12624   0.82028   0.09352   0.00000  Uiso   1.00
C453   C     0.16371   0.83195   0.11678   0.00000  Uiso   1.00
C454   C     0.15331   0.83446   0.38253   0.00000  Uiso   1.00
C455   C     0.15899   0.82938   0.02401   0.00000  Uiso   1.00
C456   C     0.15600   0.83084   0.47543   0.00000  Uiso   1.00
C457   C     0.29046   0.83294   0.24731   0.00000  Uiso   1.00
C458   C     0.04282   0.83321   0.25147   0.00000  Uiso   1.00
N459   N     0.12172   0.71419   0.18313   0.00000  Uiso   1.00
O460   O     0.13695   0.71496   0.14423   0.00000  Uiso   1.00
O461   O     0.08273   0.72153   0.18591   0.00000  Uiso   1.00
N462   N     0.22701   0.95456   0.30208   0.00000  Uiso   1.00
O463   O     0.22216   0.92987   0.33694   0.00000  Uiso   1.00
O464   O     0.26333   0.97132   0.29683   0.00000  Uiso   1.00
N465   N     0.21152   0.71556   0.31754   0.00000  Uiso   1.00
O466   O     0.24639   0.73542   0.31178   0.00000  Uiso   1.00
O467   O     0.20303   0.70525   0.35778   0.00000  Uiso   1.00
N468   N     0.12029   0.95068   0.18396   0.00000  Uiso   1.00
O469   O     0.08096   0.94612   0.18627   0.00000  Uiso   1.00
O470   O     0.13556   0.94768   0.14512   0.00000  Uiso   1.00
F471   F     0.22954   0.85070   0.02423   0.00000  Uiso   1.00
F472   F     0.13847   0.75067   0.47127   0.00000  Uiso   1.00
F473   F     0.16356   0.91291   0.48004   0.00000  Uiso   1.00
F474   F     0.08813   0.80967   0.02420   0.00000  Uiso   1.00
N475   N     0.23730   0.85310   0.11660   0.00000  Uiso   1.00
O476   O     0.25196   0.82608   0.14777   0.00000  Uiso   1.00
O477   O     0.26016   0.88635   0.10295   0.00000  Uiso   1.00
N478   N     0.12399   0.75436   0.37879   0.00000  Uiso   1.00
O479   O     0.09708   0.76254   0.34638   0.00000  Uiso   1.00
O480   O     0.12695   0.71228   0.39372   0.00000  Uiso   1.00
N481   N     0.15318   0.92120   0.38879   0.00000  Uiso   1.00
O482   O     0.12224   0.92995   0.36109   0.00000  Uiso   1.00
O483   O     0.17450   0.95589   0.40592   0.00000  Uiso   1.00
N484   N     0.08973   0.81153   0.11655   0.00000  Uiso   1.00
O485   O     0.06375   0.77992   0.10175   0.00000  Uiso   1.00
O486   O     0.07981   0.83878   0.14899   0.00000  Uiso   1.00
F487   F     0.04080   0.74955   0.25545   0.00000  Uiso   1.00
F488   F     0.29249   0.91584   0.23873   0.00000  Uiso   1.00
F489   F     0.29293   0.74910   0.24535   0.00000  Uiso   1.00
F490   F     0.04020   0.91698   0.25258   0.00000  Uiso   1.00
O491   O     0.43988   0.87291   0.25000   0.00000  Uiso   1.00
O492   O     0.56012   0.79375   0.25001   0.00000  Uiso   1.00
O493   O     0.56012   0.87291   0.25001   0.00000  Uiso   1.00
O494   O     0.43988   0.79375   0.25000   0.00000  Uiso   1.00
N495   N     0.50000   0.95069   0.25000   0.00000  Uiso   1.00
N496   N     0.50000   0.71598   0.25000   0.00000  Uiso   1.00
C497   C     0.42082   0.83333   0.25110   0.00000  Uiso   1.00
C498   C     0.57918   0.83324   0.24885   0.00000  Uiso   1.00
O499   O     0.50000   0.87293   0.18573   0.00000  Uiso   1.00
O500   O     0.50000   0.79374   0.31427   0.00000  Uiso   1.00
O501   O     0.50000   0.87293   0.31427   0.00000  Uiso   1.00
O502   O     0.50000   0.79374   0.18573   0.00000  Uiso   1.00
C503   C     0.49951   0.83298   0.16515   0.00000  Uiso   1.00
C504   C     0.49539   0.83374   0.33460   0.00000  Uiso   1.00
Cu505  Cu    0.50000   0.88022   0.25000   0.00000  Uiso   1.00
Cu506  Cu    0.50000   0.78645   0.25000   0.00000  Uiso   1.00
C507   C     0.47725   0.69092   0.21837   0.00000  Uiso   1.00
C508   C     0.52580   0.97596   0.27899   0.00000  Uiso   1.00
C509   C     0.52333   0.69185   0.28116   0.00000  Uiso   1.00
C510   C     0.47645   0.97485   0.21897   0.00000  Uiso   1.00
C511   C     0.35460   0.79098   0.25156   0.00000  Uiso   1.00
C512   C     0.64536   0.87492   0.24573   0.00000  Uiso   1.00
C513   C     0.64556   0.79081   0.24847   0.00000  Uiso   1.00
C514   C     0.35434   0.87523   0.24971   0.00000  Uiso   1.00
C515   C     0.52927   0.84135   0.04709   0.00000  Uiso   1.00
C516   C     0.47941   0.79088   0.45024   0.00000  Uiso   1.00
C517   C     0.49292   0.87349   0.45474   0.00000  Uiso   1.00
C518   C     0.45768   0.81877   0.04709   0.00000  Uiso   1.00
C519   C     0.53206   0.84240   0.09350   0.00000  Uiso   1.00
C520   C     0.47599   0.79271   0.40372   0.00000  Uiso   1.00
C521   C     0.49009   0.87613   0.40844   0.00000  Uiso   1.00
C522   C     0.45957   0.82028   0.09352   0.00000  Uiso   1.00
C523   C     0.49705   0.83195   0.11678   0.00000  Uiso   1.00
C524   C     0.48665   0.83446   0.38253   0.00000  Uiso   1.00
C525   C     0.49232   0.82938   0.02401   0.00000  Uiso   1.00
C526   C     0.48933   0.83084   0.47543   0.00000  Uiso   1.00
C527   C     0.62380   0.83294   0.24731   0.00000  Uiso   1.00
C528   C     0.37616   0.83321   0.25147   0.00000  Uiso   1.00
N529   N     0.45505   0.71419   0.18313   0.00000  Uiso   1.00
O530   O     0.47028   0.71496   0.14423   0.00000  Uiso   1.00
O531   O     0.41607   0.72153   0.18591   0.00000  Uiso   1.00
N532   N     0.56035   0.95456   0.30208   0.00000  Uiso   1.00
O533   O     0.55550   0.92987   0.33694   0.00000  Uiso   1.00
O534   O     0.59666   0.97132   0.29683   0.00000  Uiso   1.00
N535   N     0.54485   0.71556   0.31754   0.00000  Uiso   1.00
O536   O     0.57972   0.73542   0.31178   0.00000  Uiso   1.00
O537   O     0.53637   0.70525   0.35778   0.00000  Uiso   1.00
N538   N     0.45363   0.95068   0.18396   0.00000  Uiso   1.00
O539   O     0.41429   0.94612   0.18627   0.00000  Uiso   1.00
O540   O     0.46889   0.94768   0.14512   0.00000  Uiso   1.00
F541   F     0.56288   0.85070   0.02423   0.00000  Uiso   1.00
F542   F     0.47180   0.75067   0.47127   0.00000  Uiso   1.00
F543   F     0.49690   0.91291   0.48004   0.00000  Uiso   1.00
F544   F     0.42147   0.80967   0.02420   0.00000  Uiso   1.00
N545   N     0.57063   0.85310   0.11660   0.00000  Uiso   1.00
O546   O     0.58529   0.82608   0.14777   0.00000  Uiso   1.00
O547   O     0.59350   0.88635   0.10295   0.00000  Uiso   1.00
N548   N     0.45732   0.75436   0.37879   0.00000  Uiso   1.00
O549   O     0.43041   0.76254   0.34638   0.00000  Uiso   1.00
O550   O     0.46028   0.71228   0.39372   0.00000  Uiso   1.00
N551   N     0.48651   0.92120   0.38879   0.00000  Uiso   1.00
O552   O     0.45558   0.92995   0.36109   0.00000  Uiso   1.00
O553   O     0.50783   0.95589   0.40592   0.00000  Uiso   1.00
N554   N     0.42306   0.81153   0.11655   0.00000  Uiso   1.00
O555   O     0.39709   0.77992   0.10175   0.00000  Uiso   1.00
O556   O     0.41314   0.83878   0.14899   0.00000  Uiso   1.00
F557   F     0.37414   0.74955   0.25545   0.00000  Uiso   1.00
F558   F     0.62582   0.91584   0.23873   0.00000  Uiso   1.00
F559   F     0.62626   0.74910   0.24535   0.00000  Uiso   1.00
F560   F     0.37353   0.91698   0.25258   0.00000  Uiso   1.00
O561   O     0.77321   0.87291   0.25000   0.00000  Uiso   1.00
O562   O     0.89345   0.79375   0.25001   0.00000  Uiso   1.00
O563   O     0.89345   0.87291   0.25001   0.00000  Uiso   1.00
O564   O     0.77321   0.79375   0.25000   0.00000  Uiso   1.00
N565   N     0.83333   0.95069   0.25000   0.00000  Uiso   1.00
N566   N     0.83333   0.71598   0.25000   0.00000  Uiso   1.00
C567   C     0.75415   0.83333   0.25110   0.00000  Uiso   1.00
C568   C     0.91251   0.83324   0.24885   0.00000  Uiso   1.00
O569   O     0.83333   0.87293   0.18573   0.00000  Uiso   1.00
O570   O     0.83334   0.79374   0.31427   0.00000  Uiso   1.00
O571   O     0.83334   0.87293   0.31427   0.00000  Uiso   1.00
O572   O     0.83333   0.79374   0.18573   0.00000  Uiso   1.00
C573   C     0.83285   0.83298   0.16515   0.00000  Uiso   1.00
C574   C     0.82873   0.83374   0.33460   0.00000  Uiso   1.00
Cu575  Cu    0.83333   0.88022   0.25000   0.00000  Uiso   1.00
Cu576  Cu    0.83333   0.78645   0.25000   0.00000  Uiso   1.00
C577   C     0.81058   0.69092   0.21837   0.00000  Uiso   1.00
C578   C     0.85913   0.97596   0.27899   0.00000  Uiso   1.00
C579   C     0.85667   0.69185   0.28116   0.00000  Uiso   1.00
C580   C     0.80978   0.97485   0.21897   0.00000  Uiso   1.00
C581   C     0.68793   0.79098   0.25156   0.00000  Uiso   1.00
C582   C     0.97869   0.87492   0.24573   0.00000  Uiso   1.00
C583   C     0.97889   0.79081   0.24847   0.00000  Uiso   1.00
C584   C     0.68767   0.87523   0.24971   0.00000  Uiso   1.00
C585   C     0.86260   0.84135   0.04709   0.00000  Uiso   1.00
C586   C     0.81274   0.79088   0.45024   0.00000  Uiso   1.00
C587   C     0.82626   0.87349   0.45474   0.00000  Uiso   1.00
C588   C     0.79101   0.81877   0.04709   0.00000  Uiso   1.00
C589   C     0.86539   0.84240   0.09350   0.00000  Uiso   1.00
C590   C     0.80932   0.79271   0.40372   0.00000  Uiso   1.00
C591   C     0.82342   0.87613   0.40844   0.00000  Uiso   1.00
C592   C     0.79290   0.82028   0.09352   0.00000  Uiso   1.00
C593   C     0.83038   0.83195   0.11678   0.00000  Uiso   1.00
C594   C     0.81998   0.83446   0.38253   0.00000  Uiso   1.00
C595   C     0.82566   0.82938   0.02401   0.00000  Uiso   1.00
C596   C     0.82267   0.83084   0.47543   0.00000  Uiso   1.00
C597   C     0.95713   0.83294   0.24731   0.00000  Uiso   1.00
C598   C     0.70949   0.83321   0.25147   0.00000  Uiso   1.00
N599   N     0.78839   0.71419   0.18313   0.00000  Uiso   1.00
O600   O     0.80361   0.71496   0.14423   0.00000  Uiso   1.00
O601   O     0.74940   0.72153   0.18591   0.00000  Uiso   1.00
N602   N     0.89368   0.95456   0.30208   0.00000  Uiso   1.00
O603   O     0.88883   0.92987   0.33694   0.00000  Uiso   1.00
O604   O     0.92999   0.97132   0.29683   0.00000  Uiso   1.00
N605   N     0.87819   0.71556   0.31754   0.00000  Uiso   1.00
O606   O     0.91305   0.73542   0.31178   0.00000  Uiso   1.00
O607   O     0.86970   0.70525   0.35778   0.00000  Uiso   1.00
N608   N     0.78696   0.95068   0.18396   0.00000  Uiso   1.00
O609   O     0.74762   0.94612   0.18627   0.00000  Uiso   1.00
O610   O     0.80222   0.94768   0.14512   0.00000  Uiso   1.00
F611   F     0.89621   0.85070   0.02423   0.00000  Uiso   1.00
F612   F     0.80513   0.75067   0.47127   0.00000  Uiso   1.00
F613   F     0.83023   0.91291   0.48004   0.00000  Uiso   1.00
F614   F     0.75480   0.80967   0.02420   0.00000  Uiso   1.00
N615   N     0.90397   0.85310   0.11660   0.00000  Uiso   1.00
O616   O     0.91862   0.82608   0.14777   0.00000  Uiso   1.00
O617   O     0.92683   0.88635   0.10295   0.00000  Uiso   1.00
N618   N     0.79065   0.75436   0.37879   0.00000  Uiso   1.00
O619   O     0.76375   0.76254   0.34638   0.00000  Uiso   1.00
O620   O     0.79361   0.71228   0.39372   0.00000  Uiso   1.00
N621   N     0.81984   0.92120   0.38879   0.00000  Uiso   1.00
O622   O     0.78891   0.92995   0.36109   0.00000  Uiso   1.00
O623   O     0.84117   0.95589   0.40592   0.00000  Uiso   1.00
N624   N     0.75640   0.81153   0.11655   0.00000  Uiso   1.00
O625   O     0.73042   0.77992   0.10175   0.00000  Uiso   1.00
O626   O     0.74648   0.83878   0.14899   0.00000  Uiso   1.00
F627   F     0.70747   0.74955   0.25545   0.00000  Uiso   1.00
F628   F     0.95915   0.91584   0.23873   0.00000  Uiso   1.00
F629   F     0.95959   0.74910   0.24535   0.00000  Uiso   1.00
F630   F     0.70687   0.91698   0.25258   0.00000  Uiso   1.00
O631   O     0.10655   0.20625   0.75000   0.00000  Uiso   1.00
O632   O     0.22679   0.12709   0.75001   0.00000  Uiso   1.00
O633   O     0.22679   0.20625   0.75001   0.00000  Uiso   1.00
O634   O     0.10655   0.12709   0.75000   0.00000  Uiso   1.00
N635   N     0.16667   0.28402   0.75000   0.00000  Uiso   1.00
N636   N     0.16667   0.04931   0.75000   0.00000  Uiso   1.00
C637   C     0.08749   0.16667   0.75110   0.00000  Uiso   1.00
C638   C     0.24585   0.16658   0.74885   0.00000  Uiso   1.00
O639   O     0.16666   0.20626   0.68573   0.00000  Uiso   1.00
O640   O     0.16667   0.12707   0.81427   0.00000  Uiso   1.00
O641   O     0.16667   0.20626   0.81427   0.00000  Uiso   1.00
O642   O     0.16666   0.12707   0.68573   0.00000  Uiso   1.00
C643   C     0.16618   0.16631   0.66515   0.00000  Uiso   1.00
C644   C     0.16206   0.16707   0.83460   0.00000  Uiso   1.00
Cu645  Cu    0.16667   0.21355   0.75000   0.00000  Uiso   1.00
Cu646  Cu    0.16667   0.11978   0.75000   0.00000  Uiso   1.00
C647   C     0.14392   0.02426   0.71837   0.00000  Uiso   1.00
C648   C     0.19246   0.30929   0.77899   0.00000  Uiso   1.00
C649   C     0.19000   0.02519   0.78116   0.00000  Uiso   1.00
C650   C     0.14311   0.30818   0.71897   0.00000  Uiso   1.00
C651   C     0.02127   0.12432   0.75156   0.00000  Uiso   1.00
C652   C     0.31202   0.20826   0.74573   0.00000  Uiso   1.00
C653   C     0.31222   0.12414   0.74847   0.00000  Uiso   1.00
C654   C     0.02101   0.20856   0.74971   0.00000  Uiso   1.00
C655   C     0.19594   0.17468   0.54709   0.00000  Uiso   1.00
C656   C     0.14607   0.12421   0.95024   0.00000  Uiso   1.00
C657   C     0.15959   0.20683   0.95474   0.00000  Uiso   1.00
C658   C     0.12434   0.15211   0.54709   0.00000  Uiso   1.00
C659   C     0.19872   0.17573   0.59350   0.00000  Uiso   1.00
C660   C     0.14265   0.12605   0.90372   0.00000  Uiso   1.00
C661   C     0.15675   0.20946   0.90844   0.00000  Uiso   1.00
C662   C     0.12624   0.15361   0.59352   0.00000  Uiso   1.00
C663   C     0.16371   0.16528   0.61678   0.00000  Uiso   1.00
C664   C     0.15331   0.16779   0.88253   0.00000  Uiso   1.00
C665   C     0.15899   0.16271   0.52401   0.00000  Uiso   1.00
C666   C     0.15600   0.16417   0.97543   0.00000  Uiso   1.00
C667   C     0.29046   0.16627   0.74731   0.00000  Uiso   1.00
C668   C     0.04282   0.16655   0.75147   0.00000  Uiso   1.00
N669   N     0.12172   0.04753   0.68313   0.00000  Uiso   1.00
O670   O     0.13695   0.04830   0.64423   0.00000  Uiso   1.00
O671   O     0.08273   0.05487   0.68591   0.00000  Uiso   1.00
N672   N     0.22701   0.28789   0.80208   0.00000  Uiso   1.00
O673   O     0.22216   0.26320   0.83694   0.00000  Uiso   1.00
O674   O     0.26333   0.30466   0.79683   0.00000  Uiso   1.00
N675   N     0.21152   0.04890   0.81754   0.00000  Uiso   1.00
O676   O     0.24639   0.06875   0.81178   0.00000  Uiso   1.00
O677   O     0.20303   0.03859   0.85778   0.00000  Uiso   1.00
N678   N     0.12029   0.28401   0.68396   0.00000  Uiso   1.00
O679   O     0.08096   0.27946   0.68627   0.00000  Uiso   1.00
O680   O     0.13556   0.28102   0.64512   0.00000  Uiso   1.00
F681   F     0.22954   0.18403   0.52423   0.00000  Uiso   1.00
F682   F     0.13847   0.08400   0.97127   0.00000  Uiso   1.00
F683   F     0.16356   0.24624   0.98004   0.00000  Uiso   1.00
F684   F     0.08813   0.14301   0.52420   0.00000  Uiso   1.00
N685   N     0.23730   0.18643   0.61660   0.00000  Uiso   1.00
O686   O     0.25196   0.15941   0.64777   0.00000  Uiso   1.00
O687   O     0.26016   0.21968   0.60295   0.00000  Uiso   1.00
N688   N     0.12399   0.08769   0.87879   0.00000  Uiso   1.00
O689   O     0.09708   0.09587   0.84638   0.00000  Uiso   1.00
O690   O     0.12695   0.04561   0.89372   0.00000  Uiso   1.00
N691   N     0.15318   0.25453   0.88879   0.00000  Uiso   1.00
O692   O     0.12224   0.26328   0.86109   0.00000  Uiso   1.00
O693   O     0.17450   0.28922   0.90592   0.00000  Uiso   1.00
N694   N     0.08973   0.14486   0.61655   0.00000  Uiso   1.00
O695   O     0.06375   0.11326   0.60175   0.00000  Uiso   1.00
O696   O     0.07981   0.17211   0.64899   0.00000  Uiso   1.00
F697   F     0.04080   0.08288   0.75545   0.00000  Uiso   1.00
F698   F     0.29249   0.24917   0.73873   0.00000  Uiso   1.00
F699   F     0.29293   0.08243   0.74535   0.00000  Uiso   1.00
F700   F     0.04020   0.25031   0.75258   0.00000  Uiso   1.00
O701   O     0.43988   0.20625   0.75000   0.00000  Uiso   1.00
O702   O     0.56012   0.12709   0.75001   0.00000  Uiso   1.00
O703   O     0.56012   0.20625   0.75001   0.00000  Uiso   1.00
O704   O     0.43988   0.12709   0.75000   0.00000  Uiso   1.00
N705   N     0.50000   0.28402   0.75000   0.00000  Uiso   1.00
N706   N     0.50000   0.04931   0.75000   0.00000  Uiso   1.00
C707   C     0.42082   0.16667   0.75110   0.00000  Uiso   1.00
C708   C     0.57918   0.16658   0.74885   0.00000  Uiso   1.00
O709   O     0.50000   0.20626   0.68573   0.00000  Uiso   1.00
O710   O     0.50000   0.12707   0.81427   0.00000  Uiso   1.00
O711   O     0.50000   0.20626   0.81427   0.00000  Uiso   1.00
O712   O     0.50000   0.12707   0.68573   0.00000  Uiso   1.00
C713   C     0.49951   0.16631   0.66515   0.00000  Uiso   1.00
C714   C     0.49539   0.16707   0.83460   0.00000  Uiso   1.00
Cu715  Cu    0.50000   0.21355   0.75000   0.00000  Uiso   1.00
Cu716  Cu    0.50000   0.11978   0.75000   0.00000  Uiso   1.00
C717   C     0.47725   0.02426   0.71837   0.00000  Uiso   1.00
C718   C     0.52580   0.30929   0.77899   0.00000  Uiso   1.00
C719   C     0.52333   0.02519   0.78116   0.00000  Uiso   1.00
C720   C     0.47645   0.30818   0.71897   0.00000  Uiso   1.00
C721   C     0.35460   0.12432   0.75156   0.00000  Uiso   1.00
C722   C     0.64536   0.20826   0.74573   0.00000  Uiso   1.00
C723   C     0.64556   0.12414   0.74847   0.00000  Uiso   1.00
C724   C     0.35434   0.20856   0.74971   0.00000  Uiso   1.00
C725   C     0.52927   0.17468   0.54709   0.00000  Uiso   1.00
C726   C     0.47941   0.12421   0.95024   0.00000  Uiso   1.00
C727   C     0.49292   0.20683   0.95474   0.00000  Uiso   1.00
C728   C     0.45768   0.15211   0.54709   0.00000  Uiso   1.00
C729   C     0.53206   0.17573   0.59350   0.00000  Uiso   1.00
C730   C     0.47599   0.12605   0.90372   0.00000  Uiso   1.00
C731   C     0.49009   0.20946   0.90844   0.00000  Uiso   1.00
C732   C     0.45957   0.15361   0.59352   0.00000  Uiso   1.00
C733   C     0.49705   0.16528   0.61678   0.00000  Uiso   1.00
C734   C     0.48665   0.16779   0.88253   0.00000  Uiso   1.00
C735   C     0.49232   0.16271   0.52401   0.00000  Uiso   1.00
C736   C     0.48933   0.16417   0.97543   0.00000  Uiso   1.00
C737   C     0.62380   0.16627   0.74731   0.00000  Uiso   1.00
C738   C     0.37616   0.16655   0.75147   0.00000  Uiso   1.00
N739   N     0.45505   0.04753   0.68313   0.00000  Uiso   1.00
O740   O     0.47028   0.04830   0.64423   0.00000  Uiso   1.00
O741   O     0.41607   0.05487   0.68591   0.00000  Uiso   1.00
N742   N     0.56035   0.28789   0.80208   0.00000  Uiso   1.00
O743   O     0.55550   0.26320   0.83694   0.00000  Uiso   1.00
O744   O     0.59666   0.30466   0.79683   0.00000  Uiso   1.00
N745   N     0.54485   0.04890   0.81754   0.00000  Uiso   1.00
O746   O     0.57972   0.06875   0.81178   0.00000  Uiso   1.00
O747   O     0.53637   0.03859   0.85778   0.00000  Uiso   1.00
N748   N     0.45363   0.28401   0.68396   0.00000  Uiso   1.00
O749   O     0.41429   0.27946   0.68627   0.00000  Uiso   1.00
O750   O     0.46889   0.28102   0.64512   0.00000  Uiso   1.00
F751   F     0.56288   0.18403   0.52423   0.00000  Uiso   1.00
F752   F     0.47180   0.08400   0.97127   0.00000  Uiso   1.00
F753   F     0.49690   0.24624   0.98004   0.00000  Uiso   1.00
F754   F     0.42147   0.14301   0.52420   0.00000  Uiso   1.00
N755   N     0.57063   0.18643   0.61660   0.00000  Uiso   1.00
O756   O     0.58529   0.15941   0.64777   0.00000  Uiso   1.00
O757   O     0.59350   0.21968   0.60295   0.00000  Uiso   1.00
N758   N     0.45732   0.08769   0.87879   0.00000  Uiso   1.00
O759   O     0.43041   0.09587   0.84638   0.00000  Uiso   1.00
O760   O     0.46028   0.04561   0.89372   0.00000  Uiso   1.00
N761   N     0.48651   0.25453   0.88879   0.00000  Uiso   1.00
O762   O     0.45558   0.26328   0.86109   0.00000  Uiso   1.00
O763   O     0.50783   0.28922   0.90592   0.00000  Uiso   1.00
N764   N     0.42306   0.14486   0.61655   0.00000  Uiso   1.00
O765   O     0.39709   0.11326   0.60175   0.00000  Uiso   1.00
O766   O     0.41314   0.17211   0.64899   0.00000  Uiso   1.00
F767   F     0.37414   0.08288   0.75545   0.00000  Uiso   1.00
F768   F     0.62582   0.24917   0.73873   0.00000  Uiso   1.00
F769   F     0.62626   0.08243   0.74535   0.00000  Uiso   1.00
F770   F     0.37353   0.25031   0.75258   0.00000  Uiso   1.00
O771   O     0.77321   0.20625   0.75000   0.00000  Uiso   1.00
O772   O     0.89345   0.12709   0.75001   0.00000  Uiso   1.00
O773   O     0.89345   0.20625   0.75001   0.00000  Uiso   1.00
O774   O     0.77321   0.12709   0.75000   0.00000  Uiso   1.00
N775   N     0.83333   0.28402   0.75000   0.00000  Uiso   1.00
N776   N     0.83333   0.04931   0.75000   0.00000  Uiso   1.00
C777   C     0.75415   0.16667   0.75110   0.00000  Uiso   1.00
C778   C     0.91251   0.16658   0.74885   0.00000  Uiso   1.00
O779   O     0.83333   0.20626   0.68573   0.00000  Uiso   1.00
O780   O     0.83334   0.12707   0.81427   0.00000  Uiso   1.00
O781   O     0.83334   0.20626   0.81427   0.00000  Uiso   1.00
O782   O     0.83333   0.12707   0.68573   0.00000  Uiso   1.00
C783   C     0.83285   0.16631   0.66515   0.00000  Uiso   1.00
C784   C     0.82873   0.16707   0.83460   0.00000  Uiso   1.00
Cu785  Cu    0.83333   0.21355   0.75000   0.00000  Uiso   1.00
Cu786  Cu    0.83333   0.11978   0.75000   0.00000  Uiso   1.00
C787   C     0.81058   0.02426   0.71837   0.00000  Uiso   1.00
C788   C     0.85913   0.30929   0.77899   0.00000  Uiso   1.00
C789   C     0.85667   0.02519   0.78116   0.00000  Uiso   1.00
C790   C     0.80978   0.30818   0.71897   0.00000  Uiso   1.00
C791   C     0.68793   0.12432   0.75156   0.00000  Uiso   1.00
C792   C     0.97869   0.20826   0.74573   0.00000  Uiso   1.00
C793   C     0.97889   0.12414   0.74847   0.00000  Uiso   1.00
C794   C     0.68767   0.20856   0.74971   0.00000  Uiso   1.00
C795   C     0.86260   0.17468   0.54709   0.00000  Uiso   1.00
C796   C     0.81274   0.12421   0.95024   0.00000  Uiso   1.00
C797   C     0.82626   0.20683   0.95474   0.00000  Uiso   1.00
C798   C     0.79101   0.15211   0.54709   0.00000  Uiso   1.00
C799   C     0.86539   0.17573   0.59350   0.00000  Uiso   1.00
C800   C     0.80932   0.12605   0.90372   0.00000  Uiso   1.00
C801   C     0.82342   0.20946   0.90844   0.00000  Uiso   1.00
C802   C     0.79290   0.15361   0.59352   0.00000  Uiso   1.00
C803   C     0.83038   0.16528   0.61678   0.00000  Uiso   1.00
C804   C     0.81998   0.16779   0.88253   0.00000  Uiso   1.00
C805   C     0.82566   0.16271   0.52401   0.00000  Uiso   1.00
C806   C     0.82267   0.16417   0.97543   0.00000  Uiso   1.00
C807   C     0.95713   0.16627   0.74731   0.00000  Uiso   1.00
C808   C     0.70949   0.16655   0.75147   0.00000  Uiso   1.00
N809   N     0.78839   0.04753   0.68313   0.00000  Uiso   1.00
O810   O     0.80361   0.04830   0.64423   0.00000  Uiso   1.00
O811   O     0.74940   0.05487   0.68591   0.00000  Uiso   1.00
N812   N     0.89368   0.28789   0.80208   0.00000  Uiso   1.00
O813   O     0.88883   0.26320   0.83694   0.00000  Uiso   1.00
O814   O     0.92999   0.30466   0.79683   0.00000  Uiso   1.00
N815   N     0.87819   0.04890   0.81754   0.00000  Uiso   1.00
O816   O     0.91305   0.06875   0.81178   0.00000  Uiso   1.00
O817   O     0.86970   0.03859   0.85778   0.00000  Uiso   1.00
N818   N     0.78696   0.28401   0.68396   0.00000  Uiso   1.00
O819   O     0.74762   0.27946   0.68627   0.00000  Uiso   1.00
O820   O     0.80222   0.28102   0.64512   0.00000  Uiso   1.00
F821   F     0.89621   0.18403   0.52423   0.00000  Uiso   1.00
F822   F     0.80513   0.08400   0.97127   0.00000  Uiso   1.00
F823   F     0.83023   0.24624   0.98004   0.00000  Uiso   1.00
F824   F     0.75480   0.14301   0.52420   0.00000  Uiso   1.00
N825   N     0.90397   0.18643   0.61660   0.00000  Uiso   1.00
O826   O     0.91862   0.15941   0.64777   0.00000  Uiso   1.00
O827   O     0.92683   0.21968   0.60295   0.00000  Uiso   1.00
N828   N     0.79065   0.08769   0.87879   0.00000  Uiso   1.00
O829   O     0.76375   0.09587   0.84638   0.00000  Uiso   1.00
O830   O     0.79361   0.04561   0.89372   0.00000  Uiso   1.00
N831   N     0.81984   0.25453   0.88879   0.00000  Uiso   1.00
O832   O     0.78891   0.26328   0.86109   0.00000  Uiso   1.00
O833   O     0.84117   0.28922   0.90592   0.00000  Uiso   1.00
N834   N     0.75640   0.14486   0.61655   0.00000  Uiso   1.00
O835   O     0.73042   0.11326   0.60175   0.00000  Uiso   1.00
O836   O     0.74648   0.17211   0.64899   0.00000  Uiso   1.00
F837   F     0.70747   0.08288   0.75545   0.00000  Uiso   1.00
F838   F     0.95915   0.24917   0.73873   0.00000  Uiso   1.00
F839   F     0.95959   0.08243   0.74535   0.00000  Uiso   1.00
F840   F     0.70687   0.25031   0.75258   0.00000  Uiso   1.00
O841   O     0.10655   0.53958   0.75000   0.00000  Uiso   1.00
O842   O     0.22679   0.46042   0.75001   0.00000  Uiso   1.00
O843   O     0.22679   0.53958   0.75001   0.00000  Uiso   1.00
O844   O     0.10655   0.46042   0.75000   0.00000  Uiso   1.00
N845   N     0.16667   0.61736   0.75000   0.00000  Uiso   1.00
N846   N     0.16667   0.38264   0.75000   0.00000  Uiso   1.00
C847   C     0.08749   0.50000   0.75110   0.00000  Uiso   1.00
C848   C     0.24585   0.49991   0.74885   0.00000  Uiso   1.00
O849   O     0.16666   0.53959   0.68573   0.00000  Uiso   1.00
O850   O     0.16667   0.46041   0.81427   0.00000  Uiso   1.00
O851   O     0.16667   0.53959   0.81427   0.00000  Uiso   1.00
O852   O     0.16666   0.46041   0.68573   0.00000  Uiso   1.00
C853   C     0.16618   0.49964   0.66515   0.00000  Uiso   1.00
C854   C     0.16206   0.50041   0.83460   0.00000  Uiso   1.00
Cu855  Cu    0.16667   0.54689   0.75000   0.00000  Uiso   1.00
Cu856  Cu    0.16667   0.45311   0.75000   0.00000  Uiso   1.00
C857   C     0.14392   0.35759   0.71837   0.00000  Uiso   1.00
C858   C     0.19246   0.64263   0.77899   0.00000  Uiso   1.00
C859   C     0.19000   0.35852   0.78116   0.00000  Uiso   1.00
C860   C     0.14311   0.64152   0.71897   0.00000  Uiso   1.00
C861   C     0.02127   0.45765   0.75156   0.00000  Uiso   1.00
C862   C     0.31202   0.54159   0.74573   0.00000  Uiso   1.00
C863   C     0.31222   0.45748   0.74847   0.00000  Uiso   1.00
C864   C     0.02101   0.54190   0.74971   0.00000  Uiso   1.00
C865   C     0.19594   0.50802   0.54709   0.00000  Uiso   1.00
C866   C     0.14607   0.45754   0.95024   0.00000  Uiso   1.00
C867   C     0.15959   0.54016   0.95474   0.00000  Uiso   1.00
C868   C     0.12434   0.48544   0.54709   0.00000  Uiso   1.00
C869   C     0.19872   0.50907   0.59350   0.00000  Uiso   1.00
C870   C     0.14265   0.45938   0.90372   0.00000  Uiso   1.00
C871   C     0.15675   0.54280   0.90844   0.00000  Uiso   1.00
C872   C     0.12624   0.48695   0.59352   0.00000  Uiso   1.00
C873   C     0.16371   0.49861   0.61678   0.00000  Uiso   1.00
C874   C     0.15331   0.50113   0.88253   0.00000  Uiso   1.00
C875   C     0.15899   0.49604   0.52401   0.00000  Uiso   1.00
C876   C     0.15600   0.49751   0.97543   0.00000  Uiso   1.00
C877   C     0.29046   0.49960   0.74731   0.00000  Uiso   1.00
C878   C     0.04282   0.49988   0.75147   0.00000  Uiso   1.00
N879   N     0.12172   0.38086   0.68313   0.00000  Uiso   1.00
O880   O     0.13695   0.38163   0.64423   0.00000  Uiso   1.00
O881   O     0.08273   0.38820   0.68591   0.00000  Uiso   1.00
N882   N     0.22701   0.62123   0.80208   0.00000  Uiso   1.00
O883   O     0.22216   0.59654   0.83694   0.00000  Uiso   1.00
O884   O     0.26333   0.63799   0.79683   0.00000  Uiso   1.00
N885   N     0.21152   0.38223   0.81754   0.00000  Uiso   1.00
O886   O     0.24639   0.40208   0.81178   0.00000  Uiso   1.00
O887   O     0.20303   0.37192   0.85778   0.00000  Uiso   1.00
N888   N     0.12029   0.61734   0.68396   0.00000  Uiso   1.00
O889   O     0.08096   0.61279   0.68627   0.00000  Uiso   1.00
O890   O     0.13556   0.61435   0.64512   0.00000  Uiso   1.00
F891   F     0.22954   0.51737   0.52423   0.00000  Uiso   1.00
F892   F     0.13847   0.41733   0.97127   0.00000  Uiso   1.00
F893   F     0.16356   0.57957   0.98004   0.00000  Uiso   1.00
F894   F     0.08813   0.47634   0.52420   0.00000  Uiso   1.00
N895   N     0.23730   0.51976   0.61660   0.00000  Uiso   1.00
O896   O     0.25196   0.49274   0.64777   0.00000  Uiso   1.00
O897   O     0.26016   0.55301   0.60295   0.00000  Uiso   1.00
N898   N     0.12399   0.42102   0.87879   0.00000  Uiso   1.00
O899   O     0.09708   0.42921   0.84638   0.00000  Uiso   1.00
O900   O     0.12695   0.37895   0.89372   0.00000  Uiso   1.00
N901   N     0.15318   0.58787   0.88879   0.00000  Uiso   1.00
O902   O     0.12224   0.59662   0.86109   0.00000  Uiso   1.00
O903   O     0.17450   0.62255   0.90592   0.00000  Uiso   1.00
N904   N     0.08973   0.47820   0.61655   0.00000  Uiso   1.00
O905   O     0.06375   0.44659   0.60175   0.00000  Uiso   1.00
O906   O     0.07981   0.50544   0.64899   0.00000  Uiso   1.00
F907   F     0.04080   0.41621   0.75545   0.00000  Uiso   1.00
F908   F     0.29249   0.58251   0.73873   0.00000  Uiso   1.00
F909   F     0.29293   0.41577   0.74535   0.00000  Uiso   1.00
F910   F     0.04020   0.58365   0.75258   0.00000  Uiso   1.00
O911   O     0.43988   0.53958   0.75000   0.00000  Uiso   1.00
O912   O     0.56012   0.46042   0.75001   0.00000  Uiso   1.00
O913   O     0.56012   0.53958   0.75001   0.00000  Uiso   1.00
O914   O     0.43988   0.46042   0.75000   0.00000  Uiso   1.00
N915   N     0.50000   0.61736   0.75000   0.00000  Uiso   1.00
N916   N     0.50000   0.38264   0.75000   0.00000  Uiso   1.00
C917   C     0.42082   0.50000   0.75110   0.00000  Uiso   1.00
C918   C     0.57918   0.49991   0.74885   0.00000  Uiso   1.00
O919   O     0.50000   0.53959   0.68573   0.00000  Uiso   1.00
O920   O     0.50000   0.46041   0.81427   0.00000  Uiso   1.00
O921   O     0.50000   0.53959   0.81427   0.00000  Uiso   1.00
O922   O     0.50000   0.46041   0.68573   0.00000  Uiso   1.00
C923   C     0.49951   0.49964   0.66515   0.00000  Uiso   1.00
C924   C     0.49539   0.50041   0.83460   0.00000  Uiso   1.00
Cu925  Cu    0.50000   0.54689   0.75000   0.00000  Uiso   1.00
Cu926  Cu    0.50000   0.45311   0.75000   0.00000  Uiso   1.00
C927   C     0.47725   0.35759   0.71837   0.00000  Uiso   1.00
C928   C     0.52580   0.64263   0.77899   0.00000  Uiso   1.00
C929   C     0.52333   0.35852   0.78116   0.00000  Uiso   1.00
C930   C     0.47645   0.64152   0.71897   0.00000  Uiso   1.00
C931   C     0.35460   0.45765   0.75156   0.00000  Uiso   1.00
C932   C     0.64536   0.54159   0.74573   0.00000  Uiso   1.00
C933   C     0.64556   0.45748   0.74847   0.00000  Uiso   1.00
C934   C     0.35434   0.54190   0.74971   0.00000  Uiso   1.00
C935   C     0.52927   0.50802   0.54709   0.00000  Uiso   1.00
C936   C     0.47941   0.45754   0.95024   0.00000  Uiso   1.00
C937   C     0.49292   0.54016   0.95474   0.00000  Uiso   1.00
C938   C     0.45768   0.48544   0.54709   0.00000  Uiso   1.00
C939   C     0.53206   0.50907   0.59350   0.00000  Uiso   1.00
C940   C     0.47599   0.45938   0.90372   0.00000  Uiso   1.00
C941   C     0.49009   0.54280   0.90844   0.00000  Uiso   1.00
C942   C     0.45957   0.48695   0.59352   0.00000  Uiso   1.00
C943   C     0.49705   0.49861   0.61678   0.00000  Uiso   1.00
C944   C     0.48665   0.50113   0.88253   0.00000  Uiso   1.00
C945   C     0.49232   0.49604   0.52401   0.00000  Uiso   1.00
C946   C     0.48933   0.49751   0.97543   0.00000  Uiso   1.00
C947   C     0.62380   0.49960   0.74731   0.00000  Uiso   1.00
C948   C     0.37616   0.49988   0.75147   0.00000  Uiso   1.00
N949   N     0.45505   0.38086   0.68313   0.00000  Uiso   1.00
O950   O     0.47028   0.38163   0.64423   0.00000  Uiso   1.00
O951   O     0.41607   0.38820   0.68591   0.00000  Uiso   1.00
N952   N     0.56035   0.62123   0.80208   0.00000  Uiso   1.00
O953   O     0.55550   0.59654   0.83694   0.00000  Uiso   1.00
O954   O     0.59666   0.63799   0.79683   0.00000  Uiso   1.00
N955   N     0.54485   0.38223   0.81754   0.00000  Uiso   1.00
O956   O     0.57972   0.40208   0.81178   0.00000  Uiso   1.00
O957   O     0.53637   0.37192   0.85778   0.00000  Uiso   1.00
N958   N     0.45363   0.61734   0.68396   0.00000  Uiso   1.00
O959   O     0.41429   0.61279   0.68627   0.00000  Uiso   1.00
O960   O     0.46889   0.61435   0.64512   0.00000  Uiso   1.00
F961   F     0.56288   0.51737   0.52423   0.00000  Uiso   1.00
F962   F     0.47180   0.41733   0.97127   0.00000  Uiso   1.00
F963   F     0.49690   0.57957   0.98004   0.00000  Uiso   1.00
F964   F     0.42147   0.47634   0.52420   0.00000  Uiso   1.00
N965   N     0.57063   0.51976   0.61660   0.00000  Uiso   1.00
O966   O     0.58529   0.49274   0.64777   0.00000  Uiso   1.00
O967   O     0.59350   0.55301   0.60295   0.00000  Uiso   1.00
N968   N     0.45732   0.42102   0.87879   0.00000  Uiso   1.00
O969   O     0.43041   0.42921   0.84638   0.00000  Uiso   1.00
O970   O     0.46028   0.37895   0.89372   0.00000  Uiso   1.00
N971   N     0.48651   0.58787   0.88879   0.00000  Uiso   1.00
O972   O     0.45558   0.59662   0.86109   0.00000  Uiso   1.00
O973   O     0.50783   0.62255   0.90592   0.00000  Uiso   1.00
N974   N     0.42306   0.47820   0.61655   0.00000  Uiso   1.00
O975   O     0.39709   0.44659   0.60175   0.00000  Uiso   1.00
O976   O     0.41314   0.50544   0.64899   0.00000  Uiso   1.00
F977   F     0.37414   0.41621   0.75545   0.00000  Uiso   1.00
F978   F     0.62582   0.58251   0.73873   0.00000  Uiso   1.00
F979   F     0.62626   0.41577   0.74535   0.00000  Uiso   1.00
F980   F     0.37353   0.58365   0.75258   0.00000  Uiso   1.00
O981   O     0.77321   0.53958   0.75000   0.00000  Uiso   1.00
O982   O     0.89345   0.46042   0.75001   0.00000  Uiso   1.00
O983   O     0.89345   0.53958   0.75001   0.00000  Uiso   1.00
O984   O     0.77321   0.46042   0.75000   0.00000  Uiso   1.00
N985   N     0.83333   0.61736   0.75000   0.00000  Uiso   1.00
N986   N     0.83333   0.38264   0.75000   0.00000  Uiso   1.00
C987   C     0.75415   0.50000   0.75110   0.00000  Uiso   1.00
C988   C     0.91251   0.49991   0.74885   0.00000  Uiso   1.00
O989   O     0.83333   0.53959   0.68573   0.00000  Uiso   1.00
O990   O     0.83334   0.46041   0.81427   0.00000  Uiso   1.00
O991   O     0.83334   0.53959   0.81427   0.00000  Uiso   1.00
O992   O     0.83333   0.46041   0.68573   0.00000  Uiso   1.00
C993   C     0.83285   0.49964   0.66515   0.00000  Uiso   1.00
C994   C     0.82873   0.50041   0.83460   0.00000  Uiso   1.00
Cu995  Cu    0.83333   0.54689   0.75000   0.00000  Uiso   1.00
Cu996  Cu    0.83333   0.45311   0.75000   0.00000  Uiso   1.00
C997   C     0.81058   0.35759   0.71837   0.00000  Uiso   1.00
C998   C     0.85913   0.64263   0.77899   0.00000  Uiso   1.00
C999   C     0.85667   0.35852   0.78116   0.00000  Uiso   1.00
C1000  C     0.80978   0.64152   0.71897   0.00000  Uiso   1.00
C1001  C     0.68793   0.45765   0.75156   0.00000  Uiso   1.00
C1002  C     0.97869   0.54159   0.74573   0.00000  Uiso   1.00
C1003  C     0.97889   0.45748   0.74847   0.00000  Uiso   1.00
C1004  C     0.68767   0.54190   0.74971   0.00000  Uiso   1.00
C1005  C     0.86260   0.50802   0.54709   0.00000  Uiso   1.00
C1006  C     0.81274   0.45754   0.95024   0.00000  Uiso   1.00
C1007  C     0.82626   0.54016   0.95474   0.00000  Uiso   1.00
C1008  C     0.79101   0.48544   0.54709   0.00000  Uiso   1.00
C1009  C     0.86539   0.50907   0.59350   0.00000  Uiso   1.00
C1010  C     0.80932   0.45938   0.90372   0.00000  Uiso   1.00
C1011  C     0.82342   0.54280   0.90844   0.00000  Uiso   1.00
C1012  C     0.79290   0.48695   0.59352   0.00000  Uiso   1.00
C1013  C     0.83038   0.49861   0.61678   0.00000  Uiso   1.00
C1014  C     0.81998   0.50113   0.88253   0.00000  Uiso   1.00
C1015  C     0.82566   0.49604   0.52401   0.00000  Uiso   1.00
C1016  C     0.82267   0.49751   0.97543   0.00000  Uiso   1.00
C1017  C     0.95713   0.49960   0.74731   0.00000  Uiso   1.00
C1018  C     0.70949   0.49988   0.75147   0.00000  Uiso   1.00
N1019  N     0.78839   0.38086   0.68313   0.00000  Uiso   1.00
O1020  O     0.80361   0.38163   0.64423   0.00000  Uiso   1.00
O1021  O     0.74940   0.38820   0.68591   0.00000  Uiso   1.00
N1022  N     0.89368   0.62123   0.80208   0.00000  Uiso   1.00
O1023  O     0.88883   0.59654   0.83694   0.00000  Uiso   1.00
O1024  O     0.92999   0.63799   0.79683   0.00000  Uiso   1.00
N1025  N     0.87819   0.38223   0.81754   0.00000  Uiso   1.00
O1026  O     0.91305   0.40208   0.81178   0.00000  Uiso   1.00
O1027  O     0.86970   0.37192   0.85778   0.00000  Uiso   1.00
N1028  N     0.78696   0.61734   0.68396   0.00000  Uiso   1.00
O1029  O     0.74762   0.61279   0.68627   0.00000  Uiso   1.00
O1030  O     0.80222   0.61435   0.64512   0.00000  Uiso   1.00
F1031  F     0.89621   0.51737   0.52423   0.00000  Uiso   1.00
F1032  F     0.80513   0.41733   0.97127   0.00000  Uiso   1.00
F1033  F     0.83023   0.57957   0.98004   0.00000  Uiso   1.00
F1034  F     0.75480   0.47634   0.52420   0.00000  Uiso   1.00
N1035  N     0.90397   0.51976   0.61660   0.00000  Uiso   1.00
O1036  O     0.91862   0.49274   0.64777   0.00000  Uiso   1.00
O1037  O     0.92683   0.55301   0.60295   0.00000  Uiso   1.00
N1038  N     0.79065   0.42102   0.87879   0.00000  Uiso   1.00
O1039  O     0.76375   0.42921   0.84638   0.00000  Uiso   1.00
O1040  O     0.79361   0.37895   0.89372   0.00000  Uiso   1.00
N1041  N     0.81984   0.58787   0.88879   0.00000  Uiso   1.00
O1042  O     0.78891   0.59662   0.86109   0.00000  Uiso   1.00
O1043  O     0.84117   0.62255   0.90592   0.00000  Uiso   1.00
N1044  N     0.75640   0.47820   0.61655   0.00000  Uiso   1.00
O1045  O     0.73042   0.44659   0.60175   0.00000  Uiso   1.00
O1046  O     0.74648   0.50544   0.64899   0.00000  Uiso   1.00
F1047  F     0.70747   0.41621   0.75545   0.00000  Uiso   1.00
F1048  F     0.95915   0.58251   0.73873   0.00000  Uiso   1.00
F1049  F     0.95959   0.41577   0.74535   0.00000  Uiso   1.00
F1050  F     0.70687   0.58365   0.75258   0.00000  Uiso   1.00
O1051  O     0.10655   0.87291   0.75000   0.00000  Uiso   1.00
O1052  O     0.22679   0.79375   0.75001   0.00000  Uiso   1.00
O1053  O     0.22679   0.87291   0.75001   0.00000  Uiso   1.00
O1054  O     0.10655   0.79375   0.75000   0.00000  Uiso   1.00
N1055  N     0.16667   0.95069   0.75000   0.00000  Uiso   1.00
N1056  N     0.16667   0.71598   0.75000   0.00000  Uiso   1.00
C1057  C     0.08749   0.83333   0.75110   0.00000  Uiso   1.00
C1058  C     0.24585   0.83324   0.74885   0.00000  Uiso   1.00
O1059  O     0.16666   0.87293   0.68573   0.00000  Uiso   1.00
O1060  O     0.16667   0.79374   0.81427   0.00000  Uiso   1.00
O1061  O     0.16667   0.87293   0.81427   0.00000  Uiso   1.00
O1062  O     0.16666   0.79374   0.68573   0.00000  Uiso   1.00
C1063  C     0.16618   0.83298   0.66515   0.00000  Uiso   1.00
C1064  C     0.16206   0.83374   0.83460   0.00000  Uiso   1.00
Cu1065 Cu    0.16667   0.88022   0.75000   0.00000  Uiso   1.00
Cu1066 Cu    0.16667   0.78645   0.75000   0.00000  Uiso   1.00
C1067  C     0.14392   0.69092   0.71837   0.00000  Uiso   1.00
C1068  C     0.19246   0.97596   0.77899   0.00000  Uiso   1.00
C1069  C     0.19000   0.69185   0.78116   0.00000  Uiso   1.00
C1070  C     0.14311   0.97485   0.71897   0.00000  Uiso   1.00
C1071  C     0.02127   0.79098   0.75156   0.00000  Uiso   1.00
C1072  C     0.31202   0.87492   0.74573   0.00000  Uiso   1.00
C1073  C     0.31222   0.79081   0.74847   0.00000  Uiso   1.00
C1074  C     0.02101   0.87523   0.74971   0.00000  Uiso   1.00
C1075  C     0.19594   0.84135   0.54709   0.00000  Uiso   1.00
C1076  C     0.14607   0.79088   0.95024   0.00000  Uiso   1.00
C1077  C     0.15959   0.87349   0.95474   0.00000  Uiso   1.00
C1078  C     0.12434   0.81877   0.54709   0.00000  Uiso   1.00
C1079  C     0.19872   0.84240   0.59350   0.00000  Uiso   1.00
C1080  C     0.14265   0.79271   0.90372   0.00000  Uiso   1.00
C1081  C     0.15675   0.87613   0.90844   0.00000  Uiso   1.00
C1082  C     0.12624   0.82028   0.59352   0.00000  Uiso   1.00
C1083  C     0.16371   0.83195   0.61678   0.00000  Uiso   1.00
C1084  C     0.15331   0.83446   0.88253   0.00000  Uiso   1.00
C1085  C     0.15899   0.82938   0.52401   0.00000  Uiso   1.00
C1086  C     0.15600   0.83084   0.97543   0.00000  Uiso   1.00
C1087  C     0.29046   0.83294   0.74731   0.00000  Uiso   1.00
C1088  C     0.04282   0.83321   0.75147   0.00000  Uiso   1.00
N1089  N     0.12172   0.71419   0.68313   0.00000  Uiso   1.00
O1090  O     0.13695   0.71496   0.64423   0.00000  Uiso   1.00
O1091  O     0.08273   0.72153   0.68591   0.00000  Uiso   1.00
N1092  N     0.22701   0.95456   0.80208   0.00000  Uiso   1.00
O1093  O     0.22216   0.92987   0.83694   0.00000  Uiso   1.00
O1094  O     0.26333   0.97132   0.79683   0.00000  Uiso   1.00
N1095  N     0.21152   0.71556   0.81754   0.00000  Uiso   1.00
O1096  O     0.24639   0.73542   0.81178   0.00000  Uiso   1.00
O1097  O     0.20303   0.70525   0.85778   0.00000  Uiso   1.00
N1098  N     0.12029   0.95068   0.68396   0.00000  Uiso   1.00
O1099  O     0.08096   0.94612   0.68627   0.00000  Uiso   1.00
O1100  O     0.13556   0.94768   0.64512   0.00000  Uiso   1.00
F1101  F     0.22954   0.85070   0.52423   0.00000  Uiso   1.00
F1102  F     0.13847   0.75067   0.97127   0.00000  Uiso   1.00
F1103  F     0.16356   0.91291   0.98004   0.00000  Uiso   1.00
F1104  F     0.08813   0.80967   0.52420   0.00000  Uiso   1.00
N1105  N     0.23730   0.85310   0.61660   0.00000  Uiso   1.00
O1106  O     0.25196   0.82608   0.64777   0.00000  Uiso   1.00
O1107  O     0.26016   0.88635   0.60295   0.00000  Uiso   1.00
N1108  N     0.12399   0.75436   0.87879   0.00000  Uiso   1.00
O1109  O     0.09708   0.76254   0.84638   0.00000  Uiso   1.00
O1110  O     0.12695   0.71228   0.89372   0.00000  Uiso   1.00
N1111  N     0.15318   0.92120   0.88879   0.00000  Uiso   1.00
O1112  O     0.12224   0.92995   0.86109   0.00000  Uiso   1.00
O1113  O     0.17450   0.95589   0.90592   0.00000  Uiso   1.00
N1114  N     0.08973   0.81153   0.61655   0.00000  Uiso   1.00
O1115  O     0.06375   0.77992   0.60175   0.00000  Uiso   1.00
O1116  O     0.07981   0.83878   0.64899   0.00000  Uiso   1.00
F1117  F     0.04080   0.74955   0.75545   0.00000  Uiso   1.00
F1118  F     0.29249   0.91584   0.73873   0.00000  Uiso   1.00
F1119  F     0.29293   0.74910   0.74535   0.00000  Uiso   1.00
F1120  F     0.04020   0.91698   0.75258   0.00000  Uiso   1.00
O1121  O     0.43988   0.87291   0.75000   0.00000  Uiso   1.00
O1122  O     0.56012   0.79375   0.75001   0.00000  Uiso   1.00
O1123  O     0.56012   0.87291   0.75001   0.00000  Uiso   1.00
O1124  O     0.43988   0.79375   0.75000   0.00000  Uiso   1.00
N1125  N     0.50000   0.95069   0.75000   0.00000  Uiso   1.00
N1126  N     0.50000   0.71598   0.75000   0.00000  Uiso   1.00
C1127  C     0.42082   0.83333   0.75110   0.00000  Uiso   1.00
C1128  C     0.57918   0.83324   0.74885   0.00000  Uiso   1.00
O1129  O     0.50000   0.87293   0.68573   0.00000  Uiso   1.00
O1130  O     0.50000   0.79374   0.81427   0.00000  Uiso   1.00
O1131  O     0.50000   0.87293   0.81427   0.00000  Uiso   1.00
O1132  O     0.50000   0.79374   0.68573   0.00000  Uiso   1.00
C1133  C     0.49951   0.83298   0.66515   0.00000  Uiso   1.00
C1134  C     0.49539   0.83374   0.83460   0.00000  Uiso   1.00
Cu1135 Cu    0.50000   0.88022   0.75000   0.00000  Uiso   1.00
Cu1136 Cu    0.50000   0.78645   0.75000   0.00000  Uiso   1.00
C1137  C     0.47725   0.69092   0.71837   0.00000  Uiso   1.00
C1138  C     0.52580   0.97596   0.77899   0.00000  Uiso   1.00
C1139  C     0.52333   0.69185   0.78116   0.00000  Uiso   1.00
C1140  C     0.47645   0.97485   0.71897   0.00000  Uiso   1.00
C1141  C     0.35460   0.79098   0.75156   0.00000  Uiso   1.00
C1142  C     0.64536   0.87492   0.74573   0.00000  Uiso   1.00
C1143  C     0.64556   0.79081   0.74847   0.00000  Uiso   1.00
C1144  C     0.35434   0.87523   0.74971   0.00000  Uiso   1.00
C1145  C     0.52927   0.84135   0.54709   0.00000  Uiso   1.00
C1146  C     0.47941   0.79088   0.95024   0.00000  Uiso   1.00
C1147  C     0.49292   0.87349   0.95474   0.00000  Uiso   1.00
C1148  C     0.45768   0.81877   0.54709   0.00000  Uiso   1.00
C1149  C     0.53206   0.84240   0.59350   0.00000  Uiso   1.00
C1150  C     0.47599   0.79271   0.90372   0.00000  Uiso   1.00
C1151  C     0.49009   0.87613   0.90844   0.00000  Uiso   1.00
C1152  C     0.45957   0.82028   0.59352   0.00000  Uiso   1.00
C1153  C     0.49705   0.83195   0.61678   0.00000  Uiso   1.00
C1154  C     0.48665   0.83446   0.88253   0.00000  Uiso   1.00
C1155  C     0.49232   0.82938   0.52401   0.00000  Uiso   1.00
C1156  C     0.48933   0.83084   0.97543   0.00000  Uiso   1.00
C1157  C     0.62380   0.83294   0.74731   0.00000  Uiso   1.00
C1158  C     0.37616   0.83321   0.75147   0.00000  Uiso   1.00
N1159  N     0.45505   0.71419   0.68313   0.00000  Uiso   1.00
O1160  O     0.47028   0.71496   0.64423   0.00000  Uiso   1.00
O1161  O     0.41607   0.72153   0.68591   0.00000  Uiso   1.00
N1162  N     0.56035   0.95456   0.80208   0.00000  Uiso   1.00
O1163  O     0.55550   0.92987   0.83694   0.00000  Uiso   1.00
O1164  O     0.59666   0.97132   0.79683   0.00000  Uiso   1.00
N1165  N     0.54485   0.71556   0.81754   0.00000  Uiso   1.00
O1166  O     0.57972   0.73542   0.81178   0.00000  Uiso   1.00
O1167  O     0.53637   0.70525   0.85778   0.00000  Uiso   1.00
N1168  N     0.45363   0.95068   0.68396   0.00000  Uiso   1.00
O1169  O     0.41429   0.94612   0.68627   0.00000  Uiso   1.00
O1170  O     0.46889   0.94768   0.64512   0.00000  Uiso   1.00
F1171  F     0.56288   0.85070   0.52423   0.00000  Uiso   1.00
F1172  F     0.47180   0.75067   0.97127   0.00000  Uiso   1.00
F1173  F     0.49690   0.91291   0.98004   0.00000  Uiso   1.00
F1174  F     0.42147   0.80967   0.52420   0.00000  Uiso   1.00
N1175  N     0.57063   0.85310   0.61660   0.00000  Uiso   1.00
O1176  O     0.58529   0.82608   0.64777   0.00000  Uiso   1.00
O1177  O     0.59350   0.88635   0.60295   0.00000  Uiso   1.00
N1178  N     0.45732   0.75436   0.87879   0.00000  Uiso   1.00
O1179  O     0.43041   0.76254   0.84638   0.00000  Uiso   1.00
O1180  O     0.46028   0.71228   0.89372   0.00000  Uiso   1.00
N1181  N     0.48651   0.92120   0.88879   0.00000  Uiso   1.00
O1182  O     0.45558   0.92995   0.86109   0.00000  Uiso   1.00
O1183  O     0.50783   0.95589   0.90592   0.00000  Uiso   1.00
N1184  N     0.42306   0.81153   0.61655   0.00000  Uiso   1.00
O1185  O     0.39709   0.77992   0.60175   0.00000  Uiso   1.00
O1186  O     0.41314   0.83878   0.64899   0.00000  Uiso   1.00
F1187  F     0.37414   0.74955   0.75545   0.00000  Uiso   1.00
F1188  F     0.62582   0.91584   0.73873   0.00000  Uiso   1.00
F1189  F     0.62626   0.74910   0.74535   0.00000  Uiso   1.00
F1190  F     0.37353   0.91698   0.75258   0.00000  Uiso   1.00
O1191  O     0.77321   0.87291   0.75000   0.00000  Uiso   1.00
O1192  O     0.89345   0.79375   0.75001   0.00000  Uiso   1.00
O1193  O     0.89345   0.87291   0.75001   0.00000  Uiso   1.00
O1194  O     0.77321   0.79375   0.75000   0.00000  Uiso   1.00
N1195  N     0.83333   0.95069   0.75000   0.00000  Uiso   1.00
N1196  N     0.83333   0.71598   0.75000   0.00000  Uiso   1.00
C1197  C     0.75415   0.83333   0.75110   0.00000  Uiso   1.00
C1198  C     0.91251   0.83324   0.74885   0.00000  Uiso   1.00
O1199  O     0.83333   0.87293   0.68573   0.00000  Uiso   1.00
O1200  O     0.83334   0.79374   0.81427   0.00000  Uiso   1.00
O1201  O     0.83334   0.87293   0.81427   0.00000  Uiso   1.00
O1202  O     0.83333   0.79374   0.68573   0.00000  Uiso   1.00
C1203  C     0.83285   0.83298   0.66515   0.00000  Uiso   1.00
C1204  C     0.82873   0.83374   0.83460   0.00000  Uiso   1.00
Cu1205 Cu    0.83333   0.88022   0.75000   0.00000  Uiso   1.00
Cu1206 Cu    0.83333   0.78645   0.75000   0.00000  Uiso   1.00
C1207  C     0.81058   0.69092   0.71837   0.00000  Uiso   1.00
C1208  C     0.85913   0.97596   0.77899   0.00000  Uiso   1.00
C1209  C     0.85667   0.69185   0.78116   0.00000  Uiso   1.00
C1210  C     0.80978   0.97485   0.71897   0.00000  Uiso   1.00
C1211  C     0.68793   0.79098   0.75156   0.00000  Uiso   1.00
C1212  C     0.97869   0.87492   0.74573   0.00000  Uiso   1.00
C1213  C     0.97889   0.79081   0.74847   0.00000  Uiso   1.00
C1214  C     0.68767   0.87523   0.74971   0.00000  Uiso   1.00
C1215  C     0.86260   0.84135   0.54709   0.00000  Uiso   1.00
C1216  C     0.81274   0.79088   0.95024   0.00000  Uiso   1.00
C1217  C     0.82626   0.87349   0.95474   0.00000  Uiso   1.00
C1218  C     0.79101   0.81877   0.54709   0.00000  Uiso   1.00
C1219  C     0.86539   0.84240   0.59350   0.00000  Uiso   1.00
C1220  C     0.80932   0.79271   0.90372   0.00000  Uiso   1.00
C1221  C     0.82342   0.87613   0.90844   0.00000  Uiso   1.00
C1222  C     0.79290   0.82028   0.59352   0.00000  Uiso   1.00
C1223  C     0.83038   0.83195   0.61678   0.00000  Uiso   1.00
C1224  C     0.81998   0.83446   0.88253   0.00000  Uiso   1.00
C1225  C     0.82566   0.82938   0.52401   0.00000  Uiso   1.00
C1226  C     0.82267   0.83084   0.97543   0.00000  Uiso   1.00
C1227  C     0.95713   0.83294   0.74731   0.00000  Uiso   1.00
C1228  C     0.70949   0.83321   0.75147   0.00000  Uiso   1.00
N1229  N     0.78839   0.71419   0.68313   0.00000  Uiso   1.00
O1230  O     0.80361   0.71496   0.64423   0.00000  Uiso   1.00
O1231  O     0.74940   0.72153   0.68591   0.00000  Uiso   1.00
N1232  N     0.89368   0.95456   0.80208   0.00000  Uiso   1.00
O1233  O     0.88883   0.92987   0.83694   0.00000  Uiso   1.00
O1234  O     0.92999   0.97132   0.79683   0.00000  Uiso   1.00
N1235  N     0.87819   0.71556   0.81754   0.00000  Uiso   1.00
O1236  O     0.91305   0.73542   0.81178   0.00000  Uiso   1.00
O1237  O     0.86970   0.70525   0.85778   0.00000  Uiso   1.00
N1238  N     0.78696   0.95068   0.68396   0.00000  Uiso   1.00
O1239  O     0.74762   0.94612   0.68627   0.00000  Uiso   1.00
O1240  O     0.80222   0.94768   0.64512   0.00000  Uiso   1.00
F1241  F     0.89621   0.85070   0.52423   0.00000  Uiso   1.00
F1242  F     0.80513   0.75067   0.97127   0.00000  Uiso   1.00
F1243  F     0.83023   0.91291   0.98004   0.00000  Uiso   1.00
F1244  F     0.75480   0.80967   0.52420   0.00000  Uiso   1.00
N1245  N     0.90397   0.85310   0.61660   0.00000  Uiso   1.00
O1246  O     0.91862   0.82608   0.64777   0.00000  Uiso   1.00
O1247  O     0.92683   0.88635   0.60295   0.00000  Uiso   1.00
N1248  N     0.79065   0.75436   0.87879   0.00000  Uiso   1.00
O1249  O     0.76375   0.76254   0.84638   0.00000  Uiso   1.00
O1250  O     0.79361   0.71228   0.89372   0.00000  Uiso   1.00
N1251  N     0.81984   0.92120   0.88879   0.00000  Uiso   1.00
O1252  O     0.78891   0.92995   0.86109   0.00000  Uiso   1.00
O1253  O     0.84117   0.95589   0.90592   0.00000  Uiso   1.00
N1254  N     0.75640   0.81153   0.61655   0.00000  Uiso   1.00
O1255  O     0.73042   0.77992   0.60175   0.00000  Uiso   1.00
O1256  O     0.74648   0.83878   0.64899   0.00000  Uiso   1.00
F1257  F     0.70747   0.74955   0.75545   0.00000  Uiso   1.00
F1258  F     0.95915   0.91584   0.73873   0.00000  Uiso   1.00
F1259  F     0.95959   0.74910   0.74535   0.00000  Uiso   1.00
F1260  F     0.70687   0.91698   0.75258   0.00000  Uiso   1.00
loop_
_geom_bond_atom_site_label_1
_geom_bond_atom_site_label_2
_geom_bond_distance
_geom_bond_site_symmetry_2
_ccdc_geom_bond_type
O1     Cu15    1.977   .     S
O1     C7      1.301   .     A
O2     Cu16    1.977   .     S
O2     C8      1.299   .     A
O3     Cu15    1.976   .     S
O3     C8      1.302   .     A
O4     Cu16    1.976   .     S
O4     C7      1.300   .     A
N5     C20     1.375   .     A
N5     Cu15    2.029   .     S
N5     C18     1.379   .     A
N6     C19     1.373   .     A
N6     Cu16    2.029   .     S
N6     C17     1.372   .     A
C7     C38     1.461   .     S
C8     C37     1.462   .     S
O9     Cu15    1.947   .     S
O9     C13     1.299   .     A
O10    Cu16    1.947   .     S
O10    C14     1.309   .     A
O11    C14     1.306   .     A
O11    Cu15    1.954   .     S
O12    C13     1.297   .     A
O12    Cu16    1.954   .     S
C13    C33     1.457   .     S
C14    C34     1.490   .     S
Cu15   Cu16    2.701   .     S
C17    N39     1.428   .     S
C17    C440    1.423   1_545 S
C18    N42     1.437   .     S
C18    C229    1.421   .     S
C19    N45     1.433   .     S
C19    C438    1.421   1_545 S
C20    N48     1.430   .     S
C20    C227    1.423   .     S
C21    F67     1.357   .     S
C21    C38     1.406   .     A
C21    C163    1.383   1_455 S
C22    C37     1.403   .     A
C22    F68     1.354   .     S
C22    C94     1.382   .     S
C23    C37     1.406   .     A
C23    F69     1.356   .     S
C23    C91     1.383   .     S
C24    C38     1.405   .     A
C24    F70     1.356   .     S
C24    C162    1.382   1_455 S
C25    C35     1.400   .     A
C25    C29     1.398   .     A
C25    F51     1.359   .     S
C26    F52     1.359   .     S
C26    C36     1.397   .     A
C26    C30     1.403   .     A
C27    F53     1.360   .     S
C27    C36     1.394   .     A
C27    C31     1.398   .     A
C28    C35     1.399   .     A
C28    C32     1.399   .     A
C28    F54     1.359   .     S
C29    C33     1.411   .     A
C29    N55     1.437   .     S
C30    N58     1.442   .     S
C30    C34     1.423   .     A
C31    N61     1.437   .     S
C31    C34     1.423   .     A
C32    N64     1.439   .     S
C32    C33     1.414   .     A
C35    C666    1.465   1_554 S
C36    C665    1.465   .     S
N39    O41     1.299   .     A
N39    O40     1.301   .     A
N42    O44     1.301   .     A
N42    O43     1.296   .     A
N45    O46     1.297   .     A
N45    O47     1.299   .     A
N48    O50     1.301   .     A
N48    O49     1.299   .     A
N55    O56     1.300   .     A
N55    O57     1.301   .     A
N58    O60     1.301   .     A
N58    O59     1.302   .     A
N61    O62     1.302   .     A
N61    O63     1.301   .     A
N64    O65     1.301   .     A
N64    O66     1.300   .     A
O71    Cu85    1.977   .     S
O71    C77     1.301   .     A
O72    Cu86    1.977   .     S
O72    C78     1.299   .     A
O73    Cu85    1.976   .     S
O73    C78     1.302   .     A
O74    Cu86    1.976   .     S
O74    C77     1.300   .     A
N75    C90     1.375   .     A
N75    Cu85    2.029   .     S
N75    C88     1.379   .     A
N76    C89     1.373   .     A
N76    Cu86    2.029   .     S
N76    C87     1.372   .     A
C77    C108    1.461   .     S
C78    C107    1.462   .     S
O79    Cu85    1.947   .     S
O79    C83     1.299   .     A
O80    Cu86    1.947   .     S
O80    C84     1.309   .     A
O81    C84     1.306   .     A
O81    Cu85    1.954   .     S
O82    C83     1.297   .     A
O82    Cu86    1.954   .     S
C83    C103    1.457   .     S
C84    C104    1.490   .     S
Cu85   Cu86    2.701   .     S
C87    N109    1.428   .     S
C87    C510    1.423   1_545 S
C88    N112    1.437   .     S
C88    C299    1.421   .     S
C89    N115    1.433   .     S
C89    C508    1.421   1_545 S
C90    N118    1.430   .     S
C90    C297    1.423   .     S
C91    F137    1.357   .     S
C91    C108    1.406   .     A
C92    C107    1.403   .     A
C92    F138    1.354   .     S
C92    C164    1.382   .     S
C93    C107    1.406   .     A
C93    F139    1.356   .     S
C93    C161    1.383   .     S
C94    C108    1.405   .     A
C94    F140    1.356   .     S
C95    C105    1.400   .     A
C95    C99     1.398   .     A
C95    F121    1.359   .     S
C96    F122    1.359   .     S
C96    C106    1.397   .     A
C96    C100    1.403   .     A
C97    F123    1.360   .     S
C97    C106    1.394   .     A
C97    C101    1.398   .     A
C98    C105    1.399   .     A
C98    C102    1.399   .     A
C98    F124    1.359   .     S
C99    C103    1.411   .     A
C99    N125    1.437   .     S
C100   N128    1.442   .     S
C100   C104    1.423   .     A
C101   N131    1.437   .     S
C101   C104    1.423   .     A
C102   N134    1.439   .     S
C102   C103    1.414   .     A
C105   C736    1.465   1_554 S
C106   C735    1.465   .     S
N109   O111    1.299   .     A
N109   O110    1.301   .     A
N112   O114    1.301   .     A
N112   O113    1.296   .     A
N115   O116    1.297   .     A
N115   O117    1.299   .     A
N118   O120    1.301   .     A
N118   O119    1.299   .     A
N125   O126    1.300   .     A
N125   O127    1.301   .     A
N128   O130    1.301   .     A
N128   O129    1.302   .     A
N131   O132    1.302   .     A
N131   O133    1.301   .     A
N134   O135    1.301   .     A
N134   O136    1.300   .     A
O141   Cu155   1.977   .     S
O141   C147    1.301   .     A
O142   Cu156   1.977   .     S
O142   C148    1.299   .     A
O143   Cu155   1.976   .     S
O143   C148    1.302   .     A
O144   Cu156   1.976   .     S
O144   C147    1.300   .     A
N145   C160    1.375   .     A
N145   Cu155   2.029   .     S
N145   C158    1.379   .     A
N146   C159    1.373   .     A
N146   Cu156   2.029   .     S
N146   C157    1.372   .     A
C147   C178    1.461   .     S
C148   C177    1.462   .     S
O149   Cu155   1.947   .     S
O149   C153    1.299   .     A
O150   Cu156   1.947   .     S
O150   C154    1.309   .     A
O151   C154    1.306   .     A
O151   Cu155   1.954   .     S
O152   C153    1.297   .     A
O152   Cu156   1.954   .     S
C153   C173    1.457   .     S
C154   C174    1.490   .     S
Cu155  Cu156   2.701   .     S
C157   N179    1.428   .     S
C157   C580    1.423   1_545 S
C158   N182    1.437   .     S
C158   C369    1.421   .     S
C159   N185    1.433   .     S
C159   C578    1.421   1_545 S
C160   N188    1.430   .     S
C160   C367    1.423   .     S
C161   F207    1.357   .     S
C161   C178    1.406   .     A
C162   C177    1.403   .     A
C162   F208    1.354   .     S
C162   C24     1.382   1_655 S
C163   C177    1.406   .     A
C163   F209    1.356   .     S
C163   C21     1.383   1_655 S
C164   C178    1.405   .     A
C164   F210    1.356   .     S
C165   C175    1.400   .     A
C165   C169    1.398   .     A
C165   F191    1.359   .     S
C166   F192    1.359   .     S
C166   C176    1.397   .     A
C166   C170    1.403   .     A
C167   F193    1.360   .     S
C167   C176    1.394   .     A
C167   C171    1.398   .     A
C168   C175    1.399   .     A
C168   C172    1.399   .     A
C168   F194    1.359   .     S
C169   C173    1.411   .     A
C169   N195    1.437   .     S
C170   N198    1.442   .     S
C170   C174    1.423   .     A
C171   N201    1.437   .     S
C171   C174    1.423   .     A
C172   N204    1.439   .     S
C172   C173    1.414   .     A
C175   C806    1.465   1_554 S
C176   C805    1.465   .     S
N179   O181    1.299   .     A
N179   O180    1.301   .     A
N182   O184    1.301   .     A
N182   O183    1.296   .     A
N185   O186    1.297   .     A
N185   O187    1.299   .     A
N188   O190    1.301   .     A
N188   O189    1.299   .     A
N195   O196    1.300   .     A
N195   O197    1.301   .     A
N198   O200    1.301   .     A
N198   O199    1.302   .     A
N201   O202    1.302   .     A
N201   O203    1.301   .     A
N204   O205    1.301   .     A
N204   O206    1.300   .     A
O211   Cu225   1.977   .     S
O211   C217    1.301   .     A
O212   Cu226   1.977   .     S
O212   C218    1.299   .     A
O213   Cu225   1.976   .     S
O213   C218    1.302   .     A
O214   Cu226   1.976   .     S
O214   C217    1.300   .     A
N215   C230    1.375   .     A
N215   Cu225   2.029   .     S
N215   C228    1.379   .     A
N216   C229    1.373   .     A
N216   Cu226   2.029   .     S
N216   C227    1.372   .     A
C217   C248    1.461   .     S
C218   C247    1.462   .     S
O219   Cu225   1.947   .     S
O219   C223    1.299   .     A
O220   Cu226   1.947   .     S
O220   C224    1.309   .     A
O221   C224    1.306   .     A
O221   Cu225   1.954   .     S
O222   C223    1.297   .     A
O222   Cu226   1.954   .     S
C223   C243    1.457   .     S
C224   C244    1.490   .     S
Cu225  Cu226   2.701   .     S
C227   N249    1.428   .     S
C228   N252    1.437   .     S
C228   C439    1.421   .     S
C229   N255    1.433   .     S
C230   N258    1.430   .     S
C230   C437    1.423   .     S
C231   F277    1.357   .     S
C231   C248    1.406   .     A
C231   C373    1.383   1_455 S
C232   C247    1.403   .     A
C232   F278    1.354   .     S
C232   C304    1.382   .     S
C233   C247    1.406   .     A
C233   F279    1.356   .     S
C233   C301    1.383   .     S
C234   C248    1.405   .     A
C234   F280    1.356   .     S
C234   C372    1.382   1_455 S
C235   C245    1.400   .     A
C235   C239    1.398   .     A
C235   F261    1.359   .     S
C236   F262    1.359   .     S
C236   C246    1.397   .     A
C236   C240    1.403   .     A
C237   F263    1.360   .     S
C237   C246    1.394   .     A
C237   C241    1.398   .     A
C238   C245    1.399   .     A
C238   C242    1.399   .     A
C238   F264    1.359   .     S
C239   C243    1.411   .     A
C239   N265    1.437   .     S
C240   N268    1.442   .     S
C240   C244    1.423   .     A
C241   N271    1.437   .     S
C241   C244    1.423   .     A
C242   N274    1.439   .     S
C242   C243    1.414   .     A
C245   C876    1.465   1_554 S
C246   C875    1.465   .     S
N249   O251    1.299   .     A
N249   O250    1.301   .     A
N252   O254    1.301   .     A
N252   O253    1.296   .     A
N255   O256    1.297   .     A
N255   O257    1.299   .     A
N258   O260    1.301   .     A
N258   O259    1.299   .     A
N265   O266    1.300   .     A
N265   O267    1.301   .     A
N268   O270    1.301   .     A
N268   O269    1.302   .     A
N271   O272    1.302   .     A
N271   O273    1.301   .     A
N274   O275    1.301   .     A
N274   O276    1.300   .     A
O281   Cu295   1.977   .     S
O281   C287    1.301   .     A
O282   Cu296   1.977   .     S
O282   C288    1.299   .     A
O283   Cu295   1.976   .     S
O283   C288    1.302   .     A
O284   Cu296   1.976   .     S
O284   C287    1.300   .     A
N285   C300    1.375   .     A
N285   Cu295   2.029   .     S
N285   C298    1.379   .     A
N286   C299    1.373   .     A
N286   Cu296   2.029   .     S
N286   C297    1.372   .     A
C287   C318    1.461   .     S
C288   C317    1.462   .     S
O289   Cu295   1.947   .     S
O289   C293    1.299   .     A
O290   Cu296   1.947   .     S
O290   C294    1.309   .     A
O291   C294    1.306   .     A
O291   Cu295   1.954   .     S
O292   C293    1.297   .     A
O292   Cu296   1.954   .     S
C293   C313    1.457   .     S
C294   C314    1.490   .     S
Cu295  Cu296   2.701   .     S
C297   N319    1.428   .     S
C298   N322    1.437   .     S
C298   C509    1.421   .     S
C299   N325    1.433   .     S
C300   N328    1.430   .     S
C300   C507    1.423   .     S
C301   F347    1.357   .     S
C301   C318    1.406   .     A
C302   C317    1.403   .     A
C302   F348    1.354   .     S
C302   C374    1.382   .     S
C303   C317    1.406   .     A
C303   F349    1.356   .     S
C303   C371    1.383   .     S
C304   C318    1.405   .     A
C304   F350    1.356   .     S
C305   C315    1.400   .     A
C305   C309    1.398   .     A
C305   F331    1.359   .     S
C306   F332    1.359   .     S
C306   C316    1.397   .     A
C306   C310    1.403   .     A
C307   F333    1.360   .     S
C307   C316    1.394   .     A
C307   C311    1.398   .     A
C308   C315    1.399   .     A
C308   C312    1.399   .     A
C308   F334    1.359   .     S
C309   C313    1.411   .     A
C309   N335    1.437   .     S
C310   N338    1.442   .     S
C310   C314    1.423   .     A
C311   N341    1.437   .     S
C311   C314    1.423   .     A
C312   N344    1.439   .     S
C312   C313    1.414   .     A
C315   C946    1.465   1_554 S
C316   C945    1.465   .     S
N319   O321    1.299   .     A
N319   O320    1.301   .     A
N322   O324    1.301   .     A
N322   O323    1.296   .     A
N325   O326    1.297   .     A
N325   O327    1.299   .     A
N328   O330    1.301   .     A
N328   O329    1.299   .     A
N335   O336    1.300   .     A
N335   O337    1.301   .     A
N338   O340    1.301   .     A
N338   O339    1.302   .     A
N341   O342    1.302   .     A
N341   O343    1.301   .     A
N344   O345    1.301   .     A
N344   O346    1.300   .     A
O351   Cu365   1.977   .     S
O351   C357    1.301   .     A
O352   Cu366   1.977   .     S
O352   C358    1.299   .     A
O353   Cu365   1.976   .     S
O353   C358    1.302   .     A
O354   Cu366   1.976   .     S
O354   C357    1.300   .     A
N355   C370    1.375   .     A
N355   Cu365   2.029   .     S
N355   C368    1.379   .     A
N356   C369    1.373   .     A
N356   Cu366   2.029   .     S
N356   C367    1.372   .     A
C357   C388    1.461   .     S
C358   C387    1.462   .     S
O359   Cu365   1.947   .     S
O359   C363    1.299   .     A
O360   Cu366   1.947   .     S
O360   C364    1.309   .     A
O361   C364    1.306   .     A
O361   Cu365   1.954   .     S
O362   C363    1.297   .     A
O362   Cu366   1.954   .     S
C363   C383    1.457   .     S
C364   C384    1.490   .     S
Cu365  Cu366   2.701   .     S
C367   N389    1.428   .     S
C368   N392    1.437   .     S
C368   C579    1.421   .     S
C369   N395    1.433   .     S
C370   N398    1.430   .     S
C370   C577    1.423   .     S
C371   F417    1.357   .     S
C371   C388    1.406   .     A
C372   C387    1.403   .     A
C372   F418    1.354   .     S
C372   C234    1.382   1_655 S
C373   C387    1.406   .     A
C373   F419    1.356   .     S
C373   C231    1.383   1_655 S
C374   C388    1.405   .     A
C374   F420    1.356   .     S
C375   C385    1.400   .     A
C375   C379    1.398   .     A
C375   F401    1.359   .     S
C376   F402    1.359   .     S
C376   C386    1.397   .     A
C376   C380    1.403   .     A
C377   F403    1.360   .     S
C377   C386    1.394   .     A
C377   C381    1.398   .     A
C378   C385    1.399   .     A
C378   C382    1.399   .     A
C378   F404    1.359   .     S
C379   C383    1.411   .     A
C379   N405    1.437   .     S
C380   N408    1.442   .     S
C380   C384    1.423   .     A
C381   N411    1.437   .     S
C381   C384    1.423   .     A
C382   N414    1.439   .     S
C382   C383    1.414   .     A
C385   C1016   1.465   1_554 S
C386   C1015   1.465   .     S
N389   O391    1.299   .     A
N389   O390    1.301   .     A
N392   O394    1.301   .     A
N392   O393    1.296   .     A
N395   O396    1.297   .     A
N395   O397    1.299   .     A
N398   O400    1.301   .     A
N398   O399    1.299   .     A
N405   O406    1.300   .     A
N405   O407    1.301   .     A
N408   O410    1.301   .     A
N408   O409    1.302   .     A
N411   O412    1.302   .     A
N411   O413    1.301   .     A
N414   O415    1.301   .     A
N414   O416    1.300   .     A
O421   Cu435   1.977   .     S
O421   C427    1.301   .     A
O422   Cu436   1.977   .     S
O422   C428    1.299   .     A
O423   Cu435   1.976   .     S
O423   C428    1.302   .     A
O424   Cu436   1.976   .     S
O424   C427    1.300   .     A
N425   C440    1.375   .     A
N425   Cu435   2.029   .     S
N425   C438    1.379   .     A
N426   C439    1.373   .     A
N426   Cu436   2.029   .     S
N426   C437    1.372   .     A
C427   C458    1.461   .     S
C428   C457    1.462   .     S
O429   Cu435   1.947   .     S
O429   C433    1.299   .     A
O430   Cu436   1.947   .     S
O430   C434    1.309   .     A
O431   C434    1.306   .     A
O431   Cu435   1.954   .     S
O432   C433    1.297   .     A
O432   Cu436   1.954   .     S
C433   C453    1.457   .     S
C434   C454    1.490   .     S
Cu435  Cu436   2.701   .     S
C437   N459    1.428   .     S
C438   N462    1.437   .     S
C438   C19     1.421   1_565 S
C439   N465    1.433   .     S
C440   N468    1.430   .     S
C440   C17     1.423   1_565 S
C441   F487    1.357   .     S
C441   C458    1.406   .     A
C441   C583    1.383   1_455 S
C442   C457    1.403   .     A
C442   F488    1.354   .     S
C442   C514    1.382   .     S
C443   C457    1.406   .     A
C443   F489    1.356   .     S
C443   C511    1.383   .     S
C444   C458    1.405   .     A
C444   F490    1.356   .     S
C444   C582    1.382   1_455 S
C445   C455    1.400   .     A
C445   C449    1.398   .     A
C445   F471    1.359   .     S
C446   F472    1.359   .     S
C446   C456    1.397   .     A
C446   C450    1.403   .     A
C447   F473    1.360   .     S
C447   C456    1.394   .     A
C447   C451    1.398   .     A
C448   C455    1.399   .     A
C448   C452    1.399   .     A
C448   F474    1.359   .     S
C449   C453    1.411   .     A
C449   N475    1.437   .     S
C450   N478    1.442   .     S
C450   C454    1.423   .     A
C451   N481    1.437   .     S
C451   C454    1.423   .     A
C452   N484    1.439   .     S
C452   C453    1.414   .     A
C455   C1086   1.465   1_554 S
C456   C1085   1.465   .     S
N459   O461    1.299   .     A
N459   O460    1.301   .     A
N462   O464    1.301   .     A
N462   O463    1.296   .     A
N465   O466    1.297   .     A
N465   O467    1.299   .     A
N468   O470    1.301   .     A
N468   O469    1.299   .     A
N475   O476    1.300   .     A
N475   O477    1.301   .     A
N478   O480    1.301   .     A
N478   O479    1.302   .     A
N481   O482    1.302   .     A
N481   O483    1.301   .     A
N484   O485    1.301   .     A
N484   O486    1.300   .     A
O491   Cu505   1.977   .     S
O491   C497    1.301   .     A
O492   Cu506   1.977   .     S
O492   C498    1.299   .     A
O493   Cu505   1.976   .     S
O493   C498    1.302   .     A
O494   Cu506   1.976   .     S
O494   C497    1.300   .     A
N495   C510    1.375   .     A
N495   Cu505   2.029   .     S
N495   C508    1.379   .     A
N496   C509    1.373   .     A
N496   Cu506   2.029   .     S
N496   C507    1.372   .     A
C497   C528    1.461   .     S
C498   C527    1.462   .     S
O499   Cu505   1.947   .     S
O499   C503    1.299   .     A
O500   Cu506   1.947   .     S
O500   C504    1.309   .     A
O501   C504    1.306   .     A
O501   Cu505   1.954   .     S
O502   C503    1.297   .     A
O502   Cu506   1.954   .     S
C503   C523    1.457   .     S
C504   C524    1.490   .     S
Cu505  Cu506   2.701   .     S
C507   N529    1.428   .     S
C508   N532    1.437   .     S
C508   C89     1.421   1_565 S
C509   N535    1.433   .     S
C510   N538    1.430   .     S
C510   C87     1.423   1_565 S
C511   F557    1.357   .     S
C511   C528    1.406   .     A
C512   C527    1.403   .     A
C512   F558    1.354   .     S
C512   C584    1.382   .     S
C513   C527    1.406   .     A
C513   F559    1.356   .     S
C513   C581    1.383   .     S
C514   C528    1.405   .     A
C514   F560    1.356   .     S
C515   C525    1.400   .     A
C515   C519    1.398   .     A
C515   F541    1.359   .     S
C516   F542    1.359   .     S
C516   C526    1.397   .     A
C516   C520    1.403   .     A
C517   F543    1.360   .     S
C517   C526    1.394   .     A
C517   C521    1.398   .     A
C518   C525    1.399   .     A
C518   C522    1.399   .     A
C518   F544    1.359   .     S
C519   C523    1.411   .     A
C519   N545    1.437   .     S
C520   N548    1.442   .     S
C520   C524    1.423   .     A
C521   N551    1.437   .     S
C521   C524    1.423   .     A
C522   N554    1.439   .     S
C522   C523    1.414   .     A
C525   C1156   1.465   1_554 S
C526   C1155   1.465   .     S
N529   O531    1.299   .     A
N529   O530    1.301   .     A
N532   O534    1.301   .     A
N532   O533    1.296   .     A
N535   O536    1.297   .     A
N535   O537    1.299   .     A
N538   O540    1.301   .     A
N538   O539    1.299   .     A
N545   O546    1.300   .     A
N545   O547    1.301   .     A
N548   O550    1.301   .     A
N548   O549    1.302   .     A
N551   O552    1.302   .     A
N551   O553    1.301   .     A
N554   O555    1.301   .     A
N554   O556    1.300   .     A
O561   Cu575   1.977   .     S
O561   C567    1.301   .     A
O562   Cu576   1.977   .     S
O562   C568    1.299   .     A
O563   Cu575   1.976   .     S
O563   C568    1.302   .     A
O564   Cu576   1.976   .     S
O564   C567    1.300   .     A
N565   C580    1.375   .     A
N565   Cu575   2.029   .     S
N565   C578    1.379   .     A
N566   C579    1.373   .     A
N566   Cu576   2.029   .     S
N566   C577    1.372   .     A
C567   C598    1.461   .     S
C568   C597    1.462   .     S
O569   Cu575   1.947   .     S
O569   C573    1.299   .     A
O570   Cu576   1.947   .     S
O570   C574    1.309   .     A
O571   C574    1.306   .     A
O571   Cu575   1.954   .     S
O572   C573    1.297   .     A
O572   Cu576   1.954   .     S
C573   C593    1.457   .     S
C574   C594    1.490   .     S
Cu575  Cu576   2.701   .     S
C577   N599    1.428   .     S
C578   N602    1.437   .     S
C578   C159    1.421   1_565 S
C579   N605    1.433   .     S
C580   N608    1.430   .     S
C580   C157    1.423   1_565 S
C581   F627    1.357   .     S
C581   C598    1.406   .     A
C582   C597    1.403   .     A
C582   F628    1.354   .     S
C582   C444    1.382   1_655 S
C583   C597    1.406   .     A
C583   F629    1.356   .     S
C583   C441    1.383   1_655 S
C584   C598    1.405   .     A
C584   F630    1.356   .     S
C585   C595    1.400   .     A
C585   C589    1.398   .     A
C585   F611    1.359   .     S
C586   F612    1.359   .     S
C586   C596    1.397   .     A
C586   C590    1.403   .     A
C587   F613    1.360   .     S
C587   C596    1.394   .     A
C587   C591    1.398   .     A
C588   C595    1.399   .     A
C588   C592    1.399   .     A
C588   F614    1.359   .     S
C589   C593    1.411   .     A
C589   N615    1.437   .     S
C590   N618    1.442   .     S
C590   C594    1.423   .     A
C591   N621    1.437   .     S
C591   C594    1.423   .     A
C592   N624    1.439   .     S
C592   C593    1.414   .     A
C595   C1226   1.465   1_554 S
C596   C1225   1.465   .     S
N599   O601    1.299   .     A
N599   O600    1.301   .     A
N602   O604    1.301   .     A
N602   O603    1.296   .     A
N605   O606    1.297   .     A
N605   O607    1.299   .     A
N608   O610    1.301   .     A
N608   O609    1.299   .     A
N615   O616    1.300   .     A
N615   O617    1.301   .     A
N618   O620    1.301   .     A
N618   O619    1.302   .     A
N621   O622    1.302   .     A
N621   O623    1.301   .     A
N624   O625    1.301   .     A
N624   O626    1.300   .     A
O631   Cu645   1.977   .     S
O631   C637    1.301   .     A
O632   Cu646   1.977   .     S
O632   C638    1.299   .     A
O633   Cu645   1.976   .     S
O633   C638    1.302   .     A
O634   Cu646   1.976   .     S
O634   C637    1.300   .     A
N635   C650    1.375   .     A
N635   Cu645   2.029   .     S
N635   C648    1.379   .     A
N636   C649    1.373   .     A
N636   Cu646   2.029   .     S
N636   C647    1.372   .     A
C637   C668    1.461   .     S
C638   C667    1.462   .     S
O639   Cu645   1.947   .     S
O639   C643    1.299   .     A
O640   Cu646   1.947   .     S
O640   C644    1.309   .     A
O641   C644    1.306   .     A
O641   Cu645   1.954   .     S
O642   C643    1.297   .     A
O642   Cu646   1.954   .     S
C643   C663    1.457   .     S
C644   C664    1.490   .     S
Cu645  Cu646   2.701   .     S
C647   N669    1.428   .     S
C647   C1070   1.423   1_545 S
C648   N672    1.437   .     S
C648   C859    1.421   .     S
C649   N675    1.433   .     S
C649   C1068   1.421   1_545 S
C650   N678    1.430   .     S
C650   C857    1.423   .     S
C651   F697    1.357   .     S
C651   C668    1.406   .     A
C651   C793    1.383   1_455 S
C652   C667    1.403   .     A
C652   F698    1.354   .     S
C652   C724    1.382   .     S
C653   C667    1.406   .     A
C653   F699    1.356   .     S
C653   C721    1.383   .     S
C654   C668    1.405   .     A
C654   F700    1.356   .     S
C654   C792    1.382   1_455 S
C655   C665    1.400   .     A
C655   C659    1.398   .     A
C655   F681    1.359   .     S
C656   F682    1.359   .     S
C656   C666    1.397   .     A
C656   C660    1.403   .     A
C657   F683    1.360   .     S
C657   C666    1.394   .     A
C657   C661    1.398   .     A
C658   C665    1.399   .     A
C658   C662    1.399   .     A
C658   F684    1.359   .     S
C659   C663    1.411   .     A
C659   N685    1.437   .     S
C660   N688    1.442   .     S
C660   C664    1.423   .     A
C661   N691    1.437   .     S
C661   C664    1.423   .     A
C662   N694    1.439   .     S
C662   C663    1.414   .     A
C666   C35     1.465   1_556 S
N669   O671    1.299   .     A
N669   O670    1.301   .     A
N672   O674    1.301   .     A
N672   O673    1.296   .     A
N675   O676    1.297   .     A
N675   O677    1.299   .     A
N678   O680    1.301   .     A
N678   O679    1.299   .     A
N685   O686    1.300   .     A
N685   O687    1.301   .     A
N688   O690    1.301   .     A
N688   O689    1.302   .     A
N691   O692    1.302   .     A
N691   O693    1.301   .     A
N694   O695    1.301   .     A
N694   O696    1.300   .     A
O701   Cu715   1.977   .     S
O701   C707    1.301   .     A
O702   Cu716   1.977   .     S
O702   C708    1.299   .     A
O703   Cu715   1.976   .     S
O703   C708    1.302   .     A
O704   Cu716   1.976   .     S
O704   C707    1.300   .     A
N705   C720    1.375   .     A
N705   Cu715   2.029   .     S
N705   C718    1.379   .     A
N706   C719    1.373   .     A
N706   Cu716   2.029   .     S
N706   C717    1.372   .     A
C707   C738    1.461   .     S
C708   C737    1.462   .     S
O709   Cu715   1.947   .     S
O709   C713    1.299   .     A
O710   Cu716   1.947   .     S
O710   C714    1.309   .     A
O711   C714    1.306   .     A
O711   Cu715   1.954   .     S
O712   C713    1.297   .     A
O712   Cu716   1.954   .     S
C713   C733    1.457   .     S
C714   C734    1.490   .     S
Cu715  Cu716   2.701   .     S
C717   N739    1.428   .     S
C717   C1140   1.423   1_545 S
C718   N742    1.437   .     S
C718   C929    1.421   .     S
C719   N745    1.433   .     S
C719   C1138   1.421   1_545 S
C720   N748    1.430   .     S
C720   C927    1.423   .     S
C721   F767    1.357   .     S
C721   C738    1.406   .     A
C722   C737    1.403   .     A
C722   F768    1.354   .     S
C722   C794    1.382   .     S
C723   C737    1.406   .     A
C723   F769    1.356   .     S
C723   C791    1.383   .     S
C724   C738    1.405   .     A
C724   F770    1.356   .     S
C725   C735    1.400   .     A
C725   C729    1.398   .     A
C725   F751    1.359   .     S
C726   F752    1.359   .     S
C726   C736    1.397   .     A
C726   C730    1.403   .     A
C727   F753    1.360   .     S
C727   C736    1.394   .     A
C727   C731    1.398   .     A
C728   C735    1.399   .     A
C728   C732    1.399   .     A
C728   F754    1.359   .     S
C729   C733    1.411   .     A
C729   N755    1.437   .     S
C730   N758    1.442   .     S
C730   C734    1.423   .     A
C731   N761    1.437   .     S
C731   C734    1.423   .     A
C732   N764    1.439   .     S
C732   C733    1.414   .     A
C736   C105    1.465   1_556 S
N739   O741    1.299   .     A
N739   O740    1.301   .     A
N742   O744    1.301   .     A
N742   O743    1.296   .     A
N745   O746    1.297   .     A
N745   O747    1.299   .     A
N748   O750    1.301   .     A
N748   O749    1.299   .     A
N755   O756    1.300   .     A
N755   O757    1.301   .     A
N758   O760    1.301   .     A
N758   O759    1.302   .     A
N761   O762    1.302   .     A
N761   O763    1.301   .     A
N764   O765    1.301   .     A
N764   O766    1.300   .     A
O771   Cu785   1.977   .     S
O771   C777    1.301   .     A
O772   Cu786   1.977   .     S
O772   C778    1.299   .     A
O773   Cu785   1.976   .     S
O773   C778    1.302   .     A
O774   Cu786   1.976   .     S
O774   C777    1.300   .     A
N775   C790    1.375   .     A
N775   Cu785   2.029   .     S
N775   C788    1.379   .     A
N776   C789    1.373   .     A
N776   Cu786   2.029   .     S
N776   C787    1.372   .     A
C777   C808    1.461   .     S
C778   C807    1.462   .     S
O779   Cu785   1.947   .     S
O779   C783    1.299   .     A
O780   Cu786   1.947   .     S
O780   C784    1.309   .     A
O781   C784    1.306   .     A
O781   Cu785   1.954   .     S
O782   C783    1.297   .     A
O782   Cu786   1.954   .     S
C783   C803    1.457   .     S
C784   C804    1.490   .     S
Cu785  Cu786   2.701   .     S
C787   N809    1.428   .     S
C787   C1210   1.423   1_545 S
C788   N812    1.437   .     S
C788   C999    1.421   .     S
C789   N815    1.433   .     S
C789   C1208   1.421   1_545 S
C790   N818    1.430   .     S
C790   C997    1.423   .     S
C791   F837    1.357   .     S
C791   C808    1.406   .     A
C792   C807    1.403   .     A
C792   F838    1.354   .     S
C792   C654    1.382   1_655 S
C793   C807    1.406   .     A
C793   F839    1.356   .     S
C793   C651    1.383   1_655 S
C794   C808    1.405   .     A
C794   F840    1.356   .     S
C795   C805    1.400   .     A
C795   C799    1.398   .     A
C795   F821    1.359   .     S
C796   F822    1.359   .     S
C796   C806    1.397   .     A
C796   C800    1.403   .     A
C797   F823    1.360   .     S
C797   C806    1.394   .     A
C797   C801    1.398   .     A
C798   C805    1.399   .     A
C798   C802    1.399   .     A
C798   F824    1.359   .     S
C799   C803    1.411   .     A
C799   N825    1.437   .     S
C800   N828    1.442   .     S
C800   C804    1.423   .     A
C801   N831    1.437   .     S
C801   C804    1.423   .     A
C802   N834    1.439   .     S
C802   C803    1.414   .     A
C806   C175    1.465   1_556 S
N809   O811    1.299   .     A
N809   O810    1.301   .     A
N812   O814    1.301   .     A
N812   O813    1.296   .     A
N815   O816    1.297   .     A
N815   O817    1.299   .     A
N818   O820    1.301   .     A
N818   O819    1.299   .     A
N825   O826    1.300   .     A
N825   O827    1.301   .     A
N828   O830    1.301   .     A
N828   O829    1.302   .     A
N831   O832    1.302   .     A
N831   O833    1.301   .     A
N834   O835    1.301   .     A
N834   O836    1.300   .     A
O841   Cu855   1.977   .     S
O841   C847    1.301   .     A
O842   Cu856   1.977   .     S
O842   C848    1.299   .     A
O843   Cu855   1.976   .     S
O843   C848    1.302   .     A
O844   Cu856   1.976   .     S
O844   C847    1.300   .     A
N845   C860    1.375   .     A
N845   Cu855   2.029   .     S
N845   C858    1.379   .     A
N846   C859    1.373   .     A
N846   Cu856   2.029   .     S
N846   C857    1.372   .     A
C847   C878    1.461   .     S
C848   C877    1.462   .     S
O849   Cu855   1.947   .     S
O849   C853    1.299   .     A
O850   Cu856   1.947   .     S
O850   C854    1.309   .     A
O851   C854    1.306   .     A
O851   Cu855   1.954   .     S
O852   C853    1.297   .     A
O852   Cu856   1.954   .     S
C853   C873    1.457   .     S
C854   C874    1.490   .     S
Cu855  Cu856   2.701   .     S
C857   N879    1.428   .     S
C858   N882    1.437   .     S
C858   C1069   1.421   .     S
C859   N885    1.433   .     S
C860   N888    1.430   .     S
C860   C1067   1.423   .     S
C861   F907    1.357   .     S
C861   C878    1.406   .     A
C861   C1003   1.383   1_455 S
C862   C877    1.403   .     A
C862   F908    1.354   .     S
C862   C934    1.382   .     S
C863   C877    1.406   .     A
C863   F909    1.356   .     S
C863   C931    1.383   .     S
C864   C878    1.405   .     A
C864   F910    1.356   .     S
C864   C1002   1.382   1_455 S
C865   C875    1.400   .     A
C865   C869    1.398   .     A
C865   F891    1.359   .     S
C866   F892    1.359   .     S
C866   C876    1.397   .     A
C866   C870    1.403   .     A
C867   F893    1.360   .     S
C867   C876    1.394   .     A
C867   C871    1.398   .     A
C868   C875    1.399   .     A
C868   C872    1.399   .     A
C868   F894    1.359   .     S
C869   C873    1.411   .     A
C869   N895    1.437   .     S
C870   N898    1.442   .     S
C870   C874    1.423   .     A
C871   N901    1.437   .     S
C871   C874    1.423   .     A
C872   N904    1.439   .     S
C872   C873    1.414   .     A
C876   C245    1.465   1_556 S
N879   O881    1.299   .     A
N879   O880    1.301   .     A
N882   O884    1.301   .     A
N882   O883    1.296   .     A
N885   O886    1.297   .     A
N885   O887    1.299   .     A
N888   O890    1.301   .     A
N888   O889    1.299   .     A
N895   O896    1.300   .     A
N895   O897    1.301   .     A
N898   O900    1.301   .     A
N898   O899    1.302   .     A
N901   O902    1.302   .     A
N901   O903    1.301   .     A
N904   O905    1.301   .     A
N904   O906    1.300   .     A
O911   Cu925   1.977   .     S
O911   C917    1.301   .     A
O912   Cu926   1.977   .     S
O912   C918    1.299   .     A
O913   Cu925   1.976   .     S
O913   C918    1.302   .     A
O914   Cu926   1.976   .     S
O914   C917    1.300   .     A
N915   C930    1.375   .     A
N915   Cu925   2.029   .     S
N915   C928    1.379   .     A
N916   C929    1.373   .     A
N916   Cu926   2.029   .     S
N916   C927    1.372   .     A
C917   C948    1.461   .     S
C918   C947    1.462   .     S
O919   Cu925   1.947   .     S
O919   C923    1.299   .     A
O920   Cu926   1.947   .     S
O920   C924    1.309   .     A
O921   C924    1.306   .     A
O921   Cu925   1.954   .     S
O922   C923    1.297   .     A
O922   Cu926   1.954   .     S
C923   C943    1.457   .     S
C924   C944    1.490   .     S
Cu925  Cu926   2.701   .     S
C927   N949    1.428   .     S
C928   N952    1.437   .     S
C928   C1139   1.421   .     S
C929   N955    1.433   .     S
C930   N958    1.430   .     S
C930   C1137   1.423   .     S
C931   F977    1.357   .     S
C931   C948    1.406   .     A
C932   C947    1.403   .     A
C932   F978    1.354   .     S
C932   C1004   1.382   .     S
C933   C947    1.406   .     A
C933   F979    1.356   .     S
C933   C1001   1.383   .     S
C934   C948    1.405   .     A
C934   F980    1.356   .     S
C935   C945    1.400   .     A
C935   C939    1.398   .     A
C935   F961    1.359   .     S
C936   F962    1.359   .     S
C936   C946    1.397   .     A
C936   C940    1.403   .     A
C937   F963    1.360   .     S
C937   C946    1.394   .     A
C937   C941    1.398   .     A
C938   C945    1.399   .     A
C938   C942    1.399   .     A
C938   F964    1.359   .     S
C939   C943    1.411   .     A
C939   N965    1.437   .     S
C940   N968    1.442   .     S
C940   C944    1.423   .     A
C941   N971    1.437   .     S
C941   C944    1.423   .     A
C942   N974    1.439   .     S
C942   C943    1.414   .     A
C946   C315    1.465   1_556 S
N949   O951    1.299   .     A
N949   O950    1.301   .     A
N952   O954    1.301   .     A
N952   O953    1.296   .     A
N955   O956    1.297   .     A
N955   O957    1.299   .     A
N958   O960    1.301   .     A
N958   O959    1.299   .     A
N965   O966    1.300   .     A
N965   O967    1.301   .     A
N968   O970    1.301   .     A
N968   O969    1.302   .     A
N971   O972    1.302   .     A
N971   O973    1.301   .     A
N974   O975    1.301   .     A
N974   O976    1.300   .     A
O981   Cu995   1.977   .     S
O981   C987    1.301   .     A
O982   Cu996   1.977   .     S
O982   C988    1.299   .     A
O983   Cu995   1.976   .     S
O983   C988    1.302   .     A
O984   Cu996   1.976   .     S
O984   C987    1.300   .     A
N985   C1000   1.375   .     A
N985   Cu995   2.029   .     S
N985   C998    1.379   .     A
N986   C999    1.373   .     A
N986   Cu996   2.029   .     S
N986   C997    1.372   .     A
C987   C1018   1.461   .     S
C988   C1017   1.462   .     S
O989   Cu995   1.947   .     S
O989   C993    1.299   .     A
O990   Cu996   1.947   .     S
O990   C994    1.309   .     A
O991   C994    1.306   .     A
O991   Cu995   1.954   .     S
O992   C993    1.297   .     A
O992   Cu996   1.954   .     S
C993   C1013   1.457   .     S
C994   C1014   1.490   .     S
Cu995  Cu996   2.701   .     S
C997   N1019   1.428   .     S
C998   N1022   1.437   .     S
C998   C1209   1.421   .     S
C999   N1025   1.433   .     S
C1000  N1028   1.430   .     S
C1000  C1207   1.423   .     S
C1001  F1047   1.357   .     S
C1001  C1018   1.406   .     A
C1002  C1017   1.403   .     A
C1002  F1048   1.354   .     S
C1002  C864    1.382   1_655 S
C1003  C1017   1.406   .     A
C1003  F1049   1.356   .     S
C1003  C861    1.383   1_655 S
C1004  C1018   1.405   .     A
C1004  F1050   1.356   .     S
C1005  C1015   1.400   .     A
C1005  C1009   1.398   .     A
C1005  F1031   1.359   .     S
C1006  F1032   1.359   .     S
C1006  C1016   1.397   .     A
C1006  C1010   1.403   .     A
C1007  F1033   1.360   .     S
C1007  C1016   1.394   .     A
C1007  C1011   1.398   .     A
C1008  C1015   1.399   .     A
C1008  C1012   1.399   .     A
C1008  F1034   1.359   .     S
C1009  C1013   1.411   .     A
C1009  N1035   1.437   .     S
C1010  N1038   1.442   .     S
C1010  C1014   1.423   .     A
C1011  N1041   1.437   .     S
C1011  C1014   1.423   .     A
C1012  N1044   1.439   .     S
C1012  C1013   1.414   .     A
C1016  C385    1.465   1_556 S
N1019  O1021   1.299   .     A
N1019  O1020   1.301   .     A
N1022  O1024   1.301   .     A
N1022  O1023   1.296   .     A
N1025  O1026   1.297   .     A
N1025  O1027   1.299   .     A
N1028  O1030   1.301   .     A
N1028  O1029   1.299   .     A
N1035  O1036   1.300   .     A
N1035  O1037   1.301   .     A
N1038  O1040   1.301   .     A
N1038  O1039   1.302   .     A
N1041  O1042   1.302   .     A
N1041  O1043   1.301   .     A
N1044  O1045   1.301   .     A
N1044  O1046   1.300   .     A
O1051  Cu1065  1.977   .     S
O1051  C1057   1.301   .     A
O1052  Cu1066  1.977   .     S
O1052  C1058   1.299   .     A
O1053  Cu1065  1.976   .     S
O1053  C1058   1.302   .     A
O1054  Cu1066  1.976   .     S
O1054  C1057   1.300   .     A
N1055  C1070   1.375   .     A
N1055  Cu1065  2.029   .     S
N1055  C1068   1.379   .     A
N1056  C1069   1.373   .     A
N1056  Cu1066  2.029   .     S
N1056  C1067   1.372   .     A
C1057  C1088   1.461   .     S
C1058  C1087   1.462   .     S
O1059  Cu1065  1.947   .     S
O1059  C1063   1.299   .     A
O1060  Cu1066  1.947   .     S
O1060  C1064   1.309   .     A
O1061  C1064   1.306   .     A
O1061  Cu1065  1.954   .     S
O1062  C1063   1.297   .     A
O1062  Cu1066  1.954   .     S
C1063  C1083   1.457   .     S
C1064  C1084   1.490   .     S
Cu1065 Cu1066  2.701   .     S
C1067  N1089   1.428   .     S
C1068  N1092   1.437   .     S
C1068  C649    1.421   1_565 S
C1069  N1095   1.433   .     S
C1070  N1098   1.430   .     S
C1070  C647    1.423   1_565 S
C1071  F1117   1.357   .     S
C1071  C1088   1.406   .     A
C1071  C1213   1.383   1_455 S
C1072  C1087   1.403   .     A
C1072  F1118   1.354   .     S
C1072  C1144   1.382   .     S
C1073  C1087   1.406   .     A
C1073  F1119   1.356   .     S
C1073  C1141   1.383   .     S
C1074  C1088   1.405   .     A
C1074  F1120   1.356   .     S
C1074  C1212   1.382   1_455 S
C1075  C1085   1.400   .     A
C1075  C1079   1.398   .     A
C1075  F1101   1.359   .     S
C1076  F1102   1.359   .     S
C1076  C1086   1.397   .     A
C1076  C1080   1.403   .     A
C1077  F1103   1.360   .     S
C1077  C1086   1.394   .     A
C1077  C1081   1.398   .     A
C1078  C1085   1.399   .     A
C1078  C1082   1.399   .     A
C1078  F1104   1.359   .     S
C1079  C1083   1.411   .     A
C1079  N1105   1.437   .     S
C1080  N1108   1.442   .     S
C1080  C1084   1.423   .     A
C1081  N1111   1.437   .     S
C1081  C1084   1.423   .     A
C1082  N1114   1.439   .     S
C1082  C1083   1.414   .     A
C1086  C455    1.465   1_556 S
N1089  O1091   1.299   .     A
N1089  O1090   1.301   .     A
N1092  O1094   1.301   .     A
N1092  O1093   1.296   .     A
N1095  O1096   1.297   .     A
N1095  O1097   1.299   .     A
N1098  O1100   1.301   .     A
N1098  O1099   1.299   .     A
N1105  O1106   1.300   .     A
N1105  O1107   1.301   .     A
N1108  O1110   1.301   .     A
N1108  O1109   1.302   .     A
N1111  O1112   1.302   .     A
N1111  O1113   1.301   .     A
N1114  O1115   1.301   .     A
N1114  O1116   1.300   .     A
O1121  Cu1135  1.977   .     S
O1121  C1127   1.301   .     A
O1122  Cu1136  1.977   .     S
O1122  C1128   1.299   .     A
O1123  Cu1135  1.976   .     S
O1123  C1128   1.302   .     A
O1124  Cu1136  1.976   .     S
O1124  C1127   1.300   .     A
N1125  C1140   1.375   .     A
N1125  Cu1135  2.029   .     S
N1125  C1138   1.379   .     A
N1126  C1139   1.373   .     A
N1126  Cu1136  2.029   .     S
N1126  C1137   1.372   .     A
C1127  C1158   1.461   .     S
C1128  C1157   1.462   .     S
O1129  Cu1135  1.947   .     S
O1129  C1133   1.299   .     A
O1130  Cu1136  1.947   .     S
O1130  C1134   1.309   .     A
O1131  C1134   1.306   .     A
O1131  Cu1135  1.954   .     S
O1132  C1133   1.297   .     A
O1132  Cu1136  1.954   .     S
C1133  C1153   1.457   .     S
C1134  C1154   1.490   .     S
Cu1135 Cu1136  2.701   .     S
C1137  N1159   1.428   .     S
C1138  N1162   1.437   .     S
C1138  C719    1.421   1_565 S
C1139  N1165   1.433   .     S
C1140  N1168   1.430   .     S
C1140  C717    1.423   1_565 S
C1141  F1187   1.357   .     S
C1141  C1158   1.406   .     A
C1142  C1157   1.403   .     A
C1142  F1188   1.354   .     S
C1142  C1214   1.382   .     S
C1143  C1157   1.406   .     A
C1143  F1189   1.356   .     S
C1143  C1211   1.383   .     S
C1144  C1158   1.405   .     A
C1144  F1190   1.356   .     S
C1145  C1155   1.400   .     A
C1145  C1149   1.398   .     A
C1145  F1171   1.359   .     S
C1146  F1172   1.359   .     S
C1146  C1156   1.397   .     A
C1146  C1150   1.403   .     A
C1147  F1173   1.360   .     S
C1147  C1156   1.394   .     A
C1147  C1151   1.398   .     A
C1148  C1155   1.399   .     A
C1148  C1152   1.399   .     A
C1148  F1174   1.359   .     S
C1149  C1153   1.411   .     A
C1149  N1175   1.437   .     S
C1150  N1178   1.442   .     S
C1150  C1154   1.423   .     A
C1151  N1181   1.437   .     S
C1151  C1154   1.423   .     A
C1152  N1184   1.439   .     S
C1152  C1153   1.414   .     A
C1156  C525    1.465   1_556 S
N1159  O1161   1.299   .     A
N1159  O1160   1.301   .     A
N1162  O1164   1.301   .     A
N1162  O1163   1.296   .     A
N1165  O1166   1.297   .     A
N1165  O1167   1.299   .     A
N1168  O1170   1.301   .     A
N1168  O1169   1.299   .     A
N1175  O1176   1.300   .     A
N1175  O1177   1.301   .     A
N1178  O1180   1.301   .     A
N1178  O1179   1.302   .     A
N1181  O1182   1.302   .     A
N1181  O1183   1.301   .     A
N1184  O1185   1.301   .     A
N1184  O1186   1.300   .     A
O1191  Cu1205  1.977   .     S
O1191  C1197   1.301   .     A
O1192  Cu1206  1.977   .     S
O1192  C1198   1.299   .     A
O1193  Cu1205  1.976   .     S
O1193  C1198   1.302   .     A
O1194  Cu1206  1.976   .     S
O1194  C1197   1.300   .     A
N1195  C1210   1.375   .     A
N1195  Cu1205  2.029   .     S
N1195  C1208   1.379   .     A
N1196  C1209   1.373   .     A
N1196  Cu1206  2.029   .     S
N1196  C1207   1.372   .     A
C1197  C1228   1.461   .     S
C1198  C1227   1.462   .     S
O1199  Cu1205  1.947   .     S
O1199  C1203   1.299   .     A
O1200  Cu1206  1.947   .     S
O1200  C1204   1.309   .     A
O1201  C1204   1.306   .     A
O1201  Cu1205  1.954   .     S
O1202  C1203   1.297   .     A
O1202  Cu1206  1.954   .     S
C1203  C1223   1.457   .     S
C1204  C1224   1.490   .     S
Cu1205 Cu1206  2.701   .     S
C1207  N1229   1.428   .     S
C1208  N1232   1.437   .     S
C1208  C789    1.421   1_565 S
C1209  N1235   1.433   .     S
C1210  N1238   1.430   .     S
C1210  C787    1.423   1_565 S
C1211  F1257   1.357   .     S
C1211  C1228   1.406   .     A
C1212  C1227   1.403   .     A
C1212  F1258   1.354   .     S
C1212  C1074   1.382   1_655 S
C1213  C1227   1.406   .     A
C1213  F1259   1.356   .     S
C1213  C1071   1.383   1_655 S
C1214  C1228   1.405   .     A
C1214  F1260   1.356   .     S
C1215  C1225   1.400   .     A
C1215  C1219   1.398   .     A
C1215  F1241   1.359   .     S
C1216  F1242   1.359   .     S
C1216  C1226   1.397   .     A
C1216  C1220   1.403   .     A
C1217  F1243   1.360   .     S
C1217  C1226   1.394   .     A
C1217  C1221   1.398   .     A
C1218  C1225   1.399   .     A
C1218  C1222   1.399   .     A
C1218  F1244   1.359   .     S
C1219  C1223   1.411   .     A
C1219  N1245   1.437   .     S
C1220  N1248   1.442   .     S
C1220  C1224   1.423   .     A
C1221  N1251   1.437   .     S
C1221  C1224   1.423   .     A
C1222  N1254   1.439   .     S
C1222  C1223   1.414   .     A
C1226  C595    1.465   1_556 S
N1229  O1231   1.299   .     A
N1229  O1230   1.301   .     A
N1232  O1234   1.301   .     A
N1232  O1233   1.296   .     A
N1235  O1236   1.297   .     A
N1235  O1237   1.299   .     A
N1238  O1240   1.301   .     A
N1238  O1239   1.299   .     A
N1245  O1246   1.300   .     A
N1245  O1247   1.301   .     A
N1248  O1250   1.301   .     A
N1248  O1249   1.302   .     A
N1251  O1252   1.302   .     A
N1251  O1253   1.301   .     A
N1254  O1255   1.301   .     A
N1254  O1256   1.300   .     A
