data_str_m2_o1_o10_pcu_sym.211
_audit_creation_date              2020-01-03
_audit_creation_method            'Materials Studio'
_symmetry_space_group_name_H-M    'P1'
_symmetry_Int_Tables_number       1
_symmetry_cell_setting            triclinic
loop_
_symmetry_equiv_pos_as_xyz
  x,y,z
_cell_length_a                    26.5343
_cell_length_b                    32.3297
_cell_length_c                    28.7479
_cell_angle_alpha                 90.3634
_cell_angle_beta                  98.1093
_cell_angle_gamma                 92.5334
loop_
_atom_site_label
_atom_site_type_symbol
_atom_site_fract_x
_atom_site_fract_y
_atom_site_fract_z
_atom_site_U_iso_or_equiv
_atom_site_adp_type
_atom_site_occupancy
C1     C     0.16573   0.08754   0.16646   0.00000  Uiso   1.00
C2     C     0.16760   0.24579   0.16688   0.00000  Uiso   1.00
C3     C     0.06825   0.16708   0.15484   0.00000  Uiso   1.00
C4     C     0.26508   0.16625   0.17849   0.00000  Uiso   1.00
C5     C     0.01400   0.17261   0.14930   0.00000  Uiso   1.00
C6     C     0.31933   0.16073   0.18404   0.00000  Uiso   1.00
C7     C     0.20863   0.02382   0.15433   0.00000  Uiso   1.00
C8     C     0.12470   0.30951   0.17901   0.00000  Uiso   1.00
C9     C     0.20998   0.31379   0.15458   0.00000  Uiso   1.00
C10    C     0.12336   0.01955   0.17876   0.00000  Uiso   1.00
C11    C     0.16770   0.29052   0.16697   0.00000  Uiso   1.00
C12    C     0.16563   0.04281   0.16637   0.00000  Uiso   1.00
C13    C     0.13124   0.14267   0.01908   0.00000  Uiso   1.00
C14    C     0.20210   0.19066   0.31426   0.00000  Uiso   1.00
C15    C     0.13233   0.14253   0.30323   0.00000  Uiso   1.00
C16    C     0.20101   0.19080   0.03010   0.00000  Uiso   1.00
Cu17   Cu    0.16667   0.16667   0.21355   0.00000  Uiso   1.00
Cu18   Cu    0.16667   0.16666   0.11978   0.00000  Uiso   1.00
H19    H     0.10535   0.12319   0.28012   0.00000  Uiso   1.00
H20    H     0.22798   0.21015   0.05321   0.00000  Uiso   1.00
N21    N     0.16668   0.16668   0.28403   0.00000  Uiso   1.00
N22    N     0.16665   0.16666   0.04931   0.00000  Uiso   1.00
O23    O     0.16666   0.10655   0.20625   0.00000  Uiso   1.00
O24    O     0.16667   0.22678   0.12709   0.00000  Uiso   1.00
O25    O     0.16666   0.10654   0.12706   0.00000  Uiso   1.00
O26    O     0.16667   0.22679   0.20628   0.00000  Uiso   1.00
O27    O     0.09161   0.16667   0.19712   0.00000  Uiso   1.00
O28    O     0.24172   0.16666   0.13621   0.00000  Uiso   1.00
O29    O     0.09161   0.16666   0.11793   0.00000  Uiso   1.00
O30    O     0.24172   0.16667   0.21540   0.00000  Uiso   1.00
C31    C     0.32600   0.19535   0.10528   0.00000  Uiso   1.00
H32    H     0.02295   0.20999   0.08705   0.00000  Uiso   1.00
H33    H     0.30338   0.17332   0.07993   0.00000  Uiso   1.00
H34    H     0.30289   0.22103   0.11445   0.00000  Uiso   1.00
C35    C     0.00734   0.13799   0.22806   0.00000  Uiso   1.00
H36    H     0.31038   0.12335   0.24629   0.00000  Uiso   1.00
H37    H     0.03044   0.11231   0.21889   0.00000  Uiso   1.00
H38    H     0.02996   0.16002   0.25340   0.00000  Uiso   1.00
N39    N     0.25067   0.04941   0.14272   0.00000  Uiso   1.00
H40    H     0.25753   0.04162   0.10890   0.00000  Uiso   1.00
H41    H     0.28297   0.04435   0.16698   0.00000  Uiso   1.00
N42    N     0.08266   0.28392   0.19063   0.00000  Uiso   1.00
H43    H     0.07580   0.29172   0.22445   0.00000  Uiso   1.00
H44    H     0.05035   0.28898   0.16637   0.00000  Uiso   1.00
C45    C     0.25573   0.29193   0.14222   0.00000  Uiso   1.00
H46    H     0.24444   0.27412   0.10900   0.00000  Uiso   1.00
H47    H     0.28842   0.31300   0.13705   0.00000  Uiso   1.00
H48    H     0.26951   0.27051   0.17082   0.00000  Uiso   1.00
C49    C     0.07762   0.04141   0.19113   0.00000  Uiso   1.00
H50    H     0.08890   0.05920   0.22435   0.00000  Uiso   1.00
H51    H     0.06384   0.06284   0.16254   0.00000  Uiso   1.00
H52    H     0.04492   0.02033   0.19628   0.00000  Uiso   1.00
C53    C     0.08779   0.11787   0.03548   0.00000  Uiso   1.00
H54    H     0.06974   0.09543   0.00799   0.00000  Uiso   1.00
H55    H     0.10000   0.09915   0.06647   0.00000  Uiso   1.00
H56    H     0.05754   0.13877   0.04215   0.00000  Uiso   1.00
C57    C     0.24554   0.21547   0.29786   0.00000  Uiso   1.00
H58    H     0.26359   0.23790   0.32534   0.00000  Uiso   1.00
H59    H     0.27580   0.19457   0.29118   0.00000  Uiso   1.00
H60    H     0.23333   0.23418   0.26686   0.00000  Uiso   1.00
C61    C     0.49907   0.08754   0.16646   0.00000  Uiso   1.00
C62    C     0.50093   0.24579   0.16688   0.00000  Uiso   1.00
C63    C     0.40158   0.16708   0.15484   0.00000  Uiso   1.00
C64    C     0.59842   0.16625   0.17849   0.00000  Uiso   1.00
C65    C     0.34734   0.17261   0.14930   0.00000  Uiso   1.00
C66    C     0.65266   0.16073   0.18404   0.00000  Uiso   1.00
C67    C     0.54196   0.02382   0.15433   0.00000  Uiso   1.00
C68    C     0.45804   0.30951   0.17901   0.00000  Uiso   1.00
C69    C     0.54331   0.31379   0.15458   0.00000  Uiso   1.00
C70    C     0.45669   0.01955   0.17876   0.00000  Uiso   1.00
C71    C     0.50104   0.29052   0.16697   0.00000  Uiso   1.00
C72    C     0.49896   0.04281   0.16637   0.00000  Uiso   1.00
C73    C     0.46457   0.14267   0.01908   0.00000  Uiso   1.00
C74    C     0.53543   0.19066   0.31426   0.00000  Uiso   1.00
C75    C     0.46566   0.14253   0.30323   0.00000  Uiso   1.00
C76    C     0.53434   0.19080   0.03010   0.00000  Uiso   1.00
Cu77   Cu    0.50000   0.16667   0.21355   0.00000  Uiso   1.00
Cu78   Cu    0.50000   0.16666   0.11978   0.00000  Uiso   1.00
H79    H     0.43868   0.12319   0.28012   0.00000  Uiso   1.00
H80    H     0.56132   0.21015   0.05321   0.00000  Uiso   1.00
N81    N     0.50001   0.16668   0.28403   0.00000  Uiso   1.00
N82    N     0.49999   0.16666   0.04931   0.00000  Uiso   1.00
O83    O     0.50000   0.10655   0.20625   0.00000  Uiso   1.00
O84    O     0.50000   0.22678   0.12709   0.00000  Uiso   1.00
O85    O     0.50000   0.10654   0.12706   0.00000  Uiso   1.00
O86    O     0.50000   0.22679   0.20628   0.00000  Uiso   1.00
O87    O     0.42495   0.16667   0.19712   0.00000  Uiso   1.00
O88    O     0.57505   0.16666   0.13621   0.00000  Uiso   1.00
O89    O     0.42494   0.16666   0.11793   0.00000  Uiso   1.00
O90    O     0.57506   0.16667   0.21540   0.00000  Uiso   1.00
C91    C     0.65933   0.19535   0.10528   0.00000  Uiso   1.00
H92    H     0.35629   0.20999   0.08705   0.00000  Uiso   1.00
H93    H     0.63671   0.17332   0.07993   0.00000  Uiso   1.00
H94    H     0.63622   0.22103   0.11445   0.00000  Uiso   1.00
C95    C     0.34067   0.13799   0.22806   0.00000  Uiso   1.00
H96    H     0.64372   0.12335   0.24629   0.00000  Uiso   1.00
H97    H     0.36377   0.11231   0.21889   0.00000  Uiso   1.00
H98    H     0.36329   0.16002   0.25340   0.00000  Uiso   1.00
N99    N     0.58400   0.04941   0.14272   0.00000  Uiso   1.00
H100   H     0.59086   0.04162   0.10890   0.00000  Uiso   1.00
H101   H     0.61631   0.04435   0.16698   0.00000  Uiso   1.00
N102   N     0.41599   0.28392   0.19063   0.00000  Uiso   1.00
H103   H     0.40913   0.29172   0.22445   0.00000  Uiso   1.00
H104   H     0.38369   0.28898   0.16637   0.00000  Uiso   1.00
C105   C     0.58906   0.29193   0.14222   0.00000  Uiso   1.00
H106   H     0.57778   0.27412   0.10900   0.00000  Uiso   1.00
H107   H     0.62176   0.31300   0.13705   0.00000  Uiso   1.00
H108   H     0.60284   0.27051   0.17082   0.00000  Uiso   1.00
C109   C     0.41095   0.04141   0.19113   0.00000  Uiso   1.00
H110   H     0.42224   0.05920   0.22435   0.00000  Uiso   1.00
H111   H     0.39717   0.06284   0.16254   0.00000  Uiso   1.00
H112   H     0.37826   0.02033   0.19628   0.00000  Uiso   1.00
C113   C     0.42113   0.11787   0.03548   0.00000  Uiso   1.00
H114   H     0.40308   0.09543   0.00799   0.00000  Uiso   1.00
H115   H     0.43333   0.09915   0.06647   0.00000  Uiso   1.00
H116   H     0.39087   0.13877   0.04215   0.00000  Uiso   1.00
C117   C     0.57887   0.21547   0.29786   0.00000  Uiso   1.00
H118   H     0.59692   0.23790   0.32534   0.00000  Uiso   1.00
H119   H     0.60913   0.19457   0.29118   0.00000  Uiso   1.00
H120   H     0.56667   0.23418   0.26686   0.00000  Uiso   1.00
C121   C     0.83240   0.08754   0.16646   0.00000  Uiso   1.00
C122   C     0.83426   0.24579   0.16688   0.00000  Uiso   1.00
C123   C     0.73492   0.16708   0.15484   0.00000  Uiso   1.00
C124   C     0.93175   0.16625   0.17849   0.00000  Uiso   1.00
C125   C     0.68067   0.17261   0.14930   0.00000  Uiso   1.00
C126   C     0.98600   0.16073   0.18404   0.00000  Uiso   1.00
C127   C     0.87530   0.02382   0.15433   0.00000  Uiso   1.00
C128   C     0.79137   0.30951   0.17901   0.00000  Uiso   1.00
C129   C     0.87664   0.31379   0.15458   0.00000  Uiso   1.00
C130   C     0.79003   0.01955   0.17876   0.00000  Uiso   1.00
C131   C     0.83437   0.29052   0.16697   0.00000  Uiso   1.00
C132   C     0.83230   0.04281   0.16637   0.00000  Uiso   1.00
C133   C     0.79790   0.14267   0.01908   0.00000  Uiso   1.00
C134   C     0.86876   0.19066   0.31426   0.00000  Uiso   1.00
C135   C     0.79899   0.14253   0.30323   0.00000  Uiso   1.00
C136   C     0.86767   0.19080   0.03010   0.00000  Uiso   1.00
Cu137  Cu    0.83333   0.16667   0.21355   0.00000  Uiso   1.00
Cu138  Cu    0.83333   0.16666   0.11978   0.00000  Uiso   1.00
H139   H     0.77202   0.12319   0.28012   0.00000  Uiso   1.00
H140   H     0.89465   0.21015   0.05321   0.00000  Uiso   1.00
N141   N     0.83335   0.16668   0.28403   0.00000  Uiso   1.00
N142   N     0.83332   0.16666   0.04931   0.00000  Uiso   1.00
O143   O     0.83333   0.10655   0.20625   0.00000  Uiso   1.00
O144   O     0.83334   0.22678   0.12709   0.00000  Uiso   1.00
O145   O     0.83333   0.10654   0.12706   0.00000  Uiso   1.00
O146   O     0.83334   0.22679   0.20628   0.00000  Uiso   1.00
O147   O     0.75828   0.16667   0.19712   0.00000  Uiso   1.00
O148   O     0.90839   0.16666   0.13621   0.00000  Uiso   1.00
O149   O     0.75828   0.16666   0.11793   0.00000  Uiso   1.00
O150   O     0.90839   0.16667   0.21540   0.00000  Uiso   1.00
C151   C     0.99266   0.19535   0.10528   0.00000  Uiso   1.00
H152   H     0.68962   0.20999   0.08705   0.00000  Uiso   1.00
H153   H     0.97004   0.17332   0.07993   0.00000  Uiso   1.00
H154   H     0.96956   0.22103   0.11445   0.00000  Uiso   1.00
C155   C     0.67400   0.13799   0.22806   0.00000  Uiso   1.00
H156   H     0.97705   0.12335   0.24629   0.00000  Uiso   1.00
H157   H     0.69711   0.11231   0.21889   0.00000  Uiso   1.00
H158   H     0.69663   0.16002   0.25340   0.00000  Uiso   1.00
N159   N     0.91734   0.04941   0.14272   0.00000  Uiso   1.00
H160   H     0.92420   0.04162   0.10890   0.00000  Uiso   1.00
H161   H     0.94964   0.04435   0.16698   0.00000  Uiso   1.00
N162   N     0.74933   0.28392   0.19063   0.00000  Uiso   1.00
H163   H     0.74247   0.29172   0.22445   0.00000  Uiso   1.00
H164   H     0.71702   0.28898   0.16637   0.00000  Uiso   1.00
C165   C     0.92239   0.29193   0.14222   0.00000  Uiso   1.00
H166   H     0.91111   0.27412   0.10900   0.00000  Uiso   1.00
H167   H     0.95509   0.31300   0.13705   0.00000  Uiso   1.00
H168   H     0.93618   0.27051   0.17082   0.00000  Uiso   1.00
C169   C     0.74428   0.04141   0.19113   0.00000  Uiso   1.00
H170   H     0.75557   0.05920   0.22435   0.00000  Uiso   1.00
H171   H     0.73050   0.06284   0.16254   0.00000  Uiso   1.00
H172   H     0.71159   0.02033   0.19628   0.00000  Uiso   1.00
C173   C     0.75446   0.11787   0.03548   0.00000  Uiso   1.00
H174   H     0.73641   0.09543   0.00799   0.00000  Uiso   1.00
H175   H     0.76667   0.09915   0.06647   0.00000  Uiso   1.00
H176   H     0.72420   0.13877   0.04215   0.00000  Uiso   1.00
C177   C     0.91221   0.21547   0.29786   0.00000  Uiso   1.00
H178   H     0.93026   0.23790   0.32534   0.00000  Uiso   1.00
H179   H     0.94246   0.19457   0.29118   0.00000  Uiso   1.00
H180   H     0.90000   0.23418   0.26686   0.00000  Uiso   1.00
C181   C     0.16573   0.42087   0.16646   0.00000  Uiso   1.00
C182   C     0.16760   0.57913   0.16688   0.00000  Uiso   1.00
C183   C     0.06825   0.50042   0.15484   0.00000  Uiso   1.00
C184   C     0.26508   0.49958   0.17849   0.00000  Uiso   1.00
C185   C     0.01400   0.50594   0.14930   0.00000  Uiso   1.00
C186   C     0.31933   0.49406   0.18404   0.00000  Uiso   1.00
C187   C     0.20863   0.35716   0.15433   0.00000  Uiso   1.00
C188   C     0.12470   0.64284   0.17901   0.00000  Uiso   1.00
C189   C     0.20998   0.64712   0.15458   0.00000  Uiso   1.00
C190   C     0.12336   0.35288   0.17876   0.00000  Uiso   1.00
C191   C     0.16770   0.62386   0.16697   0.00000  Uiso   1.00
C192   C     0.16563   0.37614   0.16637   0.00000  Uiso   1.00
C193   C     0.13124   0.47600   0.01908   0.00000  Uiso   1.00
C194   C     0.20210   0.52400   0.31426   0.00000  Uiso   1.00
C195   C     0.13233   0.47587   0.30323   0.00000  Uiso   1.00
C196   C     0.20101   0.52413   0.03010   0.00000  Uiso   1.00
Cu197  Cu    0.16667   0.50001   0.21355   0.00000  Uiso   1.00
Cu198  Cu    0.16667   0.49999   0.11978   0.00000  Uiso   1.00
H199   H     0.10535   0.45652   0.28012   0.00000  Uiso   1.00
H200   H     0.22798   0.54348   0.05321   0.00000  Uiso   1.00
N201   N     0.16668   0.50001   0.28403   0.00000  Uiso   1.00
N202   N     0.16665   0.49999   0.04931   0.00000  Uiso   1.00
O203   O     0.16666   0.43989   0.20625   0.00000  Uiso   1.00
O204   O     0.16667   0.56011   0.12709   0.00000  Uiso   1.00
O205   O     0.16666   0.43988   0.12706   0.00000  Uiso   1.00
O206   O     0.16667   0.56012   0.20628   0.00000  Uiso   1.00
O207   O     0.09161   0.50000   0.19712   0.00000  Uiso   1.00
O208   O     0.24172   0.50000   0.13621   0.00000  Uiso   1.00
O209   O     0.09161   0.49999   0.11793   0.00000  Uiso   1.00
O210   O     0.24172   0.50001   0.21540   0.00000  Uiso   1.00
C211   C     0.32600   0.52869   0.10528   0.00000  Uiso   1.00
H212   H     0.02295   0.54333   0.08705   0.00000  Uiso   1.00
H213   H     0.30338   0.50665   0.07993   0.00000  Uiso   1.00
H214   H     0.30289   0.55436   0.11445   0.00000  Uiso   1.00
C215   C     0.00734   0.47132   0.22806   0.00000  Uiso   1.00
H216   H     0.31038   0.45668   0.24629   0.00000  Uiso   1.00
H217   H     0.03044   0.44564   0.21889   0.00000  Uiso   1.00
H218   H     0.02996   0.49336   0.25340   0.00000  Uiso   1.00
N219   N     0.25067   0.38275   0.14272   0.00000  Uiso   1.00
H220   H     0.25753   0.37496   0.10890   0.00000  Uiso   1.00
H221   H     0.28297   0.37768   0.16698   0.00000  Uiso   1.00
N222   N     0.08266   0.61725   0.19063   0.00000  Uiso   1.00
H223   H     0.07580   0.62505   0.22445   0.00000  Uiso   1.00
H224   H     0.05035   0.62231   0.16637   0.00000  Uiso   1.00
C225   C     0.25573   0.62526   0.14222   0.00000  Uiso   1.00
H226   H     0.24444   0.60745   0.10900   0.00000  Uiso   1.00
H227   H     0.28842   0.64634   0.13705   0.00000  Uiso   1.00
H228   H     0.26951   0.60385   0.17082   0.00000  Uiso   1.00
C229   C     0.07762   0.37474   0.19113   0.00000  Uiso   1.00
H230   H     0.08890   0.39253   0.22435   0.00000  Uiso   1.00
H231   H     0.06384   0.39617   0.16254   0.00000  Uiso   1.00
H232   H     0.04492   0.35366   0.19628   0.00000  Uiso   1.00
C233   C     0.08779   0.45120   0.03548   0.00000  Uiso   1.00
H234   H     0.06974   0.42876   0.00799   0.00000  Uiso   1.00
H235   H     0.10000   0.43249   0.06647   0.00000  Uiso   1.00
H236   H     0.05754   0.47210   0.04215   0.00000  Uiso   1.00
C237   C     0.24554   0.54880   0.29786   0.00000  Uiso   1.00
H238   H     0.26359   0.57124   0.32534   0.00000  Uiso   1.00
H239   H     0.27580   0.52790   0.29118   0.00000  Uiso   1.00
H240   H     0.23333   0.56752   0.26686   0.00000  Uiso   1.00
C241   C     0.49907   0.42087   0.16646   0.00000  Uiso   1.00
C242   C     0.50093   0.57913   0.16688   0.00000  Uiso   1.00
C243   C     0.40158   0.50042   0.15484   0.00000  Uiso   1.00
C244   C     0.59842   0.49958   0.17849   0.00000  Uiso   1.00
C245   C     0.34734   0.50594   0.14930   0.00000  Uiso   1.00
C246   C     0.65266   0.49406   0.18404   0.00000  Uiso   1.00
C247   C     0.54196   0.35716   0.15433   0.00000  Uiso   1.00
C248   C     0.45804   0.64284   0.17901   0.00000  Uiso   1.00
C249   C     0.54331   0.64712   0.15458   0.00000  Uiso   1.00
C250   C     0.45669   0.35288   0.17876   0.00000  Uiso   1.00
C251   C     0.50104   0.62386   0.16697   0.00000  Uiso   1.00
C252   C     0.49896   0.37614   0.16637   0.00000  Uiso   1.00
C253   C     0.46457   0.47600   0.01908   0.00000  Uiso   1.00
C254   C     0.53543   0.52400   0.31426   0.00000  Uiso   1.00
C255   C     0.46566   0.47587   0.30323   0.00000  Uiso   1.00
C256   C     0.53434   0.52413   0.03010   0.00000  Uiso   1.00
Cu257  Cu    0.50000   0.50001   0.21355   0.00000  Uiso   1.00
Cu258  Cu    0.50000   0.49999   0.11978   0.00000  Uiso   1.00
H259   H     0.43868   0.45652   0.28012   0.00000  Uiso   1.00
H260   H     0.56132   0.54348   0.05321   0.00000  Uiso   1.00
N261   N     0.50001   0.50001   0.28403   0.00000  Uiso   1.00
N262   N     0.49999   0.49999   0.04931   0.00000  Uiso   1.00
O263   O     0.50000   0.43989   0.20625   0.00000  Uiso   1.00
O264   O     0.50000   0.56011   0.12709   0.00000  Uiso   1.00
O265   O     0.50000   0.43988   0.12706   0.00000  Uiso   1.00
O266   O     0.50000   0.56012   0.20628   0.00000  Uiso   1.00
O267   O     0.42495   0.50000   0.19712   0.00000  Uiso   1.00
O268   O     0.57505   0.50000   0.13621   0.00000  Uiso   1.00
O269   O     0.42494   0.49999   0.11793   0.00000  Uiso   1.00
O270   O     0.57506   0.50001   0.21540   0.00000  Uiso   1.00
C271   C     0.65933   0.52869   0.10528   0.00000  Uiso   1.00
H272   H     0.35629   0.54333   0.08705   0.00000  Uiso   1.00
H273   H     0.63671   0.50665   0.07993   0.00000  Uiso   1.00
H274   H     0.63622   0.55436   0.11445   0.00000  Uiso   1.00
C275   C     0.34067   0.47132   0.22806   0.00000  Uiso   1.00
H276   H     0.64372   0.45668   0.24629   0.00000  Uiso   1.00
H277   H     0.36377   0.44564   0.21889   0.00000  Uiso   1.00
H278   H     0.36329   0.49336   0.25340   0.00000  Uiso   1.00
N279   N     0.58400   0.38275   0.14272   0.00000  Uiso   1.00
H280   H     0.59086   0.37496   0.10890   0.00000  Uiso   1.00
H281   H     0.61631   0.37768   0.16698   0.00000  Uiso   1.00
N282   N     0.41599   0.61725   0.19063   0.00000  Uiso   1.00
H283   H     0.40913   0.62505   0.22445   0.00000  Uiso   1.00
H284   H     0.38369   0.62231   0.16637   0.00000  Uiso   1.00
C285   C     0.58906   0.62526   0.14222   0.00000  Uiso   1.00
H286   H     0.57778   0.60745   0.10900   0.00000  Uiso   1.00
H287   H     0.62176   0.64634   0.13705   0.00000  Uiso   1.00
H288   H     0.60284   0.60385   0.17082   0.00000  Uiso   1.00
C289   C     0.41095   0.37474   0.19113   0.00000  Uiso   1.00
H290   H     0.42224   0.39253   0.22435   0.00000  Uiso   1.00
H291   H     0.39717   0.39617   0.16254   0.00000  Uiso   1.00
H292   H     0.37826   0.35366   0.19628   0.00000  Uiso   1.00
C293   C     0.42113   0.45120   0.03548   0.00000  Uiso   1.00
H294   H     0.40308   0.42876   0.00799   0.00000  Uiso   1.00
H295   H     0.43333   0.43249   0.06647   0.00000  Uiso   1.00
H296   H     0.39087   0.47210   0.04215   0.00000  Uiso   1.00
C297   C     0.57887   0.54880   0.29786   0.00000  Uiso   1.00
H298   H     0.59692   0.57124   0.32534   0.00000  Uiso   1.00
H299   H     0.60913   0.52790   0.29118   0.00000  Uiso   1.00
H300   H     0.56667   0.56752   0.26686   0.00000  Uiso   1.00
C301   C     0.83240   0.42087   0.16646   0.00000  Uiso   1.00
C302   C     0.83426   0.57913   0.16688   0.00000  Uiso   1.00
C303   C     0.73492   0.50042   0.15484   0.00000  Uiso   1.00
C304   C     0.93175   0.49958   0.17849   0.00000  Uiso   1.00
C305   C     0.68067   0.50594   0.14930   0.00000  Uiso   1.00
C306   C     0.98600   0.49406   0.18404   0.00000  Uiso   1.00
C307   C     0.87530   0.35716   0.15433   0.00000  Uiso   1.00
C308   C     0.79137   0.64284   0.17901   0.00000  Uiso   1.00
C309   C     0.87664   0.64712   0.15458   0.00000  Uiso   1.00
C310   C     0.79003   0.35288   0.17876   0.00000  Uiso   1.00
C311   C     0.83437   0.62386   0.16697   0.00000  Uiso   1.00
C312   C     0.83230   0.37614   0.16637   0.00000  Uiso   1.00
C313   C     0.79790   0.47600   0.01908   0.00000  Uiso   1.00
C314   C     0.86876   0.52400   0.31426   0.00000  Uiso   1.00
C315   C     0.79899   0.47587   0.30323   0.00000  Uiso   1.00
C316   C     0.86767   0.52413   0.03010   0.00000  Uiso   1.00
Cu317  Cu    0.83333   0.50001   0.21355   0.00000  Uiso   1.00
Cu318  Cu    0.83333   0.49999   0.11978   0.00000  Uiso   1.00
H319   H     0.77202   0.45652   0.28012   0.00000  Uiso   1.00
H320   H     0.89465   0.54348   0.05321   0.00000  Uiso   1.00
N321   N     0.83335   0.50001   0.28403   0.00000  Uiso   1.00
N322   N     0.83332   0.49999   0.04931   0.00000  Uiso   1.00
O323   O     0.83333   0.43989   0.20625   0.00000  Uiso   1.00
O324   O     0.83334   0.56011   0.12709   0.00000  Uiso   1.00
O325   O     0.83333   0.43988   0.12706   0.00000  Uiso   1.00
O326   O     0.83334   0.56012   0.20628   0.00000  Uiso   1.00
O327   O     0.75828   0.50000   0.19712   0.00000  Uiso   1.00
O328   O     0.90839   0.50000   0.13621   0.00000  Uiso   1.00
O329   O     0.75828   0.49999   0.11793   0.00000  Uiso   1.00
O330   O     0.90839   0.50001   0.21540   0.00000  Uiso   1.00
C331   C     0.99266   0.52869   0.10528   0.00000  Uiso   1.00
H332   H     0.68962   0.54333   0.08705   0.00000  Uiso   1.00
H333   H     0.97004   0.50665   0.07993   0.00000  Uiso   1.00
H334   H     0.96956   0.55436   0.11445   0.00000  Uiso   1.00
C335   C     0.67400   0.47132   0.22806   0.00000  Uiso   1.00
H336   H     0.97705   0.45668   0.24629   0.00000  Uiso   1.00
H337   H     0.69711   0.44564   0.21889   0.00000  Uiso   1.00
H338   H     0.69663   0.49336   0.25340   0.00000  Uiso   1.00
N339   N     0.91734   0.38275   0.14272   0.00000  Uiso   1.00
H340   H     0.92420   0.37496   0.10890   0.00000  Uiso   1.00
H341   H     0.94964   0.37768   0.16698   0.00000  Uiso   1.00
N342   N     0.74933   0.61725   0.19063   0.00000  Uiso   1.00
H343   H     0.74247   0.62505   0.22445   0.00000  Uiso   1.00
H344   H     0.71702   0.62231   0.16637   0.00000  Uiso   1.00
C345   C     0.92239   0.62526   0.14222   0.00000  Uiso   1.00
H346   H     0.91111   0.60745   0.10900   0.00000  Uiso   1.00
H347   H     0.95509   0.64634   0.13705   0.00000  Uiso   1.00
H348   H     0.93618   0.60385   0.17082   0.00000  Uiso   1.00
C349   C     0.74428   0.37474   0.19113   0.00000  Uiso   1.00
H350   H     0.75557   0.39253   0.22435   0.00000  Uiso   1.00
H351   H     0.73050   0.39617   0.16254   0.00000  Uiso   1.00
H352   H     0.71159   0.35366   0.19628   0.00000  Uiso   1.00
C353   C     0.75446   0.45120   0.03548   0.00000  Uiso   1.00
H354   H     0.73641   0.42876   0.00799   0.00000  Uiso   1.00
H355   H     0.76667   0.43249   0.06647   0.00000  Uiso   1.00
H356   H     0.72420   0.47210   0.04215   0.00000  Uiso   1.00
C357   C     0.91221   0.54880   0.29786   0.00000  Uiso   1.00
H358   H     0.93026   0.57124   0.32534   0.00000  Uiso   1.00
H359   H     0.94246   0.52790   0.29118   0.00000  Uiso   1.00
H360   H     0.90000   0.56752   0.26686   0.00000  Uiso   1.00
C361   C     0.16573   0.75421   0.16646   0.00000  Uiso   1.00
C362   C     0.16760   0.91246   0.16688   0.00000  Uiso   1.00
C363   C     0.06825   0.83375   0.15484   0.00000  Uiso   1.00
C364   C     0.26508   0.83292   0.17849   0.00000  Uiso   1.00
C365   C     0.01400   0.83927   0.14930   0.00000  Uiso   1.00
C366   C     0.31933   0.82740   0.18404   0.00000  Uiso   1.00
C367   C     0.20863   0.69049   0.15433   0.00000  Uiso   1.00
C368   C     0.12470   0.97618   0.17901   0.00000  Uiso   1.00
C369   C     0.20998   0.98045   0.15458   0.00000  Uiso   1.00
C370   C     0.12336   0.68621   0.17876   0.00000  Uiso   1.00
C371   C     0.16770   0.95719   0.16697   0.00000  Uiso   1.00
C372   C     0.16563   0.70948   0.16637   0.00000  Uiso   1.00
C373   C     0.13124   0.80934   0.01908   0.00000  Uiso   1.00
C374   C     0.20210   0.85733   0.31426   0.00000  Uiso   1.00
C375   C     0.13233   0.80920   0.30323   0.00000  Uiso   1.00
C376   C     0.20101   0.85747   0.03010   0.00000  Uiso   1.00
Cu377  Cu    0.16667   0.83334   0.21355   0.00000  Uiso   1.00
Cu378  Cu    0.16667   0.83333   0.11978   0.00000  Uiso   1.00
H379   H     0.10535   0.78985   0.28012   0.00000  Uiso   1.00
H380   H     0.22798   0.87681   0.05321   0.00000  Uiso   1.00
N381   N     0.16668   0.83334   0.28403   0.00000  Uiso   1.00
N382   N     0.16665   0.83332   0.04931   0.00000  Uiso   1.00
O383   O     0.16666   0.77322   0.20625   0.00000  Uiso   1.00
O384   O     0.16667   0.89345   0.12709   0.00000  Uiso   1.00
O385   O     0.16666   0.77321   0.12706   0.00000  Uiso   1.00
O386   O     0.16667   0.89346   0.20628   0.00000  Uiso   1.00
O387   O     0.09161   0.83334   0.19712   0.00000  Uiso   1.00
O388   O     0.24172   0.83333   0.13621   0.00000  Uiso   1.00
O389   O     0.09161   0.83333   0.11793   0.00000  Uiso   1.00
O390   O     0.24172   0.83334   0.21540   0.00000  Uiso   1.00
C391   C     0.32600   0.86202   0.10528   0.00000  Uiso   1.00
H392   H     0.02295   0.87666   0.08705   0.00000  Uiso   1.00
H393   H     0.30338   0.83998   0.07993   0.00000  Uiso   1.00
H394   H     0.30289   0.88769   0.11445   0.00000  Uiso   1.00
C395   C     0.00734   0.80465   0.22806   0.00000  Uiso   1.00
H396   H     0.31038   0.79002   0.24629   0.00000  Uiso   1.00
H397   H     0.03044   0.77898   0.21889   0.00000  Uiso   1.00
H398   H     0.02996   0.82669   0.25340   0.00000  Uiso   1.00
N399   N     0.25067   0.71608   0.14272   0.00000  Uiso   1.00
H400   H     0.25753   0.70829   0.10890   0.00000  Uiso   1.00
H401   H     0.28297   0.71101   0.16698   0.00000  Uiso   1.00
N402   N     0.08266   0.95059   0.19063   0.00000  Uiso   1.00
H403   H     0.07580   0.95838   0.22445   0.00000  Uiso   1.00
H404   H     0.05035   0.95565   0.16637   0.00000  Uiso   1.00
C405   C     0.25573   0.95859   0.14222   0.00000  Uiso   1.00
H406   H     0.24444   0.94079   0.10900   0.00000  Uiso   1.00
H407   H     0.28842   0.97967   0.13705   0.00000  Uiso   1.00
H408   H     0.26951   0.93718   0.17082   0.00000  Uiso   1.00
C409   C     0.07762   0.70807   0.19113   0.00000  Uiso   1.00
H410   H     0.08890   0.72586   0.22435   0.00000  Uiso   1.00
H411   H     0.06384   0.72950   0.16254   0.00000  Uiso   1.00
H412   H     0.04492   0.68700   0.19628   0.00000  Uiso   1.00
C413   C     0.08779   0.78453   0.03548   0.00000  Uiso   1.00
H414   H     0.06974   0.76210   0.00799   0.00000  Uiso   1.00
H415   H     0.10000   0.76582   0.06647   0.00000  Uiso   1.00
H416   H     0.05754   0.80543   0.04215   0.00000  Uiso   1.00
C417   C     0.24554   0.88214   0.29786   0.00000  Uiso   1.00
H418   H     0.26359   0.90457   0.32534   0.00000  Uiso   1.00
H419   H     0.27580   0.86124   0.29118   0.00000  Uiso   1.00
H420   H     0.23333   0.90085   0.26686   0.00000  Uiso   1.00
C421   C     0.49907   0.75421   0.16646   0.00000  Uiso   1.00
C422   C     0.50093   0.91246   0.16688   0.00000  Uiso   1.00
C423   C     0.40158   0.83375   0.15484   0.00000  Uiso   1.00
C424   C     0.59842   0.83292   0.17849   0.00000  Uiso   1.00
C425   C     0.34734   0.83927   0.14930   0.00000  Uiso   1.00
C426   C     0.65266   0.82740   0.18404   0.00000  Uiso   1.00
C427   C     0.54196   0.69049   0.15433   0.00000  Uiso   1.00
C428   C     0.45804   0.97618   0.17901   0.00000  Uiso   1.00
C429   C     0.54331   0.98045   0.15458   0.00000  Uiso   1.00
C430   C     0.45669   0.68621   0.17876   0.00000  Uiso   1.00
C431   C     0.50104   0.95719   0.16697   0.00000  Uiso   1.00
C432   C     0.49896   0.70948   0.16637   0.00000  Uiso   1.00
C433   C     0.46457   0.80934   0.01908   0.00000  Uiso   1.00
C434   C     0.53543   0.85733   0.31426   0.00000  Uiso   1.00
C435   C     0.46566   0.80920   0.30323   0.00000  Uiso   1.00
C436   C     0.53434   0.85747   0.03010   0.00000  Uiso   1.00
Cu437  Cu    0.50000   0.83334   0.21355   0.00000  Uiso   1.00
Cu438  Cu    0.50000   0.83333   0.11978   0.00000  Uiso   1.00
H439   H     0.43868   0.78985   0.28012   0.00000  Uiso   1.00
H440   H     0.56132   0.87681   0.05321   0.00000  Uiso   1.00
N441   N     0.50001   0.83334   0.28403   0.00000  Uiso   1.00
N442   N     0.49999   0.83332   0.04931   0.00000  Uiso   1.00
O443   O     0.50000   0.77322   0.20625   0.00000  Uiso   1.00
O444   O     0.50000   0.89345   0.12709   0.00000  Uiso   1.00
O445   O     0.50000   0.77321   0.12706   0.00000  Uiso   1.00
O446   O     0.50000   0.89346   0.20628   0.00000  Uiso   1.00
O447   O     0.42495   0.83334   0.19712   0.00000  Uiso   1.00
O448   O     0.57505   0.83333   0.13621   0.00000  Uiso   1.00
O449   O     0.42494   0.83333   0.11793   0.00000  Uiso   1.00
O450   O     0.57506   0.83334   0.21540   0.00000  Uiso   1.00
C451   C     0.65933   0.86202   0.10528   0.00000  Uiso   1.00
H452   H     0.35629   0.87666   0.08705   0.00000  Uiso   1.00
H453   H     0.63671   0.83998   0.07993   0.00000  Uiso   1.00
H454   H     0.63622   0.88769   0.11445   0.00000  Uiso   1.00
C455   C     0.34067   0.80465   0.22806   0.00000  Uiso   1.00
H456   H     0.64372   0.79002   0.24629   0.00000  Uiso   1.00
H457   H     0.36377   0.77898   0.21889   0.00000  Uiso   1.00
H458   H     0.36329   0.82669   0.25340   0.00000  Uiso   1.00
N459   N     0.58400   0.71608   0.14272   0.00000  Uiso   1.00
H460   H     0.59086   0.70829   0.10890   0.00000  Uiso   1.00
H461   H     0.61631   0.71101   0.16698   0.00000  Uiso   1.00
N462   N     0.41599   0.95059   0.19063   0.00000  Uiso   1.00
H463   H     0.40913   0.95838   0.22445   0.00000  Uiso   1.00
H464   H     0.38369   0.95565   0.16637   0.00000  Uiso   1.00
C465   C     0.58906   0.95859   0.14222   0.00000  Uiso   1.00
H466   H     0.57778   0.94079   0.10900   0.00000  Uiso   1.00
H467   H     0.62176   0.97967   0.13705   0.00000  Uiso   1.00
H468   H     0.60284   0.93718   0.17082   0.00000  Uiso   1.00
C469   C     0.41095   0.70807   0.19113   0.00000  Uiso   1.00
H470   H     0.42224   0.72586   0.22435   0.00000  Uiso   1.00
H471   H     0.39717   0.72950   0.16254   0.00000  Uiso   1.00
H472   H     0.37826   0.68700   0.19628   0.00000  Uiso   1.00
C473   C     0.42113   0.78453   0.03548   0.00000  Uiso   1.00
H474   H     0.40308   0.76210   0.00799   0.00000  Uiso   1.00
H475   H     0.43333   0.76582   0.06647   0.00000  Uiso   1.00
H476   H     0.39087   0.80543   0.04215   0.00000  Uiso   1.00
C477   C     0.57887   0.88214   0.29786   0.00000  Uiso   1.00
H478   H     0.59692   0.90457   0.32534   0.00000  Uiso   1.00
H479   H     0.60913   0.86124   0.29118   0.00000  Uiso   1.00
H480   H     0.56667   0.90085   0.26686   0.00000  Uiso   1.00
C481   C     0.83240   0.75421   0.16646   0.00000  Uiso   1.00
C482   C     0.83426   0.91246   0.16688   0.00000  Uiso   1.00
C483   C     0.73492   0.83375   0.15484   0.00000  Uiso   1.00
C484   C     0.93175   0.83292   0.17849   0.00000  Uiso   1.00
C485   C     0.68067   0.83927   0.14930   0.00000  Uiso   1.00
C486   C     0.98600   0.82740   0.18404   0.00000  Uiso   1.00
C487   C     0.87530   0.69049   0.15433   0.00000  Uiso   1.00
C488   C     0.79137   0.97618   0.17901   0.00000  Uiso   1.00
C489   C     0.87664   0.98045   0.15458   0.00000  Uiso   1.00
C490   C     0.79003   0.68621   0.17876   0.00000  Uiso   1.00
C491   C     0.83437   0.95719   0.16697   0.00000  Uiso   1.00
C492   C     0.83230   0.70948   0.16637   0.00000  Uiso   1.00
C493   C     0.79790   0.80934   0.01908   0.00000  Uiso   1.00
C494   C     0.86876   0.85733   0.31426   0.00000  Uiso   1.00
C495   C     0.79899   0.80920   0.30323   0.00000  Uiso   1.00
C496   C     0.86767   0.85747   0.03010   0.00000  Uiso   1.00
Cu497  Cu    0.83333   0.83334   0.21355   0.00000  Uiso   1.00
Cu498  Cu    0.83333   0.83333   0.11978   0.00000  Uiso   1.00
H499   H     0.77202   0.78985   0.28012   0.00000  Uiso   1.00
H500   H     0.89465   0.87681   0.05321   0.00000  Uiso   1.00
N501   N     0.83335   0.83334   0.28403   0.00000  Uiso   1.00
N502   N     0.83332   0.83332   0.04931   0.00000  Uiso   1.00
O503   O     0.83333   0.77322   0.20625   0.00000  Uiso   1.00
O504   O     0.83334   0.89345   0.12709   0.00000  Uiso   1.00
O505   O     0.83333   0.77321   0.12706   0.00000  Uiso   1.00
O506   O     0.83334   0.89346   0.20628   0.00000  Uiso   1.00
O507   O     0.75828   0.83334   0.19712   0.00000  Uiso   1.00
O508   O     0.90839   0.83333   0.13621   0.00000  Uiso   1.00
O509   O     0.75828   0.83333   0.11793   0.00000  Uiso   1.00
O510   O     0.90839   0.83334   0.21540   0.00000  Uiso   1.00
C511   C     0.99266   0.86202   0.10528   0.00000  Uiso   1.00
H512   H     0.68962   0.87666   0.08705   0.00000  Uiso   1.00
H513   H     0.97004   0.83998   0.07993   0.00000  Uiso   1.00
H514   H     0.96956   0.88769   0.11445   0.00000  Uiso   1.00
C515   C     0.67400   0.80465   0.22806   0.00000  Uiso   1.00
H516   H     0.97705   0.79002   0.24629   0.00000  Uiso   1.00
H517   H     0.69711   0.77898   0.21889   0.00000  Uiso   1.00
H518   H     0.69663   0.82669   0.25340   0.00000  Uiso   1.00
N519   N     0.91734   0.71608   0.14272   0.00000  Uiso   1.00
H520   H     0.92420   0.70829   0.10890   0.00000  Uiso   1.00
H521   H     0.94964   0.71101   0.16698   0.00000  Uiso   1.00
N522   N     0.74933   0.95059   0.19063   0.00000  Uiso   1.00
H523   H     0.74247   0.95838   0.22445   0.00000  Uiso   1.00
H524   H     0.71702   0.95565   0.16637   0.00000  Uiso   1.00
C525   C     0.92239   0.95859   0.14222   0.00000  Uiso   1.00
H526   H     0.91111   0.94079   0.10900   0.00000  Uiso   1.00
H527   H     0.95509   0.97967   0.13705   0.00000  Uiso   1.00
H528   H     0.93618   0.93718   0.17082   0.00000  Uiso   1.00
C529   C     0.74428   0.70807   0.19113   0.00000  Uiso   1.00
H530   H     0.75557   0.72586   0.22435   0.00000  Uiso   1.00
H531   H     0.73050   0.72950   0.16254   0.00000  Uiso   1.00
H532   H     0.71159   0.68700   0.19628   0.00000  Uiso   1.00
C533   C     0.75446   0.78453   0.03548   0.00000  Uiso   1.00
H534   H     0.73641   0.76210   0.00799   0.00000  Uiso   1.00
H535   H     0.76667   0.76582   0.06647   0.00000  Uiso   1.00
H536   H     0.72420   0.80543   0.04215   0.00000  Uiso   1.00
C537   C     0.91221   0.88214   0.29786   0.00000  Uiso   1.00
H538   H     0.93026   0.90457   0.32534   0.00000  Uiso   1.00
H539   H     0.94246   0.86124   0.29118   0.00000  Uiso   1.00
H540   H     0.90000   0.90085   0.26686   0.00000  Uiso   1.00
C541   C     0.16573   0.08754   0.49979   0.00000  Uiso   1.00
C542   C     0.16760   0.24579   0.50021   0.00000  Uiso   1.00
C543   C     0.06825   0.16708   0.48818   0.00000  Uiso   1.00
C544   C     0.26508   0.16625   0.51182   0.00000  Uiso   1.00
C545   C     0.01400   0.17261   0.48263   0.00000  Uiso   1.00
C546   C     0.31933   0.16073   0.51737   0.00000  Uiso   1.00
C547   C     0.20863   0.02382   0.48766   0.00000  Uiso   1.00
C548   C     0.12470   0.30951   0.51234   0.00000  Uiso   1.00
C549   C     0.20998   0.31379   0.48791   0.00000  Uiso   1.00
C550   C     0.12336   0.01955   0.51209   0.00000  Uiso   1.00
C551   C     0.16770   0.29052   0.50030   0.00000  Uiso   1.00
C552   C     0.16563   0.04281   0.49970   0.00000  Uiso   1.00
C553   C     0.13124   0.14267   0.35241   0.00000  Uiso   1.00
C554   C     0.20210   0.19066   0.64759   0.00000  Uiso   1.00
C555   C     0.13233   0.14253   0.63656   0.00000  Uiso   1.00
C556   C     0.20101   0.19080   0.36344   0.00000  Uiso   1.00
Cu557  Cu    0.16667   0.16667   0.54689   0.00000  Uiso   1.00
Cu558  Cu    0.16667   0.16666   0.45311   0.00000  Uiso   1.00
H559   H     0.10535   0.12319   0.61345   0.00000  Uiso   1.00
H560   H     0.22798   0.21015   0.38655   0.00000  Uiso   1.00
N561   N     0.16668   0.16668   0.61736   0.00000  Uiso   1.00
N562   N     0.16665   0.16666   0.38264   0.00000  Uiso   1.00
O563   O     0.16666   0.10655   0.53958   0.00000  Uiso   1.00
O564   O     0.16667   0.22678   0.46042   0.00000  Uiso   1.00
O565   O     0.16666   0.10654   0.46039   0.00000  Uiso   1.00
O566   O     0.16667   0.22679   0.53961   0.00000  Uiso   1.00
O567   O     0.09161   0.16667   0.53046   0.00000  Uiso   1.00
O568   O     0.24172   0.16666   0.46954   0.00000  Uiso   1.00
O569   O     0.09161   0.16666   0.45127   0.00000  Uiso   1.00
O570   O     0.24172   0.16667   0.54873   0.00000  Uiso   1.00
C571   C     0.32600   0.19535   0.43861   0.00000  Uiso   1.00
H572   H     0.02295   0.20999   0.42039   0.00000  Uiso   1.00
H573   H     0.30338   0.17332   0.41327   0.00000  Uiso   1.00
H574   H     0.30289   0.22103   0.44778   0.00000  Uiso   1.00
C575   C     0.00734   0.13799   0.56139   0.00000  Uiso   1.00
H576   H     0.31038   0.12335   0.57962   0.00000  Uiso   1.00
H577   H     0.03044   0.11231   0.55222   0.00000  Uiso   1.00
H578   H     0.02996   0.16002   0.58673   0.00000  Uiso   1.00
N579   N     0.25067   0.04941   0.47606   0.00000  Uiso   1.00
H580   H     0.25753   0.04162   0.44223   0.00000  Uiso   1.00
H581   H     0.28297   0.04435   0.50031   0.00000  Uiso   1.00
N582   N     0.08266   0.28392   0.52396   0.00000  Uiso   1.00
H583   H     0.07580   0.29172   0.55779   0.00000  Uiso   1.00
H584   H     0.05035   0.28898   0.49970   0.00000  Uiso   1.00
C585   C     0.25573   0.29193   0.47555   0.00000  Uiso   1.00
H586   H     0.24444   0.27412   0.44234   0.00000  Uiso   1.00
H587   H     0.28842   0.31300   0.47039   0.00000  Uiso   1.00
H588   H     0.26951   0.27051   0.50415   0.00000  Uiso   1.00
C589   C     0.07762   0.04141   0.52447   0.00000  Uiso   1.00
H590   H     0.08890   0.05920   0.55768   0.00000  Uiso   1.00
H591   H     0.06384   0.06284   0.49588   0.00000  Uiso   1.00
H592   H     0.04492   0.02033   0.52962   0.00000  Uiso   1.00
C593   C     0.08779   0.11787   0.36881   0.00000  Uiso   1.00
H594   H     0.06974   0.09543   0.34133   0.00000  Uiso   1.00
H595   H     0.10000   0.09915   0.39980   0.00000  Uiso   1.00
H596   H     0.05754   0.13877   0.37549   0.00000  Uiso   1.00
C597   C     0.24554   0.21547   0.63119   0.00000  Uiso   1.00
H598   H     0.26359   0.23790   0.65867   0.00000  Uiso   1.00
H599   H     0.27580   0.19457   0.62451   0.00000  Uiso   1.00
H600   H     0.23333   0.23418   0.60020   0.00000  Uiso   1.00
C601   C     0.49907   0.08754   0.49979   0.00000  Uiso   1.00
C602   C     0.50093   0.24579   0.50021   0.00000  Uiso   1.00
C603   C     0.40158   0.16708   0.48818   0.00000  Uiso   1.00
C604   C     0.59842   0.16625   0.51182   0.00000  Uiso   1.00
C605   C     0.34734   0.17261   0.48263   0.00000  Uiso   1.00
C606   C     0.65266   0.16073   0.51737   0.00000  Uiso   1.00
C607   C     0.54196   0.02382   0.48766   0.00000  Uiso   1.00
C608   C     0.45804   0.30951   0.51234   0.00000  Uiso   1.00
C609   C     0.54331   0.31379   0.48791   0.00000  Uiso   1.00
C610   C     0.45669   0.01955   0.51209   0.00000  Uiso   1.00
C611   C     0.50104   0.29052   0.50030   0.00000  Uiso   1.00
C612   C     0.49896   0.04281   0.49970   0.00000  Uiso   1.00
C613   C     0.46457   0.14267   0.35241   0.00000  Uiso   1.00
C614   C     0.53543   0.19066   0.64759   0.00000  Uiso   1.00
C615   C     0.46566   0.14253   0.63656   0.00000  Uiso   1.00
C616   C     0.53434   0.19080   0.36344   0.00000  Uiso   1.00
Cu617  Cu    0.50000   0.16667   0.54689   0.00000  Uiso   1.00
Cu618  Cu    0.50000   0.16666   0.45311   0.00000  Uiso   1.00
H619   H     0.43868   0.12319   0.61345   0.00000  Uiso   1.00
H620   H     0.56132   0.21015   0.38655   0.00000  Uiso   1.00
N621   N     0.50001   0.16668   0.61736   0.00000  Uiso   1.00
N622   N     0.49999   0.16666   0.38264   0.00000  Uiso   1.00
O623   O     0.50000   0.10655   0.53958   0.00000  Uiso   1.00
O624   O     0.50000   0.22678   0.46042   0.00000  Uiso   1.00
O625   O     0.50000   0.10654   0.46039   0.00000  Uiso   1.00
O626   O     0.50000   0.22679   0.53961   0.00000  Uiso   1.00
O627   O     0.42495   0.16667   0.53046   0.00000  Uiso   1.00
O628   O     0.57505   0.16666   0.46954   0.00000  Uiso   1.00
O629   O     0.42494   0.16666   0.45127   0.00000  Uiso   1.00
O630   O     0.57506   0.16667   0.54873   0.00000  Uiso   1.00
C631   C     0.65933   0.19535   0.43861   0.00000  Uiso   1.00
H632   H     0.35629   0.20999   0.42039   0.00000  Uiso   1.00
H633   H     0.63671   0.17332   0.41327   0.00000  Uiso   1.00
H634   H     0.63622   0.22103   0.44778   0.00000  Uiso   1.00
C635   C     0.34067   0.13799   0.56139   0.00000  Uiso   1.00
H636   H     0.64372   0.12335   0.57962   0.00000  Uiso   1.00
H637   H     0.36377   0.11231   0.55222   0.00000  Uiso   1.00
H638   H     0.36329   0.16002   0.58673   0.00000  Uiso   1.00
N639   N     0.58400   0.04941   0.47606   0.00000  Uiso   1.00
H640   H     0.59086   0.04162   0.44223   0.00000  Uiso   1.00
H641   H     0.61631   0.04435   0.50031   0.00000  Uiso   1.00
N642   N     0.41599   0.28392   0.52396   0.00000  Uiso   1.00
H643   H     0.40913   0.29172   0.55779   0.00000  Uiso   1.00
H644   H     0.38369   0.28898   0.49970   0.00000  Uiso   1.00
C645   C     0.58906   0.29193   0.47555   0.00000  Uiso   1.00
H646   H     0.57778   0.27412   0.44234   0.00000  Uiso   1.00
H647   H     0.62176   0.31300   0.47039   0.00000  Uiso   1.00
H648   H     0.60284   0.27051   0.50415   0.00000  Uiso   1.00
C649   C     0.41095   0.04141   0.52447   0.00000  Uiso   1.00
H650   H     0.42224   0.05920   0.55768   0.00000  Uiso   1.00
H651   H     0.39717   0.06284   0.49588   0.00000  Uiso   1.00
H652   H     0.37826   0.02033   0.52962   0.00000  Uiso   1.00
C653   C     0.42113   0.11787   0.36881   0.00000  Uiso   1.00
H654   H     0.40308   0.09543   0.34133   0.00000  Uiso   1.00
H655   H     0.43333   0.09915   0.39980   0.00000  Uiso   1.00
H656   H     0.39087   0.13877   0.37549   0.00000  Uiso   1.00
C657   C     0.57887   0.21547   0.63119   0.00000  Uiso   1.00
H658   H     0.59692   0.23790   0.65867   0.00000  Uiso   1.00
H659   H     0.60913   0.19457   0.62451   0.00000  Uiso   1.00
H660   H     0.56667   0.23418   0.60020   0.00000  Uiso   1.00
C661   C     0.83240   0.08754   0.49979   0.00000  Uiso   1.00
C662   C     0.83426   0.24579   0.50021   0.00000  Uiso   1.00
C663   C     0.73492   0.16708   0.48818   0.00000  Uiso   1.00
C664   C     0.93175   0.16625   0.51182   0.00000  Uiso   1.00
C665   C     0.68067   0.17261   0.48263   0.00000  Uiso   1.00
C666   C     0.98600   0.16073   0.51737   0.00000  Uiso   1.00
C667   C     0.87530   0.02382   0.48766   0.00000  Uiso   1.00
C668   C     0.79137   0.30951   0.51234   0.00000  Uiso   1.00
C669   C     0.87664   0.31379   0.48791   0.00000  Uiso   1.00
C670   C     0.79003   0.01955   0.51209   0.00000  Uiso   1.00
C671   C     0.83437   0.29052   0.50030   0.00000  Uiso   1.00
C672   C     0.83230   0.04281   0.49970   0.00000  Uiso   1.00
C673   C     0.79790   0.14267   0.35241   0.00000  Uiso   1.00
C674   C     0.86876   0.19066   0.64759   0.00000  Uiso   1.00
C675   C     0.79899   0.14253   0.63656   0.00000  Uiso   1.00
C676   C     0.86767   0.19080   0.36344   0.00000  Uiso   1.00
Cu677  Cu    0.83333   0.16667   0.54689   0.00000  Uiso   1.00
Cu678  Cu    0.83333   0.16666   0.45311   0.00000  Uiso   1.00
H679   H     0.77202   0.12319   0.61345   0.00000  Uiso   1.00
H680   H     0.89465   0.21015   0.38655   0.00000  Uiso   1.00
N681   N     0.83335   0.16668   0.61736   0.00000  Uiso   1.00
N682   N     0.83332   0.16666   0.38264   0.00000  Uiso   1.00
O683   O     0.83333   0.10655   0.53958   0.00000  Uiso   1.00
O684   O     0.83334   0.22678   0.46042   0.00000  Uiso   1.00
O685   O     0.83333   0.10654   0.46039   0.00000  Uiso   1.00
O686   O     0.83334   0.22679   0.53961   0.00000  Uiso   1.00
O687   O     0.75828   0.16667   0.53046   0.00000  Uiso   1.00
O688   O     0.90839   0.16666   0.46954   0.00000  Uiso   1.00
O689   O     0.75828   0.16666   0.45127   0.00000  Uiso   1.00
O690   O     0.90839   0.16667   0.54873   0.00000  Uiso   1.00
C691   C     0.99266   0.19535   0.43861   0.00000  Uiso   1.00
H692   H     0.68962   0.20999   0.42039   0.00000  Uiso   1.00
H693   H     0.97004   0.17332   0.41327   0.00000  Uiso   1.00
H694   H     0.96956   0.22103   0.44778   0.00000  Uiso   1.00
C695   C     0.67400   0.13799   0.56139   0.00000  Uiso   1.00
H696   H     0.97705   0.12335   0.57962   0.00000  Uiso   1.00
H697   H     0.69711   0.11231   0.55222   0.00000  Uiso   1.00
H698   H     0.69663   0.16002   0.58673   0.00000  Uiso   1.00
N699   N     0.91734   0.04941   0.47606   0.00000  Uiso   1.00
H700   H     0.92420   0.04162   0.44223   0.00000  Uiso   1.00
H701   H     0.94964   0.04435   0.50031   0.00000  Uiso   1.00
N702   N     0.74933   0.28392   0.52396   0.00000  Uiso   1.00
H703   H     0.74247   0.29172   0.55779   0.00000  Uiso   1.00
H704   H     0.71702   0.28898   0.49970   0.00000  Uiso   1.00
C705   C     0.92239   0.29193   0.47555   0.00000  Uiso   1.00
H706   H     0.91111   0.27412   0.44234   0.00000  Uiso   1.00
H707   H     0.95509   0.31300   0.47039   0.00000  Uiso   1.00
H708   H     0.93618   0.27051   0.50415   0.00000  Uiso   1.00
C709   C     0.74428   0.04141   0.52447   0.00000  Uiso   1.00
H710   H     0.75557   0.05920   0.55768   0.00000  Uiso   1.00
H711   H     0.73050   0.06284   0.49588   0.00000  Uiso   1.00
H712   H     0.71159   0.02033   0.52962   0.00000  Uiso   1.00
C713   C     0.75446   0.11787   0.36881   0.00000  Uiso   1.00
H714   H     0.73641   0.09543   0.34133   0.00000  Uiso   1.00
H715   H     0.76667   0.09915   0.39980   0.00000  Uiso   1.00
H716   H     0.72420   0.13877   0.37549   0.00000  Uiso   1.00
C717   C     0.91221   0.21547   0.63119   0.00000  Uiso   1.00
H718   H     0.93026   0.23790   0.65867   0.00000  Uiso   1.00
H719   H     0.94246   0.19457   0.62451   0.00000  Uiso   1.00
H720   H     0.90000   0.23418   0.60020   0.00000  Uiso   1.00
C721   C     0.16573   0.42087   0.49979   0.00000  Uiso   1.00
C722   C     0.16760   0.57913   0.50021   0.00000  Uiso   1.00
C723   C     0.06825   0.50042   0.48818   0.00000  Uiso   1.00
C724   C     0.26508   0.49958   0.51182   0.00000  Uiso   1.00
C725   C     0.01400   0.50594   0.48263   0.00000  Uiso   1.00
C726   C     0.31933   0.49406   0.51737   0.00000  Uiso   1.00
C727   C     0.20863   0.35716   0.48766   0.00000  Uiso   1.00
C728   C     0.12470   0.64284   0.51234   0.00000  Uiso   1.00
C729   C     0.20998   0.64712   0.48791   0.00000  Uiso   1.00
C730   C     0.12336   0.35288   0.51209   0.00000  Uiso   1.00
C731   C     0.16770   0.62386   0.50030   0.00000  Uiso   1.00
C732   C     0.16563   0.37614   0.49970   0.00000  Uiso   1.00
C733   C     0.13124   0.47600   0.35241   0.00000  Uiso   1.00
C734   C     0.20210   0.52400   0.64759   0.00000  Uiso   1.00
C735   C     0.13233   0.47587   0.63656   0.00000  Uiso   1.00
C736   C     0.20101   0.52413   0.36344   0.00000  Uiso   1.00
Cu737  Cu    0.16667   0.50001   0.54689   0.00000  Uiso   1.00
Cu738  Cu    0.16667   0.49999   0.45311   0.00000  Uiso   1.00
H739   H     0.10535   0.45652   0.61345   0.00000  Uiso   1.00
H740   H     0.22798   0.54348   0.38655   0.00000  Uiso   1.00
N741   N     0.16668   0.50001   0.61736   0.00000  Uiso   1.00
N742   N     0.16665   0.49999   0.38264   0.00000  Uiso   1.00
O743   O     0.16666   0.43989   0.53958   0.00000  Uiso   1.00
O744   O     0.16667   0.56011   0.46042   0.00000  Uiso   1.00
O745   O     0.16666   0.43988   0.46039   0.00000  Uiso   1.00
O746   O     0.16667   0.56012   0.53961   0.00000  Uiso   1.00
O747   O     0.09161   0.50000   0.53046   0.00000  Uiso   1.00
O748   O     0.24172   0.50000   0.46954   0.00000  Uiso   1.00
O749   O     0.09161   0.49999   0.45127   0.00000  Uiso   1.00
O750   O     0.24172   0.50001   0.54873   0.00000  Uiso   1.00
C751   C     0.32600   0.52869   0.43861   0.00000  Uiso   1.00
H752   H     0.02295   0.54333   0.42039   0.00000  Uiso   1.00
H753   H     0.30338   0.50665   0.41327   0.00000  Uiso   1.00
H754   H     0.30289   0.55436   0.44778   0.00000  Uiso   1.00
C755   C     0.00734   0.47132   0.56139   0.00000  Uiso   1.00
H756   H     0.31038   0.45668   0.57962   0.00000  Uiso   1.00
H757   H     0.03044   0.44564   0.55222   0.00000  Uiso   1.00
H758   H     0.02996   0.49336   0.58673   0.00000  Uiso   1.00
N759   N     0.25067   0.38275   0.47606   0.00000  Uiso   1.00
H760   H     0.25753   0.37496   0.44223   0.00000  Uiso   1.00
H761   H     0.28297   0.37768   0.50031   0.00000  Uiso   1.00
N762   N     0.08266   0.61725   0.52396   0.00000  Uiso   1.00
H763   H     0.07580   0.62505   0.55779   0.00000  Uiso   1.00
H764   H     0.05035   0.62231   0.49970   0.00000  Uiso   1.00
C765   C     0.25573   0.62526   0.47555   0.00000  Uiso   1.00
H766   H     0.24444   0.60745   0.44234   0.00000  Uiso   1.00
H767   H     0.28842   0.64634   0.47039   0.00000  Uiso   1.00
H768   H     0.26951   0.60385   0.50415   0.00000  Uiso   1.00
C769   C     0.07762   0.37474   0.52447   0.00000  Uiso   1.00
H770   H     0.08890   0.39253   0.55768   0.00000  Uiso   1.00
H771   H     0.06384   0.39617   0.49588   0.00000  Uiso   1.00
H772   H     0.04492   0.35366   0.52962   0.00000  Uiso   1.00
C773   C     0.08779   0.45120   0.36881   0.00000  Uiso   1.00
H774   H     0.06974   0.42876   0.34133   0.00000  Uiso   1.00
H775   H     0.10000   0.43249   0.39980   0.00000  Uiso   1.00
H776   H     0.05754   0.47210   0.37549   0.00000  Uiso   1.00
C777   C     0.24554   0.54880   0.63119   0.00000  Uiso   1.00
H778   H     0.26359   0.57124   0.65867   0.00000  Uiso   1.00
H779   H     0.27580   0.52790   0.62451   0.00000  Uiso   1.00
H780   H     0.23333   0.56752   0.60020   0.00000  Uiso   1.00
C781   C     0.49907   0.42087   0.49979   0.00000  Uiso   1.00
C782   C     0.50093   0.57913   0.50021   0.00000  Uiso   1.00
C783   C     0.40158   0.50042   0.48818   0.00000  Uiso   1.00
C784   C     0.59842   0.49958   0.51182   0.00000  Uiso   1.00
C785   C     0.34734   0.50594   0.48263   0.00000  Uiso   1.00
C786   C     0.65266   0.49406   0.51737   0.00000  Uiso   1.00
C787   C     0.54196   0.35716   0.48766   0.00000  Uiso   1.00
C788   C     0.45804   0.64284   0.51234   0.00000  Uiso   1.00
C789   C     0.54331   0.64712   0.48791   0.00000  Uiso   1.00
C790   C     0.45669   0.35288   0.51209   0.00000  Uiso   1.00
C791   C     0.50104   0.62386   0.50030   0.00000  Uiso   1.00
C792   C     0.49896   0.37614   0.49970   0.00000  Uiso   1.00
C793   C     0.46457   0.47600   0.35241   0.00000  Uiso   1.00
C794   C     0.53543   0.52400   0.64759   0.00000  Uiso   1.00
C795   C     0.46566   0.47587   0.63656   0.00000  Uiso   1.00
C796   C     0.53434   0.52413   0.36344   0.00000  Uiso   1.00
Cu797  Cu    0.50000   0.50001   0.54689   0.00000  Uiso   1.00
Cu798  Cu    0.50000   0.49999   0.45311   0.00000  Uiso   1.00
H799   H     0.43868   0.45652   0.61345   0.00000  Uiso   1.00
H800   H     0.56132   0.54348   0.38655   0.00000  Uiso   1.00
N801   N     0.50001   0.50001   0.61736   0.00000  Uiso   1.00
N802   N     0.49999   0.49999   0.38264   0.00000  Uiso   1.00
O803   O     0.50000   0.43989   0.53958   0.00000  Uiso   1.00
O804   O     0.50000   0.56011   0.46042   0.00000  Uiso   1.00
O805   O     0.50000   0.43988   0.46039   0.00000  Uiso   1.00
O806   O     0.50000   0.56012   0.53961   0.00000  Uiso   1.00
O807   O     0.42495   0.50000   0.53046   0.00000  Uiso   1.00
O808   O     0.57505   0.50000   0.46954   0.00000  Uiso   1.00
O809   O     0.42494   0.49999   0.45127   0.00000  Uiso   1.00
O810   O     0.57506   0.50001   0.54873   0.00000  Uiso   1.00
C811   C     0.65933   0.52869   0.43861   0.00000  Uiso   1.00
H812   H     0.35629   0.54333   0.42039   0.00000  Uiso   1.00
H813   H     0.63671   0.50665   0.41327   0.00000  Uiso   1.00
H814   H     0.63622   0.55436   0.44778   0.00000  Uiso   1.00
C815   C     0.34067   0.47132   0.56139   0.00000  Uiso   1.00
H816   H     0.64372   0.45668   0.57962   0.00000  Uiso   1.00
H817   H     0.36377   0.44564   0.55222   0.00000  Uiso   1.00
H818   H     0.36329   0.49336   0.58673   0.00000  Uiso   1.00
N819   N     0.58400   0.38275   0.47606   0.00000  Uiso   1.00
H820   H     0.59086   0.37496   0.44223   0.00000  Uiso   1.00
H821   H     0.61631   0.37768   0.50031   0.00000  Uiso   1.00
N822   N     0.41599   0.61725   0.52396   0.00000  Uiso   1.00
H823   H     0.40913   0.62505   0.55779   0.00000  Uiso   1.00
H824   H     0.38369   0.62231   0.49970   0.00000  Uiso   1.00
C825   C     0.58906   0.62526   0.47555   0.00000  Uiso   1.00
H826   H     0.57778   0.60745   0.44234   0.00000  Uiso   1.00
H827   H     0.62176   0.64634   0.47039   0.00000  Uiso   1.00
H828   H     0.60284   0.60385   0.50415   0.00000  Uiso   1.00
C829   C     0.41095   0.37474   0.52447   0.00000  Uiso   1.00
H830   H     0.42224   0.39253   0.55768   0.00000  Uiso   1.00
H831   H     0.39717   0.39617   0.49588   0.00000  Uiso   1.00
H832   H     0.37826   0.35366   0.52962   0.00000  Uiso   1.00
C833   C     0.42113   0.45120   0.36881   0.00000  Uiso   1.00
H834   H     0.40308   0.42876   0.34133   0.00000  Uiso   1.00
H835   H     0.43333   0.43249   0.39980   0.00000  Uiso   1.00
H836   H     0.39087   0.47210   0.37549   0.00000  Uiso   1.00
C837   C     0.57887   0.54880   0.63119   0.00000  Uiso   1.00
H838   H     0.59692   0.57124   0.65867   0.00000  Uiso   1.00
H839   H     0.60913   0.52790   0.62451   0.00000  Uiso   1.00
H840   H     0.56667   0.56752   0.60020   0.00000  Uiso   1.00
C841   C     0.83240   0.42087   0.49979   0.00000  Uiso   1.00
C842   C     0.83426   0.57913   0.50021   0.00000  Uiso   1.00
C843   C     0.73492   0.50042   0.48818   0.00000  Uiso   1.00
C844   C     0.93175   0.49958   0.51182   0.00000  Uiso   1.00
C845   C     0.68067   0.50594   0.48263   0.00000  Uiso   1.00
C846   C     0.98600   0.49406   0.51737   0.00000  Uiso   1.00
C847   C     0.87530   0.35716   0.48766   0.00000  Uiso   1.00
C848   C     0.79137   0.64284   0.51234   0.00000  Uiso   1.00
C849   C     0.87664   0.64712   0.48791   0.00000  Uiso   1.00
C850   C     0.79003   0.35288   0.51209   0.00000  Uiso   1.00
C851   C     0.83437   0.62386   0.50030   0.00000  Uiso   1.00
C852   C     0.83230   0.37614   0.49970   0.00000  Uiso   1.00
C853   C     0.79790   0.47600   0.35241   0.00000  Uiso   1.00
C854   C     0.86876   0.52400   0.64759   0.00000  Uiso   1.00
C855   C     0.79899   0.47587   0.63656   0.00000  Uiso   1.00
C856   C     0.86767   0.52413   0.36344   0.00000  Uiso   1.00
Cu857  Cu    0.83333   0.50001   0.54689   0.00000  Uiso   1.00
Cu858  Cu    0.83333   0.49999   0.45311   0.00000  Uiso   1.00
H859   H     0.77202   0.45652   0.61345   0.00000  Uiso   1.00
H860   H     0.89465   0.54348   0.38655   0.00000  Uiso   1.00
N861   N     0.83335   0.50001   0.61736   0.00000  Uiso   1.00
N862   N     0.83332   0.49999   0.38264   0.00000  Uiso   1.00
O863   O     0.83333   0.43989   0.53958   0.00000  Uiso   1.00
O864   O     0.83334   0.56011   0.46042   0.00000  Uiso   1.00
O865   O     0.83333   0.43988   0.46039   0.00000  Uiso   1.00
O866   O     0.83334   0.56012   0.53961   0.00000  Uiso   1.00
O867   O     0.75828   0.50000   0.53046   0.00000  Uiso   1.00
O868   O     0.90839   0.50000   0.46954   0.00000  Uiso   1.00
O869   O     0.75828   0.49999   0.45127   0.00000  Uiso   1.00
O870   O     0.90839   0.50001   0.54873   0.00000  Uiso   1.00
C871   C     0.99266   0.52869   0.43861   0.00000  Uiso   1.00
H872   H     0.68962   0.54333   0.42039   0.00000  Uiso   1.00
H873   H     0.97004   0.50665   0.41327   0.00000  Uiso   1.00
H874   H     0.96956   0.55436   0.44778   0.00000  Uiso   1.00
C875   C     0.67400   0.47132   0.56139   0.00000  Uiso   1.00
H876   H     0.97705   0.45668   0.57962   0.00000  Uiso   1.00
H877   H     0.69711   0.44564   0.55222   0.00000  Uiso   1.00
H878   H     0.69663   0.49336   0.58673   0.00000  Uiso   1.00
N879   N     0.91734   0.38275   0.47606   0.00000  Uiso   1.00
H880   H     0.92420   0.37496   0.44223   0.00000  Uiso   1.00
H881   H     0.94964   0.37768   0.50031   0.00000  Uiso   1.00
N882   N     0.74933   0.61725   0.52396   0.00000  Uiso   1.00
H883   H     0.74247   0.62505   0.55779   0.00000  Uiso   1.00
H884   H     0.71702   0.62231   0.49970   0.00000  Uiso   1.00
C885   C     0.92239   0.62526   0.47555   0.00000  Uiso   1.00
H886   H     0.91111   0.60745   0.44234   0.00000  Uiso   1.00
H887   H     0.95509   0.64634   0.47039   0.00000  Uiso   1.00
H888   H     0.93618   0.60385   0.50415   0.00000  Uiso   1.00
C889   C     0.74428   0.37474   0.52447   0.00000  Uiso   1.00
H890   H     0.75557   0.39253   0.55768   0.00000  Uiso   1.00
H891   H     0.73050   0.39617   0.49588   0.00000  Uiso   1.00
H892   H     0.71159   0.35366   0.52962   0.00000  Uiso   1.00
C893   C     0.75446   0.45120   0.36881   0.00000  Uiso   1.00
H894   H     0.73641   0.42876   0.34133   0.00000  Uiso   1.00
H895   H     0.76667   0.43249   0.39980   0.00000  Uiso   1.00
H896   H     0.72420   0.47210   0.37549   0.00000  Uiso   1.00
C897   C     0.91221   0.54880   0.63119   0.00000  Uiso   1.00
H898   H     0.93026   0.57124   0.65867   0.00000  Uiso   1.00
H899   H     0.94246   0.52790   0.62451   0.00000  Uiso   1.00
H900   H     0.90000   0.56752   0.60020   0.00000  Uiso   1.00
C901   C     0.16573   0.75421   0.49979   0.00000  Uiso   1.00
C902   C     0.16760   0.91246   0.50021   0.00000  Uiso   1.00
C903   C     0.06825   0.83375   0.48818   0.00000  Uiso   1.00
C904   C     0.26508   0.83292   0.51182   0.00000  Uiso   1.00
C905   C     0.01400   0.83927   0.48263   0.00000  Uiso   1.00
C906   C     0.31933   0.82740   0.51737   0.00000  Uiso   1.00
C907   C     0.20863   0.69049   0.48766   0.00000  Uiso   1.00
C908   C     0.12470   0.97618   0.51234   0.00000  Uiso   1.00
C909   C     0.20998   0.98045   0.48791   0.00000  Uiso   1.00
C910   C     0.12336   0.68621   0.51209   0.00000  Uiso   1.00
C911   C     0.16770   0.95719   0.50030   0.00000  Uiso   1.00
C912   C     0.16563   0.70948   0.49970   0.00000  Uiso   1.00
C913   C     0.13124   0.80934   0.35241   0.00000  Uiso   1.00
C914   C     0.20210   0.85733   0.64759   0.00000  Uiso   1.00
C915   C     0.13233   0.80920   0.63656   0.00000  Uiso   1.00
C916   C     0.20101   0.85747   0.36344   0.00000  Uiso   1.00
Cu917  Cu    0.16667   0.83334   0.54689   0.00000  Uiso   1.00
Cu918  Cu    0.16667   0.83333   0.45311   0.00000  Uiso   1.00
H919   H     0.10535   0.78985   0.61345   0.00000  Uiso   1.00
H920   H     0.22798   0.87681   0.38655   0.00000  Uiso   1.00
N921   N     0.16668   0.83334   0.61736   0.00000  Uiso   1.00
N922   N     0.16665   0.83332   0.38264   0.00000  Uiso   1.00
O923   O     0.16666   0.77322   0.53958   0.00000  Uiso   1.00
O924   O     0.16667   0.89345   0.46042   0.00000  Uiso   1.00
O925   O     0.16666   0.77321   0.46039   0.00000  Uiso   1.00
O926   O     0.16667   0.89346   0.53961   0.00000  Uiso   1.00
O927   O     0.09161   0.83334   0.53046   0.00000  Uiso   1.00
O928   O     0.24172   0.83333   0.46954   0.00000  Uiso   1.00
O929   O     0.09161   0.83333   0.45127   0.00000  Uiso   1.00
O930   O     0.24172   0.83334   0.54873   0.00000  Uiso   1.00
C931   C     0.32600   0.86202   0.43861   0.00000  Uiso   1.00
H932   H     0.02295   0.87666   0.42039   0.00000  Uiso   1.00
H933   H     0.30338   0.83998   0.41327   0.00000  Uiso   1.00
H934   H     0.30289   0.88769   0.44778   0.00000  Uiso   1.00
C935   C     0.00734   0.80465   0.56139   0.00000  Uiso   1.00
H936   H     0.31038   0.79002   0.57962   0.00000  Uiso   1.00
H937   H     0.03044   0.77898   0.55222   0.00000  Uiso   1.00
H938   H     0.02996   0.82669   0.58673   0.00000  Uiso   1.00
N939   N     0.25067   0.71608   0.47606   0.00000  Uiso   1.00
H940   H     0.25753   0.70829   0.44223   0.00000  Uiso   1.00
H941   H     0.28297   0.71101   0.50031   0.00000  Uiso   1.00
N942   N     0.08266   0.95059   0.52396   0.00000  Uiso   1.00
H943   H     0.07580   0.95838   0.55779   0.00000  Uiso   1.00
H944   H     0.05035   0.95565   0.49970   0.00000  Uiso   1.00
C945   C     0.25573   0.95859   0.47555   0.00000  Uiso   1.00
H946   H     0.24444   0.94079   0.44234   0.00000  Uiso   1.00
H947   H     0.28842   0.97967   0.47039   0.00000  Uiso   1.00
H948   H     0.26951   0.93718   0.50415   0.00000  Uiso   1.00
C949   C     0.07762   0.70807   0.52447   0.00000  Uiso   1.00
H950   H     0.08890   0.72586   0.55768   0.00000  Uiso   1.00
H951   H     0.06384   0.72950   0.49588   0.00000  Uiso   1.00
H952   H     0.04492   0.68700   0.52962   0.00000  Uiso   1.00
C953   C     0.08779   0.78453   0.36881   0.00000  Uiso   1.00
H954   H     0.06974   0.76210   0.34133   0.00000  Uiso   1.00
H955   H     0.10000   0.76582   0.39980   0.00000  Uiso   1.00
H956   H     0.05754   0.80543   0.37549   0.00000  Uiso   1.00
C957   C     0.24554   0.88214   0.63119   0.00000  Uiso   1.00
H958   H     0.26359   0.90457   0.65867   0.00000  Uiso   1.00
H959   H     0.27580   0.86124   0.62451   0.00000  Uiso   1.00
H960   H     0.23333   0.90085   0.60020   0.00000  Uiso   1.00
C961   C     0.49907   0.75421   0.49979   0.00000  Uiso   1.00
C962   C     0.50093   0.91246   0.50021   0.00000  Uiso   1.00
C963   C     0.40158   0.83375   0.48818   0.00000  Uiso   1.00
C964   C     0.59842   0.83292   0.51182   0.00000  Uiso   1.00
C965   C     0.34734   0.83927   0.48263   0.00000  Uiso   1.00
C966   C     0.65266   0.82740   0.51737   0.00000  Uiso   1.00
C967   C     0.54196   0.69049   0.48766   0.00000  Uiso   1.00
C968   C     0.45804   0.97618   0.51234   0.00000  Uiso   1.00
C969   C     0.54331   0.98045   0.48791   0.00000  Uiso   1.00
C970   C     0.45669   0.68621   0.51209   0.00000  Uiso   1.00
C971   C     0.50104   0.95719   0.50030   0.00000  Uiso   1.00
C972   C     0.49896   0.70948   0.49970   0.00000  Uiso   1.00
C973   C     0.46457   0.80934   0.35241   0.00000  Uiso   1.00
C974   C     0.53543   0.85733   0.64759   0.00000  Uiso   1.00
C975   C     0.46566   0.80920   0.63656   0.00000  Uiso   1.00
C976   C     0.53434   0.85747   0.36344   0.00000  Uiso   1.00
Cu977  Cu    0.50000   0.83334   0.54689   0.00000  Uiso   1.00
Cu978  Cu    0.50000   0.83333   0.45311   0.00000  Uiso   1.00
H979   H     0.43868   0.78985   0.61345   0.00000  Uiso   1.00
H980   H     0.56132   0.87681   0.38655   0.00000  Uiso   1.00
N981   N     0.50001   0.83334   0.61736   0.00000  Uiso   1.00
N982   N     0.49999   0.83332   0.38264   0.00000  Uiso   1.00
O983   O     0.50000   0.77322   0.53958   0.00000  Uiso   1.00
O984   O     0.50000   0.89345   0.46042   0.00000  Uiso   1.00
O985   O     0.50000   0.77321   0.46039   0.00000  Uiso   1.00
O986   O     0.50000   0.89346   0.53961   0.00000  Uiso   1.00
O987   O     0.42495   0.83334   0.53046   0.00000  Uiso   1.00
O988   O     0.57505   0.83333   0.46954   0.00000  Uiso   1.00
O989   O     0.42494   0.83333   0.45127   0.00000  Uiso   1.00
O990   O     0.57506   0.83334   0.54873   0.00000  Uiso   1.00
C991   C     0.65933   0.86202   0.43861   0.00000  Uiso   1.00
H992   H     0.35629   0.87666   0.42039   0.00000  Uiso   1.00
H993   H     0.63671   0.83998   0.41327   0.00000  Uiso   1.00
H994   H     0.63622   0.88769   0.44778   0.00000  Uiso   1.00
C995   C     0.34067   0.80465   0.56139   0.00000  Uiso   1.00
H996   H     0.64372   0.79002   0.57962   0.00000  Uiso   1.00
H997   H     0.36377   0.77898   0.55222   0.00000  Uiso   1.00
H998   H     0.36329   0.82669   0.58673   0.00000  Uiso   1.00
N999   N     0.58400   0.71608   0.47606   0.00000  Uiso   1.00
H1000  H     0.59086   0.70829   0.44223   0.00000  Uiso   1.00
H1001  H     0.61631   0.71101   0.50031   0.00000  Uiso   1.00
N1002  N     0.41599   0.95059   0.52396   0.00000  Uiso   1.00
H1003  H     0.40913   0.95838   0.55779   0.00000  Uiso   1.00
H1004  H     0.38369   0.95565   0.49970   0.00000  Uiso   1.00
C1005  C     0.58906   0.95859   0.47555   0.00000  Uiso   1.00
H1006  H     0.57778   0.94079   0.44234   0.00000  Uiso   1.00
H1007  H     0.62176   0.97967   0.47039   0.00000  Uiso   1.00
H1008  H     0.60284   0.93718   0.50415   0.00000  Uiso   1.00
C1009  C     0.41095   0.70807   0.52447   0.00000  Uiso   1.00
H1010  H     0.42224   0.72586   0.55768   0.00000  Uiso   1.00
H1011  H     0.39717   0.72950   0.49588   0.00000  Uiso   1.00
H1012  H     0.37826   0.68700   0.52962   0.00000  Uiso   1.00
C1013  C     0.42113   0.78453   0.36881   0.00000  Uiso   1.00
H1014  H     0.40308   0.76210   0.34133   0.00000  Uiso   1.00
H1015  H     0.43333   0.76582   0.39980   0.00000  Uiso   1.00
H1016  H     0.39087   0.80543   0.37549   0.00000  Uiso   1.00
C1017  C     0.57887   0.88214   0.63119   0.00000  Uiso   1.00
H1018  H     0.59692   0.90457   0.65867   0.00000  Uiso   1.00
H1019  H     0.60913   0.86124   0.62451   0.00000  Uiso   1.00
H1020  H     0.56667   0.90085   0.60020   0.00000  Uiso   1.00
C1021  C     0.83240   0.75421   0.49979   0.00000  Uiso   1.00
C1022  C     0.83426   0.91246   0.50021   0.00000  Uiso   1.00
C1023  C     0.73492   0.83375   0.48818   0.00000  Uiso   1.00
C1024  C     0.93175   0.83292   0.51182   0.00000  Uiso   1.00
C1025  C     0.68067   0.83927   0.48263   0.00000  Uiso   1.00
C1026  C     0.98600   0.82740   0.51737   0.00000  Uiso   1.00
C1027  C     0.87530   0.69049   0.48766   0.00000  Uiso   1.00
C1028  C     0.79137   0.97618   0.51234   0.00000  Uiso   1.00
C1029  C     0.87664   0.98045   0.48791   0.00000  Uiso   1.00
C1030  C     0.79003   0.68621   0.51209   0.00000  Uiso   1.00
C1031  C     0.83437   0.95719   0.50030   0.00000  Uiso   1.00
C1032  C     0.83230   0.70948   0.49970   0.00000  Uiso   1.00
C1033  C     0.79790   0.80934   0.35241   0.00000  Uiso   1.00
C1034  C     0.86876   0.85733   0.64759   0.00000  Uiso   1.00
C1035  C     0.79899   0.80920   0.63656   0.00000  Uiso   1.00
C1036  C     0.86767   0.85747   0.36344   0.00000  Uiso   1.00
Cu1037 Cu    0.83333   0.83334   0.54689   0.00000  Uiso   1.00
Cu1038 Cu    0.83333   0.83333   0.45311   0.00000  Uiso   1.00
H1039  H     0.77202   0.78985   0.61345   0.00000  Uiso   1.00
H1040  H     0.89465   0.87681   0.38655   0.00000  Uiso   1.00
N1041  N     0.83335   0.83334   0.61736   0.00000  Uiso   1.00
N1042  N     0.83332   0.83332   0.38264   0.00000  Uiso   1.00
O1043  O     0.83333   0.77322   0.53958   0.00000  Uiso   1.00
O1044  O     0.83334   0.89345   0.46042   0.00000  Uiso   1.00
O1045  O     0.83333   0.77321   0.46039   0.00000  Uiso   1.00
O1046  O     0.83334   0.89346   0.53961   0.00000  Uiso   1.00
O1047  O     0.75828   0.83334   0.53046   0.00000  Uiso   1.00
O1048  O     0.90839   0.83333   0.46954   0.00000  Uiso   1.00
O1049  O     0.75828   0.83333   0.45127   0.00000  Uiso   1.00
O1050  O     0.90839   0.83334   0.54873   0.00000  Uiso   1.00
C1051  C     0.99266   0.86202   0.43861   0.00000  Uiso   1.00
H1052  H     0.68962   0.87666   0.42039   0.00000  Uiso   1.00
H1053  H     0.97004   0.83998   0.41327   0.00000  Uiso   1.00
H1054  H     0.96956   0.88769   0.44778   0.00000  Uiso   1.00
C1055  C     0.67400   0.80465   0.56139   0.00000  Uiso   1.00
H1056  H     0.97705   0.79002   0.57962   0.00000  Uiso   1.00
H1057  H     0.69711   0.77898   0.55222   0.00000  Uiso   1.00
H1058  H     0.69663   0.82669   0.58673   0.00000  Uiso   1.00
N1059  N     0.91734   0.71608   0.47606   0.00000  Uiso   1.00
H1060  H     0.92420   0.70829   0.44223   0.00000  Uiso   1.00
H1061  H     0.94964   0.71101   0.50031   0.00000  Uiso   1.00
N1062  N     0.74933   0.95059   0.52396   0.00000  Uiso   1.00
H1063  H     0.74247   0.95838   0.55779   0.00000  Uiso   1.00
H1064  H     0.71702   0.95565   0.49970   0.00000  Uiso   1.00
C1065  C     0.92239   0.95859   0.47555   0.00000  Uiso   1.00
H1066  H     0.91111   0.94079   0.44234   0.00000  Uiso   1.00
H1067  H     0.95509   0.97967   0.47039   0.00000  Uiso   1.00
H1068  H     0.93618   0.93718   0.50415   0.00000  Uiso   1.00
C1069  C     0.74428   0.70807   0.52447   0.00000  Uiso   1.00
H1070  H     0.75557   0.72586   0.55768   0.00000  Uiso   1.00
H1071  H     0.73050   0.72950   0.49588   0.00000  Uiso   1.00
H1072  H     0.71159   0.68700   0.52962   0.00000  Uiso   1.00
C1073  C     0.75446   0.78453   0.36881   0.00000  Uiso   1.00
H1074  H     0.73641   0.76210   0.34133   0.00000  Uiso   1.00
H1075  H     0.76667   0.76582   0.39980   0.00000  Uiso   1.00
H1076  H     0.72420   0.80543   0.37549   0.00000  Uiso   1.00
C1077  C     0.91221   0.88214   0.63119   0.00000  Uiso   1.00
H1078  H     0.93026   0.90457   0.65867   0.00000  Uiso   1.00
H1079  H     0.94246   0.86124   0.62451   0.00000  Uiso   1.00
H1080  H     0.90000   0.90085   0.60020   0.00000  Uiso   1.00
C1081  C     0.16573   0.08754   0.83312   0.00000  Uiso   1.00
C1082  C     0.16760   0.24579   0.83354   0.00000  Uiso   1.00
C1083  C     0.06825   0.16708   0.82151   0.00000  Uiso   1.00
C1084  C     0.26508   0.16625   0.84516   0.00000  Uiso   1.00
C1085  C     0.01400   0.17261   0.81596   0.00000  Uiso   1.00
C1086  C     0.31933   0.16073   0.85070   0.00000  Uiso   1.00
C1087  C     0.20863   0.02382   0.82100   0.00000  Uiso   1.00
C1088  C     0.12470   0.30951   0.84567   0.00000  Uiso   1.00
C1089  C     0.20998   0.31379   0.82124   0.00000  Uiso   1.00
C1090  C     0.12336   0.01955   0.84543   0.00000  Uiso   1.00
C1091  C     0.16770   0.29052   0.83363   0.00000  Uiso   1.00
C1092  C     0.16563   0.04281   0.83303   0.00000  Uiso   1.00
C1093  C     0.13124   0.14267   0.68574   0.00000  Uiso   1.00
C1094  C     0.20210   0.19066   0.98092   0.00000  Uiso   1.00
C1095  C     0.13233   0.14253   0.96990   0.00000  Uiso   1.00
C1096  C     0.20101   0.19080   0.69677   0.00000  Uiso   1.00
Cu1097 Cu    0.16667   0.16667   0.88022   0.00000  Uiso   1.00
Cu1098 Cu    0.16667   0.16666   0.78645   0.00000  Uiso   1.00
H1099  H     0.10535   0.12319   0.94678   0.00000  Uiso   1.00
H1100  H     0.22798   0.21015   0.71988   0.00000  Uiso   1.00
N1101  N     0.16668   0.16668   0.95069   0.00000  Uiso   1.00
N1102  N     0.16665   0.16666   0.71597   0.00000  Uiso   1.00
O1103  O     0.16666   0.10655   0.87291   0.00000  Uiso   1.00
O1104  O     0.16667   0.22678   0.79375   0.00000  Uiso   1.00
O1105  O     0.16666   0.10654   0.79372   0.00000  Uiso   1.00
O1106  O     0.16667   0.22679   0.87294   0.00000  Uiso   1.00
O1107  O     0.09161   0.16667   0.86379   0.00000  Uiso   1.00
O1108  O     0.24172   0.16666   0.80288   0.00000  Uiso   1.00
O1109  O     0.09161   0.16666   0.78460   0.00000  Uiso   1.00
O1110  O     0.24172   0.16667   0.88207   0.00000  Uiso   1.00
C1111  C     0.32600   0.19535   0.77195   0.00000  Uiso   1.00
H1112  H     0.02295   0.20999   0.75372   0.00000  Uiso   1.00
H1113  H     0.30338   0.17332   0.74660   0.00000  Uiso   1.00
H1114  H     0.30289   0.22103   0.78111   0.00000  Uiso   1.00
C1115  C     0.00734   0.13799   0.89472   0.00000  Uiso   1.00
H1116  H     0.31038   0.12335   0.91295   0.00000  Uiso   1.00
H1117  H     0.03044   0.11231   0.88556   0.00000  Uiso   1.00
H1118  H     0.02996   0.16002   0.92006   0.00000  Uiso   1.00
N1119  N     0.25067   0.04941   0.80939   0.00000  Uiso   1.00
H1120  H     0.25753   0.04162   0.77557   0.00000  Uiso   1.00
H1121  H     0.28297   0.04435   0.83364   0.00000  Uiso   1.00
N1122  N     0.08266   0.28392   0.85729   0.00000  Uiso   1.00
H1123  H     0.07580   0.29172   0.89112   0.00000  Uiso   1.00
H1124  H     0.05035   0.28898   0.83304   0.00000  Uiso   1.00
C1125  C     0.25573   0.29193   0.80888   0.00000  Uiso   1.00
H1126  H     0.24444   0.27412   0.77567   0.00000  Uiso   1.00
H1127  H     0.28842   0.31300   0.80372   0.00000  Uiso   1.00
H1128  H     0.26951   0.27051   0.83749   0.00000  Uiso   1.00
C1129  C     0.07762   0.04141   0.85780   0.00000  Uiso   1.00
H1130  H     0.08890   0.05920   0.89102   0.00000  Uiso   1.00
H1131  H     0.06384   0.06284   0.82921   0.00000  Uiso   1.00
H1132  H     0.04492   0.02033   0.86295   0.00000  Uiso   1.00
C1133  C     0.08779   0.11787   0.70214   0.00000  Uiso   1.00
H1134  H     0.06974   0.09543   0.67466   0.00000  Uiso   1.00
H1135  H     0.10000   0.09915   0.73314   0.00000  Uiso   1.00
H1136  H     0.05754   0.13877   0.70882   0.00000  Uiso   1.00
C1137  C     0.24554   0.21547   0.96452   0.00000  Uiso   1.00
H1138  H     0.26359   0.23790   0.99201   0.00000  Uiso   1.00
H1139  H     0.27580   0.19457   0.95785   0.00000  Uiso   1.00
H1140  H     0.23333   0.23418   0.93353   0.00000  Uiso   1.00
C1141  C     0.49907   0.08754   0.83312   0.00000  Uiso   1.00
C1142  C     0.50093   0.24579   0.83354   0.00000  Uiso   1.00
C1143  C     0.40158   0.16708   0.82151   0.00000  Uiso   1.00
C1144  C     0.59842   0.16625   0.84516   0.00000  Uiso   1.00
C1145  C     0.34734   0.17261   0.81596   0.00000  Uiso   1.00
C1146  C     0.65266   0.16073   0.85070   0.00000  Uiso   1.00
C1147  C     0.54196   0.02382   0.82100   0.00000  Uiso   1.00
C1148  C     0.45804   0.30951   0.84567   0.00000  Uiso   1.00
C1149  C     0.54331   0.31379   0.82124   0.00000  Uiso   1.00
C1150  C     0.45669   0.01955   0.84543   0.00000  Uiso   1.00
C1151  C     0.50104   0.29052   0.83363   0.00000  Uiso   1.00
C1152  C     0.49896   0.04281   0.83303   0.00000  Uiso   1.00
C1153  C     0.46457   0.14267   0.68574   0.00000  Uiso   1.00
C1154  C     0.53543   0.19066   0.98092   0.00000  Uiso   1.00
C1155  C     0.46566   0.14253   0.96990   0.00000  Uiso   1.00
C1156  C     0.53434   0.19080   0.69677   0.00000  Uiso   1.00
Cu1157 Cu    0.50000   0.16667   0.88022   0.00000  Uiso   1.00
Cu1158 Cu    0.50000   0.16666   0.78645   0.00000  Uiso   1.00
H1159  H     0.43868   0.12319   0.94678   0.00000  Uiso   1.00
H1160  H     0.56132   0.21015   0.71988   0.00000  Uiso   1.00
N1161  N     0.50001   0.16668   0.95069   0.00000  Uiso   1.00
N1162  N     0.49999   0.16666   0.71597   0.00000  Uiso   1.00
O1163  O     0.50000   0.10655   0.87291   0.00000  Uiso   1.00
O1164  O     0.50000   0.22678   0.79375   0.00000  Uiso   1.00
O1165  O     0.50000   0.10654   0.79372   0.00000  Uiso   1.00
O1166  O     0.50000   0.22679   0.87294   0.00000  Uiso   1.00
O1167  O     0.42495   0.16667   0.86379   0.00000  Uiso   1.00
O1168  O     0.57505   0.16666   0.80288   0.00000  Uiso   1.00
O1169  O     0.42494   0.16666   0.78460   0.00000  Uiso   1.00
O1170  O     0.57506   0.16667   0.88207   0.00000  Uiso   1.00
C1171  C     0.65933   0.19535   0.77195   0.00000  Uiso   1.00
H1172  H     0.35629   0.20999   0.75372   0.00000  Uiso   1.00
H1173  H     0.63671   0.17332   0.74660   0.00000  Uiso   1.00
H1174  H     0.63622   0.22103   0.78111   0.00000  Uiso   1.00
C1175  C     0.34067   0.13799   0.89472   0.00000  Uiso   1.00
H1176  H     0.64372   0.12335   0.91295   0.00000  Uiso   1.00
H1177  H     0.36377   0.11231   0.88556   0.00000  Uiso   1.00
H1178  H     0.36329   0.16002   0.92006   0.00000  Uiso   1.00
N1179  N     0.58400   0.04941   0.80939   0.00000  Uiso   1.00
H1180  H     0.59086   0.04162   0.77557   0.00000  Uiso   1.00
H1181  H     0.61631   0.04435   0.83364   0.00000  Uiso   1.00
N1182  N     0.41599   0.28392   0.85729   0.00000  Uiso   1.00
H1183  H     0.40913   0.29172   0.89112   0.00000  Uiso   1.00
H1184  H     0.38369   0.28898   0.83304   0.00000  Uiso   1.00
C1185  C     0.58906   0.29193   0.80888   0.00000  Uiso   1.00
H1186  H     0.57778   0.27412   0.77567   0.00000  Uiso   1.00
H1187  H     0.62176   0.31300   0.80372   0.00000  Uiso   1.00
H1188  H     0.60284   0.27051   0.83749   0.00000  Uiso   1.00
C1189  C     0.41095   0.04141   0.85780   0.00000  Uiso   1.00
H1190  H     0.42224   0.05920   0.89102   0.00000  Uiso   1.00
H1191  H     0.39717   0.06284   0.82921   0.00000  Uiso   1.00
H1192  H     0.37826   0.02033   0.86295   0.00000  Uiso   1.00
C1193  C     0.42113   0.11787   0.70214   0.00000  Uiso   1.00
H1194  H     0.40308   0.09543   0.67466   0.00000  Uiso   1.00
H1195  H     0.43333   0.09915   0.73314   0.00000  Uiso   1.00
H1196  H     0.39087   0.13877   0.70882   0.00000  Uiso   1.00
C1197  C     0.57887   0.21547   0.96452   0.00000  Uiso   1.00
H1198  H     0.59692   0.23790   0.99201   0.00000  Uiso   1.00
H1199  H     0.60913   0.19457   0.95785   0.00000  Uiso   1.00
H1200  H     0.56667   0.23418   0.93353   0.00000  Uiso   1.00
C1201  C     0.83240   0.08754   0.83312   0.00000  Uiso   1.00
C1202  C     0.83426   0.24579   0.83354   0.00000  Uiso   1.00
C1203  C     0.73492   0.16708   0.82151   0.00000  Uiso   1.00
C1204  C     0.93175   0.16625   0.84516   0.00000  Uiso   1.00
C1205  C     0.68067   0.17261   0.81596   0.00000  Uiso   1.00
C1206  C     0.98600   0.16073   0.85070   0.00000  Uiso   1.00
C1207  C     0.87530   0.02382   0.82100   0.00000  Uiso   1.00
C1208  C     0.79137   0.30951   0.84567   0.00000  Uiso   1.00
C1209  C     0.87664   0.31379   0.82124   0.00000  Uiso   1.00
C1210  C     0.79003   0.01955   0.84543   0.00000  Uiso   1.00
C1211  C     0.83437   0.29052   0.83363   0.00000  Uiso   1.00
C1212  C     0.83230   0.04281   0.83303   0.00000  Uiso   1.00
C1213  C     0.79790   0.14267   0.68574   0.00000  Uiso   1.00
C1214  C     0.86876   0.19066   0.98092   0.00000  Uiso   1.00
C1215  C     0.79899   0.14253   0.96990   0.00000  Uiso   1.00
C1216  C     0.86767   0.19080   0.69677   0.00000  Uiso   1.00
Cu1217 Cu    0.83333   0.16667   0.88022   0.00000  Uiso   1.00
Cu1218 Cu    0.83333   0.16666   0.78645   0.00000  Uiso   1.00
H1219  H     0.77202   0.12319   0.94678   0.00000  Uiso   1.00
H1220  H     0.89465   0.21015   0.71988   0.00000  Uiso   1.00
N1221  N     0.83335   0.16668   0.95069   0.00000  Uiso   1.00
N1222  N     0.83332   0.16666   0.71597   0.00000  Uiso   1.00
O1223  O     0.83333   0.10655   0.87291   0.00000  Uiso   1.00
O1224  O     0.83334   0.22678   0.79375   0.00000  Uiso   1.00
O1225  O     0.83333   0.10654   0.79372   0.00000  Uiso   1.00
O1226  O     0.83334   0.22679   0.87294   0.00000  Uiso   1.00
O1227  O     0.75828   0.16667   0.86379   0.00000  Uiso   1.00
O1228  O     0.90839   0.16666   0.80288   0.00000  Uiso   1.00
O1229  O     0.75828   0.16666   0.78460   0.00000  Uiso   1.00
O1230  O     0.90839   0.16667   0.88207   0.00000  Uiso   1.00
C1231  C     0.99266   0.19535   0.77195   0.00000  Uiso   1.00
H1232  H     0.68962   0.20999   0.75372   0.00000  Uiso   1.00
H1233  H     0.97004   0.17332   0.74660   0.00000  Uiso   1.00
H1234  H     0.96956   0.22103   0.78111   0.00000  Uiso   1.00
C1235  C     0.67400   0.13799   0.89472   0.00000  Uiso   1.00
H1236  H     0.97705   0.12335   0.91295   0.00000  Uiso   1.00
H1237  H     0.69711   0.11231   0.88556   0.00000  Uiso   1.00
H1238  H     0.69663   0.16002   0.92006   0.00000  Uiso   1.00
N1239  N     0.91734   0.04941   0.80939   0.00000  Uiso   1.00
H1240  H     0.92420   0.04162   0.77557   0.00000  Uiso   1.00
H1241  H     0.94964   0.04435   0.83364   0.00000  Uiso   1.00
N1242  N     0.74933   0.28392   0.85729   0.00000  Uiso   1.00
H1243  H     0.74247   0.29172   0.89112   0.00000  Uiso   1.00
H1244  H     0.71702   0.28898   0.83304   0.00000  Uiso   1.00
C1245  C     0.92239   0.29193   0.80888   0.00000  Uiso   1.00
H1246  H     0.91111   0.27412   0.77567   0.00000  Uiso   1.00
H1247  H     0.95509   0.31300   0.80372   0.00000  Uiso   1.00
H1248  H     0.93618   0.27051   0.83749   0.00000  Uiso   1.00
C1249  C     0.74428   0.04141   0.85780   0.00000  Uiso   1.00
H1250  H     0.75557   0.05920   0.89102   0.00000  Uiso   1.00
H1251  H     0.73050   0.06284   0.82921   0.00000  Uiso   1.00
H1252  H     0.71159   0.02033   0.86295   0.00000  Uiso   1.00
C1253  C     0.75446   0.11787   0.70214   0.00000  Uiso   1.00
H1254  H     0.73641   0.09543   0.67466   0.00000  Uiso   1.00
H1255  H     0.76667   0.09915   0.73314   0.00000  Uiso   1.00
H1256  H     0.72420   0.13877   0.70882   0.00000  Uiso   1.00
C1257  C     0.91221   0.21547   0.96452   0.00000  Uiso   1.00
H1258  H     0.93026   0.23790   0.99201   0.00000  Uiso   1.00
H1259  H     0.94246   0.19457   0.95785   0.00000  Uiso   1.00
H1260  H     0.90000   0.23418   0.93353   0.00000  Uiso   1.00
C1261  C     0.16573   0.42087   0.83312   0.00000  Uiso   1.00
C1262  C     0.16760   0.57913   0.83354   0.00000  Uiso   1.00
C1263  C     0.06825   0.50042   0.82151   0.00000  Uiso   1.00
C1264  C     0.26508   0.49958   0.84516   0.00000  Uiso   1.00
C1265  C     0.01400   0.50594   0.81596   0.00000  Uiso   1.00
C1266  C     0.31933   0.49406   0.85070   0.00000  Uiso   1.00
C1267  C     0.20863   0.35716   0.82100   0.00000  Uiso   1.00
C1268  C     0.12470   0.64284   0.84567   0.00000  Uiso   1.00
C1269  C     0.20998   0.64712   0.82124   0.00000  Uiso   1.00
C1270  C     0.12336   0.35288   0.84543   0.00000  Uiso   1.00
C1271  C     0.16770   0.62386   0.83363   0.00000  Uiso   1.00
C1272  C     0.16563   0.37614   0.83303   0.00000  Uiso   1.00
C1273  C     0.13124   0.47600   0.68574   0.00000  Uiso   1.00
C1274  C     0.20210   0.52400   0.98092   0.00000  Uiso   1.00
C1275  C     0.13233   0.47587   0.96990   0.00000  Uiso   1.00
C1276  C     0.20101   0.52413   0.69677   0.00000  Uiso   1.00
Cu1277 Cu    0.16667   0.50001   0.88022   0.00000  Uiso   1.00
Cu1278 Cu    0.16667   0.49999   0.78645   0.00000  Uiso   1.00
H1279  H     0.10535   0.45652   0.94678   0.00000  Uiso   1.00
H1280  H     0.22798   0.54348   0.71988   0.00000  Uiso   1.00
N1281  N     0.16668   0.50001   0.95069   0.00000  Uiso   1.00
N1282  N     0.16665   0.49999   0.71597   0.00000  Uiso   1.00
O1283  O     0.16666   0.43989   0.87291   0.00000  Uiso   1.00
O1284  O     0.16667   0.56011   0.79375   0.00000  Uiso   1.00
O1285  O     0.16666   0.43988   0.79372   0.00000  Uiso   1.00
O1286  O     0.16667   0.56012   0.87294   0.00000  Uiso   1.00
O1287  O     0.09161   0.50000   0.86379   0.00000  Uiso   1.00
O1288  O     0.24172   0.50000   0.80288   0.00000  Uiso   1.00
O1289  O     0.09161   0.49999   0.78460   0.00000  Uiso   1.00
O1290  O     0.24172   0.50001   0.88207   0.00000  Uiso   1.00
C1291  C     0.32600   0.52869   0.77195   0.00000  Uiso   1.00
H1292  H     0.02295   0.54333   0.75372   0.00000  Uiso   1.00
H1293  H     0.30338   0.50665   0.74660   0.00000  Uiso   1.00
H1294  H     0.30289   0.55436   0.78111   0.00000  Uiso   1.00
C1295  C     0.00734   0.47132   0.89472   0.00000  Uiso   1.00
H1296  H     0.31038   0.45668   0.91295   0.00000  Uiso   1.00
H1297  H     0.03044   0.44564   0.88556   0.00000  Uiso   1.00
H1298  H     0.02996   0.49336   0.92006   0.00000  Uiso   1.00
N1299  N     0.25067   0.38275   0.80939   0.00000  Uiso   1.00
H1300  H     0.25753   0.37496   0.77557   0.00000  Uiso   1.00
H1301  H     0.28297   0.37768   0.83364   0.00000  Uiso   1.00
N1302  N     0.08266   0.61725   0.85729   0.00000  Uiso   1.00
H1303  H     0.07580   0.62505   0.89112   0.00000  Uiso   1.00
H1304  H     0.05035   0.62231   0.83304   0.00000  Uiso   1.00
C1305  C     0.25573   0.62526   0.80888   0.00000  Uiso   1.00
H1306  H     0.24444   0.60745   0.77567   0.00000  Uiso   1.00
H1307  H     0.28842   0.64634   0.80372   0.00000  Uiso   1.00
H1308  H     0.26951   0.60385   0.83749   0.00000  Uiso   1.00
C1309  C     0.07762   0.37474   0.85780   0.00000  Uiso   1.00
H1310  H     0.08890   0.39253   0.89102   0.00000  Uiso   1.00
H1311  H     0.06384   0.39617   0.82921   0.00000  Uiso   1.00
H1312  H     0.04492   0.35366   0.86295   0.00000  Uiso   1.00
C1313  C     0.08779   0.45120   0.70214   0.00000  Uiso   1.00
H1314  H     0.06974   0.42876   0.67466   0.00000  Uiso   1.00
H1315  H     0.10000   0.43249   0.73314   0.00000  Uiso   1.00
H1316  H     0.05754   0.47210   0.70882   0.00000  Uiso   1.00
C1317  C     0.24554   0.54880   0.96452   0.00000  Uiso   1.00
H1318  H     0.26359   0.57124   0.99201   0.00000  Uiso   1.00
H1319  H     0.27580   0.52790   0.95785   0.00000  Uiso   1.00
H1320  H     0.23333   0.56752   0.93353   0.00000  Uiso   1.00
C1321  C     0.49907   0.42087   0.83312   0.00000  Uiso   1.00
C1322  C     0.50093   0.57913   0.83354   0.00000  Uiso   1.00
C1323  C     0.40158   0.50042   0.82151   0.00000  Uiso   1.00
C1324  C     0.59842   0.49958   0.84516   0.00000  Uiso   1.00
C1325  C     0.34734   0.50594   0.81596   0.00000  Uiso   1.00
C1326  C     0.65266   0.49406   0.85070   0.00000  Uiso   1.00
C1327  C     0.54196   0.35716   0.82100   0.00000  Uiso   1.00
C1328  C     0.45804   0.64284   0.84567   0.00000  Uiso   1.00
C1329  C     0.54331   0.64712   0.82124   0.00000  Uiso   1.00
C1330  C     0.45669   0.35288   0.84543   0.00000  Uiso   1.00
C1331  C     0.50104   0.62386   0.83363   0.00000  Uiso   1.00
C1332  C     0.49896   0.37614   0.83303   0.00000  Uiso   1.00
C1333  C     0.46457   0.47600   0.68574   0.00000  Uiso   1.00
C1334  C     0.53543   0.52400   0.98092   0.00000  Uiso   1.00
C1335  C     0.46566   0.47587   0.96990   0.00000  Uiso   1.00
C1336  C     0.53434   0.52413   0.69677   0.00000  Uiso   1.00
Cu1337 Cu    0.50000   0.50001   0.88022   0.00000  Uiso   1.00
Cu1338 Cu    0.50000   0.49999   0.78645   0.00000  Uiso   1.00
H1339  H     0.43868   0.45652   0.94678   0.00000  Uiso   1.00
H1340  H     0.56132   0.54348   0.71988   0.00000  Uiso   1.00
N1341  N     0.50001   0.50001   0.95069   0.00000  Uiso   1.00
N1342  N     0.49999   0.49999   0.71597   0.00000  Uiso   1.00
O1343  O     0.50000   0.43989   0.87291   0.00000  Uiso   1.00
O1344  O     0.50000   0.56011   0.79375   0.00000  Uiso   1.00
O1345  O     0.50000   0.43988   0.79372   0.00000  Uiso   1.00
O1346  O     0.50000   0.56012   0.87294   0.00000  Uiso   1.00
O1347  O     0.42495   0.50000   0.86379   0.00000  Uiso   1.00
O1348  O     0.57505   0.50000   0.80288   0.00000  Uiso   1.00
O1349  O     0.42494   0.49999   0.78460   0.00000  Uiso   1.00
O1350  O     0.57506   0.50001   0.88207   0.00000  Uiso   1.00
C1351  C     0.65933   0.52869   0.77195   0.00000  Uiso   1.00
H1352  H     0.35629   0.54333   0.75372   0.00000  Uiso   1.00
H1353  H     0.63671   0.50665   0.74660   0.00000  Uiso   1.00
H1354  H     0.63622   0.55436   0.78111   0.00000  Uiso   1.00
C1355  C     0.34067   0.47132   0.89472   0.00000  Uiso   1.00
H1356  H     0.64372   0.45668   0.91295   0.00000  Uiso   1.00
H1357  H     0.36377   0.44564   0.88556   0.00000  Uiso   1.00
H1358  H     0.36329   0.49336   0.92006   0.00000  Uiso   1.00
N1359  N     0.58400   0.38275   0.80939   0.00000  Uiso   1.00
H1360  H     0.59086   0.37496   0.77557   0.00000  Uiso   1.00
H1361  H     0.61631   0.37768   0.83364   0.00000  Uiso   1.00
N1362  N     0.41599   0.61725   0.85729   0.00000  Uiso   1.00
H1363  H     0.40913   0.62505   0.89112   0.00000  Uiso   1.00
H1364  H     0.38369   0.62231   0.83304   0.00000  Uiso   1.00
C1365  C     0.58906   0.62526   0.80888   0.00000  Uiso   1.00
H1366  H     0.57778   0.60745   0.77567   0.00000  Uiso   1.00
H1367  H     0.62176   0.64634   0.80372   0.00000  Uiso   1.00
H1368  H     0.60284   0.60385   0.83749   0.00000  Uiso   1.00
C1369  C     0.41095   0.37474   0.85780   0.00000  Uiso   1.00
H1370  H     0.42224   0.39253   0.89102   0.00000  Uiso   1.00
H1371  H     0.39717   0.39617   0.82921   0.00000  Uiso   1.00
H1372  H     0.37826   0.35366   0.86295   0.00000  Uiso   1.00
C1373  C     0.42113   0.45120   0.70214   0.00000  Uiso   1.00
H1374  H     0.40308   0.42876   0.67466   0.00000  Uiso   1.00
H1375  H     0.43333   0.43249   0.73314   0.00000  Uiso   1.00
H1376  H     0.39087   0.47210   0.70882   0.00000  Uiso   1.00
C1377  C     0.57887   0.54880   0.96452   0.00000  Uiso   1.00
H1378  H     0.59692   0.57124   0.99201   0.00000  Uiso   1.00
H1379  H     0.60913   0.52790   0.95785   0.00000  Uiso   1.00
H1380  H     0.56667   0.56752   0.93353   0.00000  Uiso   1.00
C1381  C     0.83240   0.42087   0.83312   0.00000  Uiso   1.00
C1382  C     0.83426   0.57913   0.83354   0.00000  Uiso   1.00
C1383  C     0.73492   0.50042   0.82151   0.00000  Uiso   1.00
C1384  C     0.93175   0.49958   0.84516   0.00000  Uiso   1.00
C1385  C     0.68067   0.50594   0.81596   0.00000  Uiso   1.00
C1386  C     0.98600   0.49406   0.85070   0.00000  Uiso   1.00
C1387  C     0.87530   0.35716   0.82100   0.00000  Uiso   1.00
C1388  C     0.79137   0.64284   0.84567   0.00000  Uiso   1.00
C1389  C     0.87664   0.64712   0.82124   0.00000  Uiso   1.00
C1390  C     0.79003   0.35288   0.84543   0.00000  Uiso   1.00
C1391  C     0.83437   0.62386   0.83363   0.00000  Uiso   1.00
C1392  C     0.83230   0.37614   0.83303   0.00000  Uiso   1.00
C1393  C     0.79790   0.47600   0.68574   0.00000  Uiso   1.00
C1394  C     0.86876   0.52400   0.98092   0.00000  Uiso   1.00
C1395  C     0.79899   0.47587   0.96990   0.00000  Uiso   1.00
C1396  C     0.86767   0.52413   0.69677   0.00000  Uiso   1.00
Cu1397 Cu    0.83333   0.50001   0.88022   0.00000  Uiso   1.00
Cu1398 Cu    0.83333   0.49999   0.78645   0.00000  Uiso   1.00
H1399  H     0.77202   0.45652   0.94678   0.00000  Uiso   1.00
H1400  H     0.89465   0.54348   0.71988   0.00000  Uiso   1.00
N1401  N     0.83335   0.50001   0.95069   0.00000  Uiso   1.00
N1402  N     0.83332   0.49999   0.71597   0.00000  Uiso   1.00
O1403  O     0.83333   0.43989   0.87291   0.00000  Uiso   1.00
O1404  O     0.83334   0.56011   0.79375   0.00000  Uiso   1.00
O1405  O     0.83333   0.43988   0.79372   0.00000  Uiso   1.00
O1406  O     0.83334   0.56012   0.87294   0.00000  Uiso   1.00
O1407  O     0.75828   0.50000   0.86379   0.00000  Uiso   1.00
O1408  O     0.90839   0.50000   0.80288   0.00000  Uiso   1.00
O1409  O     0.75828   0.49999   0.78460   0.00000  Uiso   1.00
O1410  O     0.90839   0.50001   0.88207   0.00000  Uiso   1.00
C1411  C     0.99266   0.52869   0.77195   0.00000  Uiso   1.00
H1412  H     0.68962   0.54333   0.75372   0.00000  Uiso   1.00
H1413  H     0.97004   0.50665   0.74660   0.00000  Uiso   1.00
H1414  H     0.96956   0.55436   0.78111   0.00000  Uiso   1.00
C1415  C     0.67400   0.47132   0.89472   0.00000  Uiso   1.00
H1416  H     0.97705   0.45668   0.91295   0.00000  Uiso   1.00
H1417  H     0.69711   0.44564   0.88556   0.00000  Uiso   1.00
H1418  H     0.69663   0.49336   0.92006   0.00000  Uiso   1.00
N1419  N     0.91734   0.38275   0.80939   0.00000  Uiso   1.00
H1420  H     0.92420   0.37496   0.77557   0.00000  Uiso   1.00
H1421  H     0.94964   0.37768   0.83364   0.00000  Uiso   1.00
N1422  N     0.74933   0.61725   0.85729   0.00000  Uiso   1.00
H1423  H     0.74247   0.62505   0.89112   0.00000  Uiso   1.00
H1424  H     0.71702   0.62231   0.83304   0.00000  Uiso   1.00
C1425  C     0.92239   0.62526   0.80888   0.00000  Uiso   1.00
H1426  H     0.91111   0.60745   0.77567   0.00000  Uiso   1.00
H1427  H     0.95509   0.64634   0.80372   0.00000  Uiso   1.00
H1428  H     0.93618   0.60385   0.83749   0.00000  Uiso   1.00
C1429  C     0.74428   0.37474   0.85780   0.00000  Uiso   1.00
H1430  H     0.75557   0.39253   0.89102   0.00000  Uiso   1.00
H1431  H     0.73050   0.39617   0.82921   0.00000  Uiso   1.00
H1432  H     0.71159   0.35366   0.86295   0.00000  Uiso   1.00
C1433  C     0.75446   0.45120   0.70214   0.00000  Uiso   1.00
H1434  H     0.73641   0.42876   0.67466   0.00000  Uiso   1.00
H1435  H     0.76667   0.43249   0.73314   0.00000  Uiso   1.00
H1436  H     0.72420   0.47210   0.70882   0.00000  Uiso   1.00
C1437  C     0.91221   0.54880   0.96452   0.00000  Uiso   1.00
H1438  H     0.93026   0.57124   0.99201   0.00000  Uiso   1.00
H1439  H     0.94246   0.52790   0.95785   0.00000  Uiso   1.00
H1440  H     0.90000   0.56752   0.93353   0.00000  Uiso   1.00
C1441  C     0.16573   0.75421   0.83312   0.00000  Uiso   1.00
C1442  C     0.16760   0.91246   0.83354   0.00000  Uiso   1.00
C1443  C     0.06825   0.83375   0.82151   0.00000  Uiso   1.00
C1444  C     0.26508   0.83292   0.84516   0.00000  Uiso   1.00
C1445  C     0.01400   0.83927   0.81596   0.00000  Uiso   1.00
C1446  C     0.31933   0.82740   0.85070   0.00000  Uiso   1.00
C1447  C     0.20863   0.69049   0.82100   0.00000  Uiso   1.00
C1448  C     0.12470   0.97618   0.84567   0.00000  Uiso   1.00
C1449  C     0.20998   0.98045   0.82124   0.00000  Uiso   1.00
C1450  C     0.12336   0.68621   0.84543   0.00000  Uiso   1.00
C1451  C     0.16770   0.95719   0.83363   0.00000  Uiso   1.00
C1452  C     0.16563   0.70948   0.83303   0.00000  Uiso   1.00
C1453  C     0.13124   0.80934   0.68574   0.00000  Uiso   1.00
C1454  C     0.20210   0.85733   0.98092   0.00000  Uiso   1.00
C1455  C     0.13233   0.80920   0.96990   0.00000  Uiso   1.00
C1456  C     0.20101   0.85747   0.69677   0.00000  Uiso   1.00
Cu1457 Cu    0.16667   0.83334   0.88022   0.00000  Uiso   1.00
Cu1458 Cu    0.16667   0.83333   0.78645   0.00000  Uiso   1.00
H1459  H     0.10535   0.78985   0.94678   0.00000  Uiso   1.00
H1460  H     0.22798   0.87681   0.71988   0.00000  Uiso   1.00
N1461  N     0.16668   0.83334   0.95069   0.00000  Uiso   1.00
N1462  N     0.16665   0.83332   0.71597   0.00000  Uiso   1.00
O1463  O     0.16666   0.77322   0.87291   0.00000  Uiso   1.00
O1464  O     0.16667   0.89345   0.79375   0.00000  Uiso   1.00
O1465  O     0.16666   0.77321   0.79372   0.00000  Uiso   1.00
O1466  O     0.16667   0.89346   0.87294   0.00000  Uiso   1.00
O1467  O     0.09161   0.83334   0.86379   0.00000  Uiso   1.00
O1468  O     0.24172   0.83333   0.80288   0.00000  Uiso   1.00
O1469  O     0.09161   0.83333   0.78460   0.00000  Uiso   1.00
O1470  O     0.24172   0.83334   0.88207   0.00000  Uiso   1.00
C1471  C     0.32600   0.86202   0.77195   0.00000  Uiso   1.00
H1472  H     0.02295   0.87666   0.75372   0.00000  Uiso   1.00
H1473  H     0.30338   0.83998   0.74660   0.00000  Uiso   1.00
H1474  H     0.30289   0.88769   0.78111   0.00000  Uiso   1.00
C1475  C     0.00734   0.80465   0.89472   0.00000  Uiso   1.00
H1476  H     0.31038   0.79002   0.91295   0.00000  Uiso   1.00
H1477  H     0.03044   0.77898   0.88556   0.00000  Uiso   1.00
H1478  H     0.02996   0.82669   0.92006   0.00000  Uiso   1.00
N1479  N     0.25067   0.71608   0.80939   0.00000  Uiso   1.00
H1480  H     0.25753   0.70829   0.77557   0.00000  Uiso   1.00
H1481  H     0.28297   0.71101   0.83364   0.00000  Uiso   1.00
N1482  N     0.08266   0.95059   0.85729   0.00000  Uiso   1.00
H1483  H     0.07580   0.95838   0.89112   0.00000  Uiso   1.00
H1484  H     0.05035   0.95565   0.83304   0.00000  Uiso   1.00
C1485  C     0.25573   0.95859   0.80888   0.00000  Uiso   1.00
H1486  H     0.24444   0.94079   0.77567   0.00000  Uiso   1.00
H1487  H     0.28842   0.97967   0.80372   0.00000  Uiso   1.00
H1488  H     0.26951   0.93718   0.83749   0.00000  Uiso   1.00
C1489  C     0.07762   0.70807   0.85780   0.00000  Uiso   1.00
H1490  H     0.08890   0.72586   0.89102   0.00000  Uiso   1.00
H1491  H     0.06384   0.72950   0.82921   0.00000  Uiso   1.00
H1492  H     0.04492   0.68700   0.86295   0.00000  Uiso   1.00
C1493  C     0.08779   0.78453   0.70214   0.00000  Uiso   1.00
H1494  H     0.06974   0.76210   0.67466   0.00000  Uiso   1.00
H1495  H     0.10000   0.76582   0.73314   0.00000  Uiso   1.00
H1496  H     0.05754   0.80543   0.70882   0.00000  Uiso   1.00
C1497  C     0.24554   0.88214   0.96452   0.00000  Uiso   1.00
H1498  H     0.26359   0.90457   0.99201   0.00000  Uiso   1.00
H1499  H     0.27580   0.86124   0.95785   0.00000  Uiso   1.00
H1500  H     0.23333   0.90085   0.93353   0.00000  Uiso   1.00
C1501  C     0.49907   0.75421   0.83312   0.00000  Uiso   1.00
C1502  C     0.50093   0.91246   0.83354   0.00000  Uiso   1.00
C1503  C     0.40158   0.83375   0.82151   0.00000  Uiso   1.00
C1504  C     0.59842   0.83292   0.84516   0.00000  Uiso   1.00
C1505  C     0.34734   0.83927   0.81596   0.00000  Uiso   1.00
C1506  C     0.65266   0.82740   0.85070   0.00000  Uiso   1.00
C1507  C     0.54196   0.69049   0.82100   0.00000  Uiso   1.00
C1508  C     0.45804   0.97618   0.84567   0.00000  Uiso   1.00
C1509  C     0.54331   0.98045   0.82124   0.00000  Uiso   1.00
C1510  C     0.45669   0.68621   0.84543   0.00000  Uiso   1.00
C1511  C     0.50104   0.95719   0.83363   0.00000  Uiso   1.00
C1512  C     0.49896   0.70948   0.83303   0.00000  Uiso   1.00
C1513  C     0.46457   0.80934   0.68574   0.00000  Uiso   1.00
C1514  C     0.53543   0.85733   0.98092   0.00000  Uiso   1.00
C1515  C     0.46566   0.80920   0.96990   0.00000  Uiso   1.00
C1516  C     0.53434   0.85747   0.69677   0.00000  Uiso   1.00
Cu1517 Cu    0.50000   0.83334   0.88022   0.00000  Uiso   1.00
Cu1518 Cu    0.50000   0.83333   0.78645   0.00000  Uiso   1.00
H1519  H     0.43868   0.78985   0.94678   0.00000  Uiso   1.00
H1520  H     0.56132   0.87681   0.71988   0.00000  Uiso   1.00
N1521  N     0.50001   0.83334   0.95069   0.00000  Uiso   1.00
N1522  N     0.49999   0.83332   0.71597   0.00000  Uiso   1.00
O1523  O     0.50000   0.77322   0.87291   0.00000  Uiso   1.00
O1524  O     0.50000   0.89345   0.79375   0.00000  Uiso   1.00
O1525  O     0.50000   0.77321   0.79372   0.00000  Uiso   1.00
O1526  O     0.50000   0.89346   0.87294   0.00000  Uiso   1.00
O1527  O     0.42495   0.83334   0.86379   0.00000  Uiso   1.00
O1528  O     0.57505   0.83333   0.80288   0.00000  Uiso   1.00
O1529  O     0.42494   0.83333   0.78460   0.00000  Uiso   1.00
O1530  O     0.57506   0.83334   0.88207   0.00000  Uiso   1.00
C1531  C     0.65933   0.86202   0.77195   0.00000  Uiso   1.00
H1532  H     0.35629   0.87666   0.75372   0.00000  Uiso   1.00
H1533  H     0.63671   0.83998   0.74660   0.00000  Uiso   1.00
H1534  H     0.63622   0.88769   0.78111   0.00000  Uiso   1.00
C1535  C     0.34067   0.80465   0.89472   0.00000  Uiso   1.00
H1536  H     0.64372   0.79002   0.91295   0.00000  Uiso   1.00
H1537  H     0.36377   0.77898   0.88556   0.00000  Uiso   1.00
H1538  H     0.36329   0.82669   0.92006   0.00000  Uiso   1.00
N1539  N     0.58400   0.71608   0.80939   0.00000  Uiso   1.00
H1540  H     0.59086   0.70829   0.77557   0.00000  Uiso   1.00
H1541  H     0.61631   0.71101   0.83364   0.00000  Uiso   1.00
N1542  N     0.41599   0.95059   0.85729   0.00000  Uiso   1.00
H1543  H     0.40913   0.95838   0.89112   0.00000  Uiso   1.00
H1544  H     0.38369   0.95565   0.83304   0.00000  Uiso   1.00
C1545  C     0.58906   0.95859   0.80888   0.00000  Uiso   1.00
H1546  H     0.57778   0.94079   0.77567   0.00000  Uiso   1.00
H1547  H     0.62176   0.97967   0.80372   0.00000  Uiso   1.00
H1548  H     0.60284   0.93718   0.83749   0.00000  Uiso   1.00
C1549  C     0.41095   0.70807   0.85780   0.00000  Uiso   1.00
H1550  H     0.42224   0.72586   0.89102   0.00000  Uiso   1.00
H1551  H     0.39717   0.72950   0.82921   0.00000  Uiso   1.00
H1552  H     0.37826   0.68700   0.86295   0.00000  Uiso   1.00
C1553  C     0.42113   0.78453   0.70214   0.00000  Uiso   1.00
H1554  H     0.40308   0.76210   0.67466   0.00000  Uiso   1.00
H1555  H     0.43333   0.76582   0.73314   0.00000  Uiso   1.00
H1556  H     0.39087   0.80543   0.70882   0.00000  Uiso   1.00
C1557  C     0.57887   0.88214   0.96452   0.00000  Uiso   1.00
H1558  H     0.59692   0.90457   0.99201   0.00000  Uiso   1.00
H1559  H     0.60913   0.86124   0.95785   0.00000  Uiso   1.00
H1560  H     0.56667   0.90085   0.93353   0.00000  Uiso   1.00
C1561  C     0.83240   0.75421   0.83312   0.00000  Uiso   1.00
C1562  C     0.83426   0.91246   0.83354   0.00000  Uiso   1.00
C1563  C     0.73492   0.83375   0.82151   0.00000  Uiso   1.00
C1564  C     0.93175   0.83292   0.84516   0.00000  Uiso   1.00
C1565  C     0.68067   0.83927   0.81596   0.00000  Uiso   1.00
C1566  C     0.98600   0.82740   0.85070   0.00000  Uiso   1.00
C1567  C     0.87530   0.69049   0.82100   0.00000  Uiso   1.00
C1568  C     0.79137   0.97618   0.84567   0.00000  Uiso   1.00
C1569  C     0.87664   0.98045   0.82124   0.00000  Uiso   1.00
C1570  C     0.79003   0.68621   0.84543   0.00000  Uiso   1.00
C1571  C     0.83437   0.95719   0.83363   0.00000  Uiso   1.00
C1572  C     0.83230   0.70948   0.83303   0.00000  Uiso   1.00
C1573  C     0.79790   0.80934   0.68574   0.00000  Uiso   1.00
C1574  C     0.86876   0.85733   0.98092   0.00000  Uiso   1.00
C1575  C     0.79899   0.80920   0.96990   0.00000  Uiso   1.00
C1576  C     0.86767   0.85747   0.69677   0.00000  Uiso   1.00
Cu1577 Cu    0.83333   0.83334   0.88022   0.00000  Uiso   1.00
Cu1578 Cu    0.83333   0.83333   0.78645   0.00000  Uiso   1.00
H1579  H     0.77202   0.78985   0.94678   0.00000  Uiso   1.00
H1580  H     0.89465   0.87681   0.71988   0.00000  Uiso   1.00
N1581  N     0.83335   0.83334   0.95069   0.00000  Uiso   1.00
N1582  N     0.83332   0.83332   0.71597   0.00000  Uiso   1.00
O1583  O     0.83333   0.77322   0.87291   0.00000  Uiso   1.00
O1584  O     0.83334   0.89345   0.79375   0.00000  Uiso   1.00
O1585  O     0.83333   0.77321   0.79372   0.00000  Uiso   1.00
O1586  O     0.83334   0.89346   0.87294   0.00000  Uiso   1.00
O1587  O     0.75828   0.83334   0.86379   0.00000  Uiso   1.00
O1588  O     0.90839   0.83333   0.80288   0.00000  Uiso   1.00
O1589  O     0.75828   0.83333   0.78460   0.00000  Uiso   1.00
O1590  O     0.90839   0.83334   0.88207   0.00000  Uiso   1.00
C1591  C     0.99266   0.86202   0.77195   0.00000  Uiso   1.00
H1592  H     0.68962   0.87666   0.75372   0.00000  Uiso   1.00
H1593  H     0.97004   0.83998   0.74660   0.00000  Uiso   1.00
H1594  H     0.96956   0.88769   0.78111   0.00000  Uiso   1.00
C1595  C     0.67400   0.80465   0.89472   0.00000  Uiso   1.00
H1596  H     0.97705   0.79002   0.91295   0.00000  Uiso   1.00
H1597  H     0.69711   0.77898   0.88556   0.00000  Uiso   1.00
H1598  H     0.69663   0.82669   0.92006   0.00000  Uiso   1.00
N1599  N     0.91734   0.71608   0.80939   0.00000  Uiso   1.00
H1600  H     0.92420   0.70829   0.77557   0.00000  Uiso   1.00
H1601  H     0.94964   0.71101   0.83364   0.00000  Uiso   1.00
N1602  N     0.74933   0.95059   0.85729   0.00000  Uiso   1.00
H1603  H     0.74247   0.95838   0.89112   0.00000  Uiso   1.00
H1604  H     0.71702   0.95565   0.83304   0.00000  Uiso   1.00
C1605  C     0.92239   0.95859   0.80888   0.00000  Uiso   1.00
H1606  H     0.91111   0.94079   0.77567   0.00000  Uiso   1.00
H1607  H     0.95509   0.97967   0.80372   0.00000  Uiso   1.00
H1608  H     0.93618   0.93718   0.83749   0.00000  Uiso   1.00
C1609  C     0.74428   0.70807   0.85780   0.00000  Uiso   1.00
H1610  H     0.75557   0.72586   0.89102   0.00000  Uiso   1.00
H1611  H     0.73050   0.72950   0.82921   0.00000  Uiso   1.00
H1612  H     0.71159   0.68700   0.86295   0.00000  Uiso   1.00
C1613  C     0.75446   0.78453   0.70214   0.00000  Uiso   1.00
H1614  H     0.73641   0.76210   0.67466   0.00000  Uiso   1.00
H1615  H     0.76667   0.76582   0.73314   0.00000  Uiso   1.00
H1616  H     0.72420   0.80543   0.70882   0.00000  Uiso   1.00
C1617  C     0.91221   0.88214   0.96452   0.00000  Uiso   1.00
H1618  H     0.93026   0.90457   0.99201   0.00000  Uiso   1.00
H1619  H     0.94246   0.86124   0.95785   0.00000  Uiso   1.00
H1620  H     0.90000   0.90085   0.93353   0.00000  Uiso   1.00
loop_
_geom_bond_atom_site_label_1
_geom_bond_atom_site_label_2
_geom_bond_distance
_geom_bond_site_symmetry_2
_ccdc_geom_bond_type
C1     O25     1.295   .     A
C1     C12     1.446   .     S
C1     O23     1.292   .     A
C2     O24     1.292   .     A
C2     C11     1.446   .     S
C2     O26     1.295   .     A
C3     O27     1.285   .     A
C3     O29     1.303   .     A
C3     C5      1.445   .     S
C4     C6      1.445   .     S
C4     O28     1.285   .     A
C4     O30     1.303   .     A
C5     C126    1.373   1_455 S
C5     C151    1.520   1_455 S
C6     C65     1.373   .     S
C6     C95     1.520   .     S
C7     C12     1.403   .     A
C7     N39     1.438   .     S
C7     C369    1.404   1_545 S
C8     C11     1.403   .     A
C8     N42     1.438   .     S
C8     C190    1.404   .     S
C9     C45     1.514   .     S
C9     C11     1.411   .     A
C9     C187    1.404   .     S
C10    C12     1.411   .     A
C10    C49     1.514   .     S
C10    C368    1.404   1_545 S
C13    N22     1.392   .     A
C13    C53     1.507   .     S
C13    C1095   1.418   1_554 S
C14    N21     1.392   .     A
C14    C57     1.507   .     S
C14    C556    1.418   .     S
C15    H19     1.080   .     S
C15    N21     1.353   .     A
C15    C553    1.418   .     S
C16    H20     1.080   .     S
C16    N22     1.353   .     A
C16    C1094   1.418   1_554 S
Cu17   Cu18    2.696   .     S
Cu17   O30     1.985   .     S
Cu17   O23     1.954   .     S
Cu17   O26     1.956   .     S
Cu17   O27     1.981   .     S
Cu17   N21     2.026   .     S
Cu18   O29     1.985   .     S
Cu18   O25     1.956   .     S
Cu18   O24     1.954   .     S
Cu18   O28     1.981   .     S
Cu18   N22     2.026   .     S
C31    H33     1.109   .     S
C31    H34     1.105   .     S
C31    C65     1.520   .     S
C31    H92     1.110   .     S
H32    C151    1.110   1_455 S
C35    H38     1.109   .     S
C35    H37     1.105   .     S
C35    C126    1.520   1_455 S
C35    H156    1.110   1_455 S
H36    C95     1.110   .     S
N39    H41     1.045   .     S
N39    H40     1.045   .     S
N42    H44     1.046   .     S
N42    H43     1.046   .     S
C45    H46     1.109   .     S
C45    H47     1.107   .     S
C45    H48     1.111   .     S
C49    H52     1.106   .     S
C49    H50     1.109   .     S
C49    H51     1.111   .     S
C53    H55     1.099   .     S
C53    H56     1.108   .     S
C53    H54     1.111   .     S
C57    H58     1.111   .     S
C57    H59     1.108   .     S
C57    H60     1.099   .     S
C61    O85     1.295   .     A
C61    C72     1.446   .     S
C61    O83     1.292   .     A
C62    O84     1.292   .     A
C62    C71     1.446   .     S
C62    O86     1.295   .     A
C63    O87     1.285   .     A
C63    O89     1.303   .     A
C63    C65     1.445   .     S
C64    C66     1.445   .     S
C64    O88     1.285   .     A
C64    O90     1.303   .     A
C66    C125    1.373   .     S
C66    C155    1.520   .     S
C67    C72     1.403   .     A
C67    N99     1.438   .     S
C67    C429    1.404   1_545 S
C68    C71     1.403   .     A
C68    N102    1.438   .     S
C68    C250    1.404   .     S
C69    C105    1.514   .     S
C69    C71     1.411   .     A
C69    C247    1.404   .     S
C70    C72     1.411   .     A
C70    C109    1.514   .     S
C70    C428    1.404   1_545 S
C73    N82     1.392   .     A
C73    C113    1.507   .     S
C73    C1155   1.418   1_554 S
C74    N81     1.392   .     A
C74    C117    1.507   .     S
C74    C616    1.418   .     S
C75    H79     1.080   .     S
C75    N81     1.353   .     A
C75    C613    1.418   .     S
C76    H80     1.080   .     S
C76    N82     1.353   .     A
C76    C1154   1.418   1_554 S
Cu77   Cu78    2.696   .     S
Cu77   O90     1.985   .     S
Cu77   O83     1.954   .     S
Cu77   O86     1.956   .     S
Cu77   O87     1.981   .     S
Cu77   N81     2.026   .     S
Cu78   O89     1.985   .     S
Cu78   O85     1.956   .     S
Cu78   O84     1.954   .     S
Cu78   O88     1.981   .     S
Cu78   N82     2.026   .     S
C91    H93     1.109   .     S
C91    H94     1.105   .     S
C91    C125    1.520   .     S
C91    H152    1.110   .     S
C95    H98     1.109   .     S
C95    H97     1.105   .     S
H96    C155    1.110   .     S
N99    H101    1.045   .     S
N99    H100    1.045   .     S
N102   H104    1.046   .     S
N102   H103    1.046   .     S
C105   H106    1.109   .     S
C105   H107    1.107   .     S
C105   H108    1.111   .     S
C109   H112    1.106   .     S
C109   H110    1.109   .     S
C109   H111    1.111   .     S
C113   H115    1.099   .     S
C113   H116    1.108   .     S
C113   H114    1.111   .     S
C117   H118    1.111   .     S
C117   H119    1.108   .     S
C117   H120    1.099   .     S
C121   O145    1.295   .     A
C121   C132    1.446   .     S
C121   O143    1.292   .     A
C122   O144    1.292   .     A
C122   C131    1.446   .     S
C122   O146    1.295   .     A
C123   O147    1.285   .     A
C123   O149    1.303   .     A
C123   C125    1.445   .     S
C124   C126    1.445   .     S
C124   O148    1.285   .     A
C124   O150    1.303   .     A
C126   C5      1.373   1_655 S
C126   C35     1.520   1_655 S
C127   C132    1.403   .     A
C127   N159    1.438   .     S
C127   C489    1.404   1_545 S
C128   C131    1.403   .     A
C128   N162    1.438   .     S
C128   C310    1.404   .     S
C129   C165    1.514   .     S
C129   C131    1.411   .     A
C129   C307    1.404   .     S
C130   C132    1.411   .     A
C130   C169    1.514   .     S
C130   C488    1.404   1_545 S
C133   N142    1.392   .     A
C133   C173    1.507   .     S
C133   C1215   1.418   1_554 S
C134   N141    1.392   .     A
C134   C177    1.507   .     S
C134   C676    1.418   .     S
C135   H139    1.080   .     S
C135   N141    1.353   .     A
C135   C673    1.418   .     S
C136   H140    1.080   .     S
C136   N142    1.353   .     A
C136   C1214   1.418   1_554 S
Cu137  Cu138   2.696   .     S
Cu137  O150    1.985   .     S
Cu137  O143    1.954   .     S
Cu137  O146    1.956   .     S
Cu137  O147    1.981   .     S
Cu137  N141    2.026   .     S
Cu138  O149    1.985   .     S
Cu138  O145    1.956   .     S
Cu138  O144    1.954   .     S
Cu138  O148    1.981   .     S
Cu138  N142    2.026   .     S
C151   H153    1.109   .     S
C151   H154    1.105   .     S
C151   C5      1.520   1_655 S
C151   H32     1.110   1_655 S
C155   H158    1.109   .     S
C155   H157    1.105   .     S
H156   C35     1.110   1_655 S
N159   H161    1.045   .     S
N159   H160    1.045   .     S
N162   H164    1.046   .     S
N162   H163    1.046   .     S
C165   H166    1.109   .     S
C165   H167    1.107   .     S
C165   H168    1.111   .     S
C169   H172    1.106   .     S
C169   H170    1.109   .     S
C169   H171    1.111   .     S
C173   H175    1.099   .     S
C173   H176    1.108   .     S
C173   H174    1.111   .     S
C177   H178    1.111   .     S
C177   H179    1.108   .     S
C177   H180    1.099   .     S
C181   O205    1.295   .     A
C181   C192    1.446   .     S
C181   O203    1.292   .     A
C182   O204    1.292   .     A
C182   C191    1.446   .     S
C182   O206    1.295   .     A
C183   O207    1.285   .     A
C183   O209    1.303   .     A
C183   C185    1.445   .     S
C184   C186    1.445   .     S
C184   O208    1.285   .     A
C184   O210    1.303   .     A
C185   C306    1.373   1_455 S
C185   C331    1.520   1_455 S
C186   C245    1.373   .     S
C186   C275    1.520   .     S
C187   C192    1.403   .     A
C187   N219    1.438   .     S
C188   C191    1.403   .     A
C188   N222    1.438   .     S
C188   C370    1.404   .     S
C189   C225    1.514   .     S
C189   C191    1.411   .     A
C189   C367    1.404   .     S
C190   C192    1.411   .     A
C190   C229    1.514   .     S
C193   N202    1.392   .     A
C193   C233    1.507   .     S
C193   C1275   1.418   1_554 S
C194   N201    1.392   .     A
C194   C237    1.507   .     S
C194   C736    1.418   .     S
C195   H199    1.080   .     S
C195   N201    1.353   .     A
C195   C733    1.418   .     S
C196   H200    1.080   .     S
C196   N202    1.353   .     A
C196   C1274   1.418   1_554 S
Cu197  Cu198   2.696   .     S
Cu197  O210    1.985   .     S
Cu197  O203    1.954   .     S
Cu197  O206    1.956   .     S
Cu197  O207    1.981   .     S
Cu197  N201    2.026   .     S
Cu198  O209    1.985   .     S
Cu198  O205    1.956   .     S
Cu198  O204    1.954   .     S
Cu198  O208    1.981   .     S
Cu198  N202    2.026   .     S
C211   H213    1.109   .     S
C211   H214    1.105   .     S
C211   C245    1.520   .     S
C211   H272    1.110   .     S
H212   C331    1.110   1_455 S
C215   H218    1.109   .     S
C215   H217    1.105   .     S
C215   C306    1.520   1_455 S
C215   H336    1.110   1_455 S
H216   C275    1.110   .     S
N219   H221    1.045   .     S
N219   H220    1.045   .     S
N222   H224    1.046   .     S
N222   H223    1.046   .     S
C225   H226    1.109   .     S
C225   H227    1.107   .     S
C225   H228    1.111   .     S
C229   H232    1.106   .     S
C229   H230    1.109   .     S
C229   H231    1.111   .     S
C233   H235    1.099   .     S
C233   H236    1.108   .     S
C233   H234    1.111   .     S
C237   H238    1.111   .     S
C237   H239    1.108   .     S
C237   H240    1.099   .     S
C241   O265    1.295   .     A
C241   C252    1.446   .     S
C241   O263    1.292   .     A
C242   O264    1.292   .     A
C242   C251    1.446   .     S
C242   O266    1.295   .     A
C243   O267    1.285   .     A
C243   O269    1.303   .     A
C243   C245    1.445   .     S
C244   C246    1.445   .     S
C244   O268    1.285   .     A
C244   O270    1.303   .     A
C246   C305    1.373   .     S
C246   C335    1.520   .     S
C247   C252    1.403   .     A
C247   N279    1.438   .     S
C248   C251    1.403   .     A
C248   N282    1.438   .     S
C248   C430    1.404   .     S
C249   C285    1.514   .     S
C249   C251    1.411   .     A
C249   C427    1.404   .     S
C250   C252    1.411   .     A
C250   C289    1.514   .     S
C253   N262    1.392   .     A
C253   C293    1.507   .     S
C253   C1335   1.418   1_554 S
C254   N261    1.392   .     A
C254   C297    1.507   .     S
C254   C796    1.418   .     S
C255   H259    1.080   .     S
C255   N261    1.353   .     A
C255   C793    1.418   .     S
C256   H260    1.080   .     S
C256   N262    1.353   .     A
C256   C1334   1.418   1_554 S
Cu257  Cu258   2.696   .     S
Cu257  O270    1.985   .     S
Cu257  O263    1.954   .     S
Cu257  O266    1.956   .     S
Cu257  O267    1.981   .     S
Cu257  N261    2.026   .     S
Cu258  O269    1.985   .     S
Cu258  O265    1.956   .     S
Cu258  O264    1.954   .     S
Cu258  O268    1.981   .     S
Cu258  N262    2.026   .     S
C271   H273    1.109   .     S
C271   H274    1.105   .     S
C271   C305    1.520   .     S
C271   H332    1.110   .     S
C275   H278    1.109   .     S
C275   H277    1.105   .     S
H276   C335    1.110   .     S
N279   H281    1.045   .     S
N279   H280    1.045   .     S
N282   H284    1.046   .     S
N282   H283    1.046   .     S
C285   H286    1.109   .     S
C285   H287    1.107   .     S
C285   H288    1.111   .     S
C289   H292    1.106   .     S
C289   H290    1.109   .     S
C289   H291    1.111   .     S
C293   H295    1.099   .     S
C293   H296    1.108   .     S
C293   H294    1.111   .     S
C297   H298    1.111   .     S
C297   H299    1.108   .     S
C297   H300    1.099   .     S
C301   O325    1.295   .     A
C301   C312    1.446   .     S
C301   O323    1.292   .     A
C302   O324    1.292   .     A
C302   C311    1.446   .     S
C302   O326    1.295   .     A
C303   O327    1.285   .     A
C303   O329    1.303   .     A
C303   C305    1.445   .     S
C304   C306    1.445   .     S
C304   O328    1.285   .     A
C304   O330    1.303   .     A
C306   C185    1.373   1_655 S
C306   C215    1.520   1_655 S
C307   C312    1.403   .     A
C307   N339    1.438   .     S
C308   C311    1.403   .     A
C308   N342    1.438   .     S
C308   C490    1.404   .     S
C309   C345    1.514   .     S
C309   C311    1.411   .     A
C309   C487    1.404   .     S
C310   C312    1.411   .     A
C310   C349    1.514   .     S
C313   N322    1.392   .     A
C313   C353    1.507   .     S
C313   C1395   1.418   1_554 S
C314   N321    1.392   .     A
C314   C357    1.507   .     S
C314   C856    1.418   .     S
C315   H319    1.080   .     S
C315   N321    1.353   .     A
C315   C853    1.418   .     S
C316   H320    1.080   .     S
C316   N322    1.353   .     A
C316   C1394   1.418   1_554 S
Cu317  Cu318   2.696   .     S
Cu317  O330    1.985   .     S
Cu317  O323    1.954   .     S
Cu317  O326    1.956   .     S
Cu317  O327    1.981   .     S
Cu317  N321    2.026   .     S
Cu318  O329    1.985   .     S
Cu318  O325    1.956   .     S
Cu318  O324    1.954   .     S
Cu318  O328    1.981   .     S
Cu318  N322    2.026   .     S
C331   H333    1.109   .     S
C331   H334    1.105   .     S
C331   C185    1.520   1_655 S
C331   H212    1.110   1_655 S
C335   H338    1.109   .     S
C335   H337    1.105   .     S
H336   C215    1.110   1_655 S
N339   H341    1.045   .     S
N339   H340    1.045   .     S
N342   H344    1.046   .     S
N342   H343    1.046   .     S
C345   H346    1.109   .     S
C345   H347    1.107   .     S
C345   H348    1.111   .     S
C349   H352    1.106   .     S
C349   H350    1.109   .     S
C349   H351    1.111   .     S
C353   H355    1.099   .     S
C353   H356    1.108   .     S
C353   H354    1.111   .     S
C357   H358    1.111   .     S
C357   H359    1.108   .     S
C357   H360    1.099   .     S
C361   O385    1.295   .     A
C361   C372    1.446   .     S
C361   O383    1.292   .     A
C362   O384    1.292   .     A
C362   C371    1.446   .     S
C362   O386    1.295   .     A
C363   O387    1.285   .     A
C363   O389    1.303   .     A
C363   C365    1.445   .     S
C364   C366    1.445   .     S
C364   O388    1.285   .     A
C364   O390    1.303   .     A
C365   C486    1.373   1_455 S
C365   C511    1.520   1_455 S
C366   C425    1.373   .     S
C366   C455    1.520   .     S
C367   C372    1.403   .     A
C367   N399    1.438   .     S
C368   C371    1.403   .     A
C368   N402    1.438   .     S
C368   C10     1.404   1_565 S
C369   C405    1.514   .     S
C369   C371    1.411   .     A
C369   C7      1.404   1_565 S
C370   C372    1.411   .     A
C370   C409    1.514   .     S
C373   N382    1.392   .     A
C373   C413    1.507   .     S
C373   C1455   1.418   1_554 S
C374   N381    1.392   .     A
C374   C417    1.507   .     S
C374   C916    1.418   .     S
C375   H379    1.080   .     S
C375   N381    1.353   .     A
C375   C913    1.418   .     S
C376   H380    1.080   .     S
C376   N382    1.353   .     A
C376   C1454   1.418   1_554 S
Cu377  Cu378   2.696   .     S
Cu377  O390    1.985   .     S
Cu377  O383    1.954   .     S
Cu377  O386    1.956   .     S
Cu377  O387    1.981   .     S
Cu377  N381    2.026   .     S
Cu378  O389    1.985   .     S
Cu378  O385    1.956   .     S
Cu378  O384    1.954   .     S
Cu378  O388    1.981   .     S
Cu378  N382    2.026   .     S
C391   H393    1.109   .     S
C391   H394    1.105   .     S
C391   C425    1.520   .     S
C391   H452    1.110   .     S
H392   C511    1.110   1_455 S
C395   H398    1.109   .     S
C395   H397    1.105   .     S
C395   C486    1.520   1_455 S
C395   H516    1.110   1_455 S
H396   C455    1.110   .     S
N399   H401    1.045   .     S
N399   H400    1.045   .     S
N402   H404    1.046   .     S
N402   H403    1.046   .     S
C405   H406    1.109   .     S
C405   H407    1.107   .     S
C405   H408    1.111   .     S
C409   H412    1.106   .     S
C409   H410    1.109   .     S
C409   H411    1.111   .     S
C413   H415    1.099   .     S
C413   H416    1.108   .     S
C413   H414    1.111   .     S
C417   H418    1.111   .     S
C417   H419    1.108   .     S
C417   H420    1.099   .     S
C421   O445    1.295   .     A
C421   C432    1.446   .     S
C421   O443    1.292   .     A
C422   O444    1.292   .     A
C422   C431    1.446   .     S
C422   O446    1.295   .     A
C423   O447    1.285   .     A
C423   O449    1.303   .     A
C423   C425    1.445   .     S
C424   C426    1.445   .     S
C424   O448    1.285   .     A
C424   O450    1.303   .     A
C426   C485    1.373   .     S
C426   C515    1.520   .     S
C427   C432    1.403   .     A
C427   N459    1.438   .     S
C428   C431    1.403   .     A
C428   N462    1.438   .     S
C428   C70     1.404   1_565 S
C429   C465    1.514   .     S
C429   C431    1.411   .     A
C429   C67     1.404   1_565 S
C430   C432    1.411   .     A
C430   C469    1.514   .     S
C433   N442    1.392   .     A
C433   C473    1.507   .     S
C433   C1515   1.418   1_554 S
C434   N441    1.392   .     A
C434   C477    1.507   .     S
C434   C976    1.418   .     S
C435   H439    1.080   .     S
C435   N441    1.353   .     A
C435   C973    1.418   .     S
C436   H440    1.080   .     S
C436   N442    1.353   .     A
C436   C1514   1.418   1_554 S
Cu437  Cu438   2.696   .     S
Cu437  O450    1.985   .     S
Cu437  O443    1.954   .     S
Cu437  O446    1.956   .     S
Cu437  O447    1.981   .     S
Cu437  N441    2.026   .     S
Cu438  O449    1.985   .     S
Cu438  O445    1.956   .     S
Cu438  O444    1.954   .     S
Cu438  O448    1.981   .     S
Cu438  N442    2.026   .     S
C451   H453    1.109   .     S
C451   H454    1.105   .     S
C451   C485    1.520   .     S
C451   H512    1.110   .     S
C455   H458    1.109   .     S
C455   H457    1.105   .     S
H456   C515    1.110   .     S
N459   H461    1.045   .     S
N459   H460    1.045   .     S
N462   H464    1.046   .     S
N462   H463    1.046   .     S
C465   H466    1.109   .     S
C465   H467    1.107   .     S
C465   H468    1.111   .     S
C469   H472    1.106   .     S
C469   H470    1.109   .     S
C469   H471    1.111   .     S
C473   H475    1.099   .     S
C473   H476    1.108   .     S
C473   H474    1.111   .     S
C477   H478    1.111   .     S
C477   H479    1.108   .     S
C477   H480    1.099   .     S
C481   O505    1.295   .     A
C481   C492    1.446   .     S
C481   O503    1.292   .     A
C482   O504    1.292   .     A
C482   C491    1.446   .     S
C482   O506    1.295   .     A
C483   O507    1.285   .     A
C483   O509    1.303   .     A
C483   C485    1.445   .     S
C484   C486    1.445   .     S
C484   O508    1.285   .     A
C484   O510    1.303   .     A
C486   C365    1.373   1_655 S
C486   C395    1.520   1_655 S
C487   C492    1.403   .     A
C487   N519    1.438   .     S
C488   C491    1.403   .     A
C488   N522    1.438   .     S
C488   C130    1.404   1_565 S
C489   C525    1.514   .     S
C489   C491    1.411   .     A
C489   C127    1.404   1_565 S
C490   C492    1.411   .     A
C490   C529    1.514   .     S
C493   N502    1.392   .     A
C493   C533    1.507   .     S
C493   C1575   1.418   1_554 S
C494   N501    1.392   .     A
C494   C537    1.507   .     S
C494   C1036   1.418   .     S
C495   H499    1.080   .     S
C495   N501    1.353   .     A
C495   C1033   1.418   .     S
C496   H500    1.080   .     S
C496   N502    1.353   .     A
C496   C1574   1.418   1_554 S
Cu497  Cu498   2.696   .     S
Cu497  O510    1.985   .     S
Cu497  O503    1.954   .     S
Cu497  O506    1.956   .     S
Cu497  O507    1.981   .     S
Cu497  N501    2.026   .     S
Cu498  O509    1.985   .     S
Cu498  O505    1.956   .     S
Cu498  O504    1.954   .     S
Cu498  O508    1.981   .     S
Cu498  N502    2.026   .     S
C511   H513    1.109   .     S
C511   H514    1.105   .     S
C511   C365    1.520   1_655 S
C511   H392    1.110   1_655 S
C515   H518    1.109   .     S
C515   H517    1.105   .     S
H516   C395    1.110   1_655 S
N519   H521    1.045   .     S
N519   H520    1.045   .     S
N522   H524    1.046   .     S
N522   H523    1.046   .     S
C525   H526    1.109   .     S
C525   H527    1.107   .     S
C525   H528    1.111   .     S
C529   H532    1.106   .     S
C529   H530    1.109   .     S
C529   H531    1.111   .     S
C533   H535    1.099   .     S
C533   H536    1.108   .     S
C533   H534    1.111   .     S
C537   H538    1.111   .     S
C537   H539    1.108   .     S
C537   H540    1.099   .     S
C541   O565    1.295   .     A
C541   C552    1.446   .     S
C541   O563    1.292   .     A
C542   O564    1.292   .     A
C542   C551    1.446   .     S
C542   O566    1.295   .     A
C543   O567    1.285   .     A
C543   O569    1.303   .     A
C543   C545    1.445   .     S
C544   C546    1.445   .     S
C544   O568    1.285   .     A
C544   O570    1.303   .     A
C545   C666    1.373   1_455 S
C545   C691    1.520   1_455 S
C546   C605    1.373   .     S
C546   C635    1.520   .     S
C547   C552    1.403   .     A
C547   N579    1.438   .     S
C547   C909    1.404   1_545 S
C548   C551    1.403   .     A
C548   N582    1.438   .     S
C548   C730    1.404   .     S
C549   C585    1.514   .     S
C549   C551    1.411   .     A
C549   C727    1.404   .     S
C550   C552    1.411   .     A
C550   C589    1.514   .     S
C550   C908    1.404   1_545 S
C553   N562    1.392   .     A
C553   C593    1.507   .     S
C554   N561    1.392   .     A
C554   C597    1.507   .     S
C554   C1096   1.418   .     S
C555   H559    1.080   .     S
C555   N561    1.353   .     A
C555   C1093   1.418   .     S
C556   H560    1.080   .     S
C556   N562    1.353   .     A
Cu557  Cu558   2.696   .     S
Cu557  O570    1.985   .     S
Cu557  O563    1.954   .     S
Cu557  O566    1.956   .     S
Cu557  O567    1.981   .     S
Cu557  N561    2.026   .     S
Cu558  O569    1.985   .     S
Cu558  O565    1.956   .     S
Cu558  O564    1.954   .     S
Cu558  O568    1.981   .     S
Cu558  N562    2.026   .     S
C571   H573    1.109   .     S
C571   H574    1.105   .     S
C571   C605    1.520   .     S
C571   H632    1.110   .     S
H572   C691    1.110   1_455 S
C575   H578    1.109   .     S
C575   H577    1.105   .     S
C575   C666    1.520   1_455 S
C575   H696    1.110   1_455 S
H576   C635    1.110   .     S
N579   H581    1.045   .     S
N579   H580    1.045   .     S
N582   H584    1.046   .     S
N582   H583    1.046   .     S
C585   H586    1.109   .     S
C585   H587    1.107   .     S
C585   H588    1.111   .     S
C589   H592    1.106   .     S
C589   H590    1.109   .     S
C589   H591    1.111   .     S
C593   H595    1.099   .     S
C593   H596    1.108   .     S
C593   H594    1.111   .     S
C597   H598    1.111   .     S
C597   H599    1.108   .     S
C597   H600    1.099   .     S
C601   O625    1.295   .     A
C601   C612    1.446   .     S
C601   O623    1.292   .     A
C602   O624    1.292   .     A
C602   C611    1.446   .     S
C602   O626    1.295   .     A
C603   O627    1.285   .     A
C603   O629    1.303   .     A
C603   C605    1.445   .     S
C604   C606    1.445   .     S
C604   O628    1.285   .     A
C604   O630    1.303   .     A
C606   C665    1.373   .     S
C606   C695    1.520   .     S
C607   C612    1.403   .     A
C607   N639    1.438   .     S
C607   C969    1.404   1_545 S
C608   C611    1.403   .     A
C608   N642    1.438   .     S
C608   C790    1.404   .     S
C609   C645    1.514   .     S
C609   C611    1.411   .     A
C609   C787    1.404   .     S
C610   C612    1.411   .     A
C610   C649    1.514   .     S
C610   C968    1.404   1_545 S
C613   N622    1.392   .     A
C613   C653    1.507   .     S
C614   N621    1.392   .     A
C614   C657    1.507   .     S
C614   C1156   1.418   .     S
C615   H619    1.080   .     S
C615   N621    1.353   .     A
C615   C1153   1.418   .     S
C616   H620    1.080   .     S
C616   N622    1.353   .     A
Cu617  Cu618   2.696   .     S
Cu617  O630    1.985   .     S
Cu617  O623    1.954   .     S
Cu617  O626    1.956   .     S
Cu617  O627    1.981   .     S
Cu617  N621    2.026   .     S
Cu618  O629    1.985   .     S
Cu618  O625    1.956   .     S
Cu618  O624    1.954   .     S
Cu618  O628    1.981   .     S
Cu618  N622    2.026   .     S
C631   H633    1.109   .     S
C631   H634    1.105   .     S
C631   C665    1.520   .     S
C631   H692    1.110   .     S
C635   H638    1.109   .     S
C635   H637    1.105   .     S
H636   C695    1.110   .     S
N639   H641    1.045   .     S
N639   H640    1.045   .     S
N642   H644    1.046   .     S
N642   H643    1.046   .     S
C645   H646    1.109   .     S
C645   H647    1.107   .     S
C645   H648    1.111   .     S
C649   H652    1.106   .     S
C649   H650    1.109   .     S
C649   H651    1.111   .     S
C653   H655    1.099   .     S
C653   H656    1.108   .     S
C653   H654    1.111   .     S
C657   H658    1.111   .     S
C657   H659    1.108   .     S
C657   H660    1.099   .     S
C661   O685    1.295   .     A
C661   C672    1.446   .     S
C661   O683    1.292   .     A
C662   O684    1.292   .     A
C662   C671    1.446   .     S
C662   O686    1.295   .     A
C663   O687    1.285   .     A
C663   O689    1.303   .     A
C663   C665    1.445   .     S
C664   C666    1.445   .     S
C664   O688    1.285   .     A
C664   O690    1.303   .     A
C666   C545    1.373   1_655 S
C666   C575    1.520   1_655 S
C667   C672    1.403   .     A
C667   N699    1.438   .     S
C667   C1029   1.404   1_545 S
C668   C671    1.403   .     A
C668   N702    1.438   .     S
C668   C850    1.404   .     S
C669   C705    1.514   .     S
C669   C671    1.411   .     A
C669   C847    1.404   .     S
C670   C672    1.411   .     A
C670   C709    1.514   .     S
C670   C1028   1.404   1_545 S
C673   N682    1.392   .     A
C673   C713    1.507   .     S
C674   N681    1.392   .     A
C674   C717    1.507   .     S
C674   C1216   1.418   .     S
C675   H679    1.080   .     S
C675   N681    1.353   .     A
C675   C1213   1.418   .     S
C676   H680    1.080   .     S
C676   N682    1.353   .     A
Cu677  Cu678   2.696   .     S
Cu677  O690    1.985   .     S
Cu677  O683    1.954   .     S
Cu677  O686    1.956   .     S
Cu677  O687    1.981   .     S
Cu677  N681    2.026   .     S
Cu678  O689    1.985   .     S
Cu678  O685    1.956   .     S
Cu678  O684    1.954   .     S
Cu678  O688    1.981   .     S
Cu678  N682    2.026   .     S
C691   H693    1.109   .     S
C691   H694    1.105   .     S
C691   C545    1.520   1_655 S
C691   H572    1.110   1_655 S
C695   H698    1.109   .     S
C695   H697    1.105   .     S
H696   C575    1.110   1_655 S
N699   H701    1.045   .     S
N699   H700    1.045   .     S
N702   H704    1.046   .     S
N702   H703    1.046   .     S
C705   H706    1.109   .     S
C705   H707    1.107   .     S
C705   H708    1.111   .     S
C709   H712    1.106   .     S
C709   H710    1.109   .     S
C709   H711    1.111   .     S
C713   H715    1.099   .     S
C713   H716    1.108   .     S
C713   H714    1.111   .     S
C717   H718    1.111   .     S
C717   H719    1.108   .     S
C717   H720    1.099   .     S
C721   O745    1.295   .     A
C721   C732    1.446   .     S
C721   O743    1.292   .     A
C722   O744    1.292   .     A
C722   C731    1.446   .     S
C722   O746    1.295   .     A
C723   O747    1.285   .     A
C723   O749    1.303   .     A
C723   C725    1.445   .     S
C724   C726    1.445   .     S
C724   O748    1.285   .     A
C724   O750    1.303   .     A
C725   C846    1.373   1_455 S
C725   C871    1.520   1_455 S
C726   C785    1.373   .     S
C726   C815    1.520   .     S
C727   C732    1.403   .     A
C727   N759    1.438   .     S
C728   C731    1.403   .     A
C728   N762    1.438   .     S
C728   C910    1.404   .     S
C729   C765    1.514   .     S
C729   C731    1.411   .     A
C729   C907    1.404   .     S
C730   C732    1.411   .     A
C730   C769    1.514   .     S
C733   N742    1.392   .     A
C733   C773    1.507   .     S
C734   N741    1.392   .     A
C734   C777    1.507   .     S
C734   C1276   1.418   .     S
C735   H739    1.080   .     S
C735   N741    1.353   .     A
C735   C1273   1.418   .     S
C736   H740    1.080   .     S
C736   N742    1.353   .     A
Cu737  Cu738   2.696   .     S
Cu737  O750    1.985   .     S
Cu737  O743    1.954   .     S
Cu737  O746    1.956   .     S
Cu737  O747    1.981   .     S
Cu737  N741    2.026   .     S
Cu738  O749    1.985   .     S
Cu738  O745    1.956   .     S
Cu738  O744    1.954   .     S
Cu738  O748    1.981   .     S
Cu738  N742    2.026   .     S
C751   H753    1.109   .     S
C751   H754    1.105   .     S
C751   C785    1.520   .     S
C751   H812    1.110   .     S
H752   C871    1.110   1_455 S
C755   H758    1.109   .     S
C755   H757    1.105   .     S
C755   C846    1.520   1_455 S
C755   H876    1.110   1_455 S
H756   C815    1.110   .     S
N759   H761    1.045   .     S
N759   H760    1.045   .     S
N762   H764    1.046   .     S
N762   H763    1.046   .     S
C765   H766    1.109   .     S
C765   H767    1.107   .     S
C765   H768    1.111   .     S
C769   H772    1.106   .     S
C769   H770    1.109   .     S
C769   H771    1.111   .     S
C773   H775    1.099   .     S
C773   H776    1.108   .     S
C773   H774    1.111   .     S
C777   H778    1.111   .     S
C777   H779    1.108   .     S
C777   H780    1.099   .     S
C781   O805    1.295   .     A
C781   C792    1.446   .     S
C781   O803    1.292   .     A
C782   O804    1.292   .     A
C782   C791    1.446   .     S
C782   O806    1.295   .     A
C783   O807    1.285   .     A
C783   O809    1.303   .     A
C783   C785    1.445   .     S
C784   C786    1.445   .     S
C784   O808    1.285   .     A
C784   O810    1.303   .     A
C786   C845    1.373   .     S
C786   C875    1.520   .     S
C787   C792    1.403   .     A
C787   N819    1.438   .     S
C788   C791    1.403   .     A
C788   N822    1.438   .     S
C788   C970    1.404   .     S
C789   C825    1.514   .     S
C789   C791    1.411   .     A
C789   C967    1.404   .     S
C790   C792    1.411   .     A
C790   C829    1.514   .     S
C793   N802    1.392   .     A
C793   C833    1.507   .     S
C794   N801    1.392   .     A
C794   C837    1.507   .     S
C794   C1336   1.418   .     S
C795   H799    1.080   .     S
C795   N801    1.353   .     A
C795   C1333   1.418   .     S
C796   H800    1.080   .     S
C796   N802    1.353   .     A
Cu797  Cu798   2.696   .     S
Cu797  O810    1.985   .     S
Cu797  O803    1.954   .     S
Cu797  O806    1.956   .     S
Cu797  O807    1.981   .     S
Cu797  N801    2.026   .     S
Cu798  O809    1.985   .     S
Cu798  O805    1.956   .     S
Cu798  O804    1.954   .     S
Cu798  O808    1.981   .     S
Cu798  N802    2.026   .     S
C811   H813    1.109   .     S
C811   H814    1.105   .     S
C811   C845    1.520   .     S
C811   H872    1.110   .     S
C815   H818    1.109   .     S
C815   H817    1.105   .     S
H816   C875    1.110   .     S
N819   H821    1.045   .     S
N819   H820    1.045   .     S
N822   H824    1.046   .     S
N822   H823    1.046   .     S
C825   H826    1.109   .     S
C825   H827    1.107   .     S
C825   H828    1.111   .     S
C829   H832    1.106   .     S
C829   H830    1.109   .     S
C829   H831    1.111   .     S
C833   H835    1.099   .     S
C833   H836    1.108   .     S
C833   H834    1.111   .     S
C837   H838    1.111   .     S
C837   H839    1.108   .     S
C837   H840    1.099   .     S
C841   O865    1.295   .     A
C841   C852    1.446   .     S
C841   O863    1.292   .     A
C842   O864    1.292   .     A
C842   C851    1.446   .     S
C842   O866    1.295   .     A
C843   O867    1.285   .     A
C843   O869    1.303   .     A
C843   C845    1.445   .     S
C844   C846    1.445   .     S
C844   O868    1.285   .     A
C844   O870    1.303   .     A
C846   C725    1.373   1_655 S
C846   C755    1.520   1_655 S
C847   C852    1.403   .     A
C847   N879    1.438   .     S
C848   C851    1.403   .     A
C848   N882    1.438   .     S
C848   C1030   1.404   .     S
C849   C885    1.514   .     S
C849   C851    1.411   .     A
C849   C1027   1.404   .     S
C850   C852    1.411   .     A
C850   C889    1.514   .     S
C853   N862    1.392   .     A
C853   C893    1.507   .     S
C854   N861    1.392   .     A
C854   C897    1.507   .     S
C854   C1396   1.418   .     S
C855   H859    1.080   .     S
C855   N861    1.353   .     A
C855   C1393   1.418   .     S
C856   H860    1.080   .     S
C856   N862    1.353   .     A
Cu857  Cu858   2.696   .     S
Cu857  O870    1.985   .     S
Cu857  O863    1.954   .     S
Cu857  O866    1.956   .     S
Cu857  O867    1.981   .     S
Cu857  N861    2.026   .     S
Cu858  O869    1.985   .     S
Cu858  O865    1.956   .     S
Cu858  O864    1.954   .     S
Cu858  O868    1.981   .     S
Cu858  N862    2.026   .     S
C871   H873    1.109   .     S
C871   H874    1.105   .     S
C871   C725    1.520   1_655 S
C871   H752    1.110   1_655 S
C875   H878    1.109   .     S
C875   H877    1.105   .     S
H876   C755    1.110   1_655 S
N879   H881    1.045   .     S
N879   H880    1.045   .     S
N882   H884    1.046   .     S
N882   H883    1.046   .     S
C885   H886    1.109   .     S
C885   H887    1.107   .     S
C885   H888    1.111   .     S
C889   H892    1.106   .     S
C889   H890    1.109   .     S
C889   H891    1.111   .     S
C893   H895    1.099   .     S
C893   H896    1.108   .     S
C893   H894    1.111   .     S
C897   H898    1.111   .     S
C897   H899    1.108   .     S
C897   H900    1.099   .     S
C901   O925    1.295   .     A
C901   C912    1.446   .     S
C901   O923    1.292   .     A
C902   O924    1.292   .     A
C902   C911    1.446   .     S
C902   O926    1.295   .     A
C903   O927    1.285   .     A
C903   O929    1.303   .     A
C903   C905    1.445   .     S
C904   C906    1.445   .     S
C904   O928    1.285   .     A
C904   O930    1.303   .     A
C905   C1026   1.373   1_455 S
C905   C1051   1.520   1_455 S
C906   C965    1.373   .     S
C906   C995    1.520   .     S
C907   C912    1.403   .     A
C907   N939    1.438   .     S
C908   C911    1.403   .     A
C908   N942    1.438   .     S
C908   C550    1.404   1_565 S
C909   C945    1.514   .     S
C909   C911    1.411   .     A
C909   C547    1.404   1_565 S
C910   C912    1.411   .     A
C910   C949    1.514   .     S
C913   N922    1.392   .     A
C913   C953    1.507   .     S
C914   N921    1.392   .     A
C914   C957    1.507   .     S
C914   C1456   1.418   .     S
C915   H919    1.080   .     S
C915   N921    1.353   .     A
C915   C1453   1.418   .     S
C916   H920    1.080   .     S
C916   N922    1.353   .     A
Cu917  Cu918   2.696   .     S
Cu917  O930    1.985   .     S
Cu917  O923    1.954   .     S
Cu917  O926    1.956   .     S
Cu917  O927    1.981   .     S
Cu917  N921    2.026   .     S
Cu918  O929    1.985   .     S
Cu918  O925    1.956   .     S
Cu918  O924    1.954   .     S
Cu918  O928    1.981   .     S
Cu918  N922    2.026   .     S
C931   H933    1.109   .     S
C931   H934    1.105   .     S
C931   C965    1.520   .     S
C931   H992    1.110   .     S
H932   C1051   1.110   1_455 S
C935   H938    1.109   .     S
C935   H937    1.105   .     S
C935   C1026   1.520   1_455 S
C935   H1056   1.110   1_455 S
H936   C995    1.110   .     S
N939   H941    1.045   .     S
N939   H940    1.045   .     S
N942   H944    1.046   .     S
N942   H943    1.046   .     S
C945   H946    1.109   .     S
C945   H947    1.107   .     S
C945   H948    1.111   .     S
C949   H952    1.106   .     S
C949   H950    1.109   .     S
C949   H951    1.111   .     S
C953   H955    1.099   .     S
C953   H956    1.108   .     S
C953   H954    1.111   .     S
C957   H958    1.111   .     S
C957   H959    1.108   .     S
C957   H960    1.099   .     S
C961   O985    1.295   .     A
C961   C972    1.446   .     S
C961   O983    1.292   .     A
C962   O984    1.292   .     A
C962   C971    1.446   .     S
C962   O986    1.295   .     A
C963   O987    1.285   .     A
C963   O989    1.303   .     A
C963   C965    1.445   .     S
C964   C966    1.445   .     S
C964   O988    1.285   .     A
C964   O990    1.303   .     A
C966   C1025   1.373   .     S
C966   C1055   1.520   .     S
C967   C972    1.403   .     A
C967   N999    1.438   .     S
C968   C971    1.403   .     A
C968   N1002   1.438   .     S
C968   C610    1.404   1_565 S
C969   C1005   1.514   .     S
C969   C971    1.411   .     A
C969   C607    1.404   1_565 S
C970   C972    1.411   .     A
C970   C1009   1.514   .     S
C973   N982    1.392   .     A
C973   C1013   1.507   .     S
C974   N981    1.392   .     A
C974   C1017   1.507   .     S
C974   C1516   1.418   .     S
C975   H979    1.080   .     S
C975   N981    1.353   .     A
C975   C1513   1.418   .     S
C976   H980    1.080   .     S
C976   N982    1.353   .     A
Cu977  Cu978   2.696   .     S
Cu977  O990    1.985   .     S
Cu977  O983    1.954   .     S
Cu977  O986    1.956   .     S
Cu977  O987    1.981   .     S
Cu977  N981    2.026   .     S
Cu978  O989    1.985   .     S
Cu978  O985    1.956   .     S
Cu978  O984    1.954   .     S
Cu978  O988    1.981   .     S
Cu978  N982    2.026   .     S
C991   H993    1.109   .     S
C991   H994    1.105   .     S
C991   C1025   1.520   .     S
C991   H1052   1.110   .     S
C995   H998    1.109   .     S
C995   H997    1.105   .     S
H996   C1055   1.110   .     S
N999   H1001   1.045   .     S
N999   H1000   1.045   .     S
N1002  H1004   1.046   .     S
N1002  H1003   1.046   .     S
C1005  H1006   1.109   .     S
C1005  H1007   1.107   .     S
C1005  H1008   1.111   .     S
C1009  H1012   1.106   .     S
C1009  H1010   1.109   .     S
C1009  H1011   1.111   .     S
C1013  H1015   1.099   .     S
C1013  H1016   1.108   .     S
C1013  H1014   1.111   .     S
C1017  H1018   1.111   .     S
C1017  H1019   1.108   .     S
C1017  H1020   1.099   .     S
C1021  O1045   1.295   .     A
C1021  C1032   1.446   .     S
C1021  O1043   1.292   .     A
C1022  O1044   1.292   .     A
C1022  C1031   1.446   .     S
C1022  O1046   1.295   .     A
C1023  O1047   1.285   .     A
C1023  O1049   1.303   .     A
C1023  C1025   1.445   .     S
C1024  C1026   1.445   .     S
C1024  O1048   1.285   .     A
C1024  O1050   1.303   .     A
C1026  C905    1.373   1_655 S
C1026  C935    1.520   1_655 S
C1027  C1032   1.403   .     A
C1027  N1059   1.438   .     S
C1028  C1031   1.403   .     A
C1028  N1062   1.438   .     S
C1028  C670    1.404   1_565 S
C1029  C1065   1.514   .     S
C1029  C1031   1.411   .     A
C1029  C667    1.404   1_565 S
C1030  C1032   1.411   .     A
C1030  C1069   1.514   .     S
C1033  N1042   1.392   .     A
C1033  C1073   1.507   .     S
C1034  N1041   1.392   .     A
C1034  C1077   1.507   .     S
C1034  C1576   1.418   .     S
C1035  H1039   1.080   .     S
C1035  N1041   1.353   .     A
C1035  C1573   1.418   .     S
C1036  H1040   1.080   .     S
C1036  N1042   1.353   .     A
Cu1037 Cu1038  2.696   .     S
Cu1037 O1050   1.985   .     S
Cu1037 O1043   1.954   .     S
Cu1037 O1046   1.956   .     S
Cu1037 O1047   1.981   .     S
Cu1037 N1041   2.026   .     S
Cu1038 O1049   1.985   .     S
Cu1038 O1045   1.956   .     S
Cu1038 O1044   1.954   .     S
Cu1038 O1048   1.981   .     S
Cu1038 N1042   2.026   .     S
C1051  H1053   1.109   .     S
C1051  H1054   1.105   .     S
C1051  C905    1.520   1_655 S
C1051  H932    1.110   1_655 S
C1055  H1058   1.109   .     S
C1055  H1057   1.105   .     S
H1056  C935    1.110   1_655 S
N1059  H1061   1.045   .     S
N1059  H1060   1.045   .     S
N1062  H1064   1.046   .     S
N1062  H1063   1.046   .     S
C1065  H1066   1.109   .     S
C1065  H1067   1.107   .     S
C1065  H1068   1.111   .     S
C1069  H1072   1.106   .     S
C1069  H1070   1.109   .     S
C1069  H1071   1.111   .     S
C1073  H1075   1.099   .     S
C1073  H1076   1.108   .     S
C1073  H1074   1.111   .     S
C1077  H1078   1.111   .     S
C1077  H1079   1.108   .     S
C1077  H1080   1.099   .     S
C1081  O1105   1.295   .     A
C1081  C1092   1.446   .     S
C1081  O1103   1.292   .     A
C1082  O1104   1.292   .     A
C1082  C1091   1.446   .     S
C1082  O1106   1.295   .     A
C1083  O1107   1.285   .     A
C1083  O1109   1.303   .     A
C1083  C1085   1.445   .     S
C1084  C1086   1.445   .     S
C1084  O1108   1.285   .     A
C1084  O1110   1.303   .     A
C1085  C1206   1.373   1_455 S
C1085  C1231   1.520   1_455 S
C1086  C1145   1.373   .     S
C1086  C1175   1.520   .     S
C1087  C1092   1.403   .     A
C1087  N1119   1.438   .     S
C1087  C1449   1.404   1_545 S
C1088  C1091   1.403   .     A
C1088  N1122   1.438   .     S
C1088  C1270   1.404   .     S
C1089  C1125   1.514   .     S
C1089  C1091   1.411   .     A
C1089  C1267   1.404   .     S
C1090  C1092   1.411   .     A
C1090  C1129   1.514   .     S
C1090  C1448   1.404   1_545 S
C1093  N1102   1.392   .     A
C1093  C1133   1.507   .     S
C1094  N1101   1.392   .     A
C1094  C1137   1.507   .     S
C1094  C16     1.418   1_556 S
C1095  H1099   1.080   .     S
C1095  N1101   1.353   .     A
C1095  C13     1.418   1_556 S
C1096  H1100   1.080   .     S
C1096  N1102   1.353   .     A
Cu1097 Cu1098  2.696   .     S
Cu1097 O1110   1.985   .     S
Cu1097 O1103   1.954   .     S
Cu1097 O1106   1.956   .     S
Cu1097 O1107   1.981   .     S
Cu1097 N1101   2.026   .     S
Cu1098 O1109   1.985   .     S
Cu1098 O1105   1.956   .     S
Cu1098 O1104   1.954   .     S
Cu1098 O1108   1.981   .     S
Cu1098 N1102   2.026   .     S
C1111  H1113   1.109   .     S
C1111  H1114   1.105   .     S
C1111  C1145   1.520   .     S
C1111  H1172   1.110   .     S
H1112  C1231   1.110   1_455 S
C1115  H1118   1.109   .     S
C1115  H1117   1.105   .     S
C1115  C1206   1.520   1_455 S
C1115  H1236   1.110   1_455 S
H1116  C1175   1.110   .     S
N1119  H1121   1.045   .     S
N1119  H1120   1.045   .     S
N1122  H1124   1.046   .     S
N1122  H1123   1.046   .     S
C1125  H1126   1.109   .     S
C1125  H1127   1.107   .     S
C1125  H1128   1.111   .     S
C1129  H1132   1.106   .     S
C1129  H1130   1.109   .     S
C1129  H1131   1.111   .     S
C1133  H1135   1.099   .     S
C1133  H1136   1.108   .     S
C1133  H1134   1.111   .     S
C1137  H1138   1.111   .     S
C1137  H1139   1.108   .     S
C1137  H1140   1.099   .     S
C1141  O1165   1.295   .     A
C1141  C1152   1.446   .     S
C1141  O1163   1.292   .     A
C1142  O1164   1.292   .     A
C1142  C1151   1.446   .     S
C1142  O1166   1.295   .     A
C1143  O1167   1.285   .     A
C1143  O1169   1.303   .     A
C1143  C1145   1.445   .     S
C1144  C1146   1.445   .     S
C1144  O1168   1.285   .     A
C1144  O1170   1.303   .     A
C1146  C1205   1.373   .     S
C1146  C1235   1.520   .     S
C1147  C1152   1.403   .     A
C1147  N1179   1.438   .     S
C1147  C1509   1.404   1_545 S
C1148  C1151   1.403   .     A
C1148  N1182   1.438   .     S
C1148  C1330   1.404   .     S
C1149  C1185   1.514   .     S
C1149  C1151   1.411   .     A
C1149  C1327   1.404   .     S
C1150  C1152   1.411   .     A
C1150  C1189   1.514   .     S
C1150  C1508   1.404   1_545 S
C1153  N1162   1.392   .     A
C1153  C1193   1.507   .     S
C1154  N1161   1.392   .     A
C1154  C1197   1.507   .     S
C1154  C76     1.418   1_556 S
C1155  H1159   1.080   .     S
C1155  N1161   1.353   .     A
C1155  C73     1.418   1_556 S
C1156  H1160   1.080   .     S
C1156  N1162   1.353   .     A
Cu1157 Cu1158  2.696   .     S
Cu1157 O1170   1.985   .     S
Cu1157 O1163   1.954   .     S
Cu1157 O1166   1.956   .     S
Cu1157 O1167   1.981   .     S
Cu1157 N1161   2.026   .     S
Cu1158 O1169   1.985   .     S
Cu1158 O1165   1.956   .     S
Cu1158 O1164   1.954   .     S
Cu1158 O1168   1.981   .     S
Cu1158 N1162   2.026   .     S
C1171  H1173   1.109   .     S
C1171  H1174   1.105   .     S
C1171  C1205   1.520   .     S
C1171  H1232   1.110   .     S
C1175  H1178   1.109   .     S
C1175  H1177   1.105   .     S
H1176  C1235   1.110   .     S
N1179  H1181   1.045   .     S
N1179  H1180   1.045   .     S
N1182  H1184   1.046   .     S
N1182  H1183   1.046   .     S
C1185  H1186   1.109   .     S
C1185  H1187   1.107   .     S
C1185  H1188   1.111   .     S
C1189  H1192   1.106   .     S
C1189  H1190   1.109   .     S
C1189  H1191   1.111   .     S
C1193  H1195   1.099   .     S
C1193  H1196   1.108   .     S
C1193  H1194   1.111   .     S
C1197  H1198   1.111   .     S
C1197  H1199   1.108   .     S
C1197  H1200   1.099   .     S
C1201  O1225   1.295   .     A
C1201  C1212   1.446   .     S
C1201  O1223   1.292   .     A
C1202  O1224   1.292   .     A
C1202  C1211   1.446   .     S
C1202  O1226   1.295   .     A
C1203  O1227   1.285   .     A
C1203  O1229   1.303   .     A
C1203  C1205   1.445   .     S
C1204  C1206   1.445   .     S
C1204  O1228   1.285   .     A
C1204  O1230   1.303   .     A
C1206  C1085   1.373   1_655 S
C1206  C1115   1.520   1_655 S
C1207  C1212   1.403   .     A
C1207  N1239   1.438   .     S
C1207  C1569   1.404   1_545 S
C1208  C1211   1.403   .     A
C1208  N1242   1.438   .     S
C1208  C1390   1.404   .     S
C1209  C1245   1.514   .     S
C1209  C1211   1.411   .     A
C1209  C1387   1.404   .     S
C1210  C1212   1.411   .     A
C1210  C1249   1.514   .     S
C1210  C1568   1.404   1_545 S
C1213  N1222   1.392   .     A
C1213  C1253   1.507   .     S
C1214  N1221   1.392   .     A
C1214  C1257   1.507   .     S
C1214  C136    1.418   1_556 S
C1215  H1219   1.080   .     S
C1215  N1221   1.353   .     A
C1215  C133    1.418   1_556 S
C1216  H1220   1.080   .     S
C1216  N1222   1.353   .     A
Cu1217 Cu1218  2.696   .     S
Cu1217 O1230   1.985   .     S
Cu1217 O1223   1.954   .     S
Cu1217 O1226   1.956   .     S
Cu1217 O1227   1.981   .     S
Cu1217 N1221   2.026   .     S
Cu1218 O1229   1.985   .     S
Cu1218 O1225   1.956   .     S
Cu1218 O1224   1.954   .     S
Cu1218 O1228   1.981   .     S
Cu1218 N1222   2.026   .     S
C1231  H1233   1.109   .     S
C1231  H1234   1.105   .     S
C1231  C1085   1.520   1_655 S
C1231  H1112   1.110   1_655 S
C1235  H1238   1.109   .     S
C1235  H1237   1.105   .     S
H1236  C1115   1.110   1_655 S
N1239  H1241   1.045   .     S
N1239  H1240   1.045   .     S
N1242  H1244   1.046   .     S
N1242  H1243   1.046   .     S
C1245  H1246   1.109   .     S
C1245  H1247   1.107   .     S
C1245  H1248   1.111   .     S
C1249  H1252   1.106   .     S
C1249  H1250   1.109   .     S
C1249  H1251   1.111   .     S
C1253  H1255   1.099   .     S
C1253  H1256   1.108   .     S
C1253  H1254   1.111   .     S
C1257  H1258   1.111   .     S
C1257  H1259   1.108   .     S
C1257  H1260   1.099   .     S
C1261  O1285   1.295   .     A
C1261  C1272   1.446   .     S
C1261  O1283   1.292   .     A
C1262  O1284   1.292   .     A
C1262  C1271   1.446   .     S
C1262  O1286   1.295   .     A
C1263  O1287   1.285   .     A
C1263  O1289   1.303   .     A
C1263  C1265   1.445   .     S
C1264  C1266   1.445   .     S
C1264  O1288   1.285   .     A
C1264  O1290   1.303   .     A
C1265  C1386   1.373   1_455 S
C1265  C1411   1.520   1_455 S
C1266  C1325   1.373   .     S
C1266  C1355   1.520   .     S
C1267  C1272   1.403   .     A
C1267  N1299   1.438   .     S
C1268  C1271   1.403   .     A
C1268  N1302   1.438   .     S
C1268  C1450   1.404   .     S
C1269  C1305   1.514   .     S
C1269  C1271   1.411   .     A
C1269  C1447   1.404   .     S
C1270  C1272   1.411   .     A
C1270  C1309   1.514   .     S
C1273  N1282   1.392   .     A
C1273  C1313   1.507   .     S
C1274  N1281   1.392   .     A
C1274  C1317   1.507   .     S
C1274  C196    1.418   1_556 S
C1275  H1279   1.080   .     S
C1275  N1281   1.353   .     A
C1275  C193    1.418   1_556 S
C1276  H1280   1.080   .     S
C1276  N1282   1.353   .     A
Cu1277 Cu1278  2.696   .     S
Cu1277 O1290   1.985   .     S
Cu1277 O1283   1.954   .     S
Cu1277 O1286   1.956   .     S
Cu1277 O1287   1.981   .     S
Cu1277 N1281   2.026   .     S
Cu1278 O1289   1.985   .     S
Cu1278 O1285   1.956   .     S
Cu1278 O1284   1.954   .     S
Cu1278 O1288   1.981   .     S
Cu1278 N1282   2.026   .     S
C1291  H1293   1.109   .     S
C1291  H1294   1.105   .     S
C1291  C1325   1.520   .     S
C1291  H1352   1.110   .     S
H1292  C1411   1.110   1_455 S
C1295  H1298   1.109   .     S
C1295  H1297   1.105   .     S
C1295  C1386   1.520   1_455 S
C1295  H1416   1.110   1_455 S
H1296  C1355   1.110   .     S
N1299  H1301   1.045   .     S
N1299  H1300   1.045   .     S
N1302  H1304   1.046   .     S
N1302  H1303   1.046   .     S
C1305  H1306   1.109   .     S
C1305  H1307   1.107   .     S
C1305  H1308   1.111   .     S
C1309  H1312   1.106   .     S
C1309  H1310   1.109   .     S
C1309  H1311   1.111   .     S
C1313  H1315   1.099   .     S
C1313  H1316   1.108   .     S
C1313  H1314   1.111   .     S
C1317  H1318   1.111   .     S
C1317  H1319   1.108   .     S
C1317  H1320   1.099   .     S
C1321  O1345   1.295   .     A
C1321  C1332   1.446   .     S
C1321  O1343   1.292   .     A
C1322  O1344   1.292   .     A
C1322  C1331   1.446   .     S
C1322  O1346   1.295   .     A
C1323  O1347   1.285   .     A
C1323  O1349   1.303   .     A
C1323  C1325   1.445   .     S
C1324  C1326   1.445   .     S
C1324  O1348   1.285   .     A
C1324  O1350   1.303   .     A
C1326  C1385   1.373   .     S
C1326  C1415   1.520   .     S
C1327  C1332   1.403   .     A
C1327  N1359   1.438   .     S
C1328  C1331   1.403   .     A
C1328  N1362   1.438   .     S
C1328  C1510   1.404   .     S
C1329  C1365   1.514   .     S
C1329  C1331   1.411   .     A
C1329  C1507   1.404   .     S
C1330  C1332   1.411   .     A
C1330  C1369   1.514   .     S
C1333  N1342   1.392   .     A
C1333  C1373   1.507   .     S
C1334  N1341   1.392   .     A
C1334  C1377   1.507   .     S
C1334  C256    1.418   1_556 S
C1335  H1339   1.080   .     S
C1335  N1341   1.353   .     A
C1335  C253    1.418   1_556 S
C1336  H1340   1.080   .     S
C1336  N1342   1.353   .     A
Cu1337 Cu1338  2.696   .     S
Cu1337 O1350   1.985   .     S
Cu1337 O1343   1.954   .     S
Cu1337 O1346   1.956   .     S
Cu1337 O1347   1.981   .     S
Cu1337 N1341   2.026   .     S
Cu1338 O1349   1.985   .     S
Cu1338 O1345   1.956   .     S
Cu1338 O1344   1.954   .     S
Cu1338 O1348   1.981   .     S
Cu1338 N1342   2.026   .     S
C1351  H1353   1.109   .     S
C1351  H1354   1.105   .     S
C1351  C1385   1.520   .     S
C1351  H1412   1.110   .     S
C1355  H1358   1.109   .     S
C1355  H1357   1.105   .     S
H1356  C1415   1.110   .     S
N1359  H1361   1.045   .     S
N1359  H1360   1.045   .     S
N1362  H1364   1.046   .     S
N1362  H1363   1.046   .     S
C1365  H1366   1.109   .     S
C1365  H1367   1.107   .     S
C1365  H1368   1.111   .     S
C1369  H1372   1.106   .     S
C1369  H1370   1.109   .     S
C1369  H1371   1.111   .     S
C1373  H1375   1.099   .     S
C1373  H1376   1.108   .     S
C1373  H1374   1.111   .     S
C1377  H1378   1.111   .     S
C1377  H1379   1.108   .     S
C1377  H1380   1.099   .     S
C1381  O1405   1.295   .     A
C1381  C1392   1.446   .     S
C1381  O1403   1.292   .     A
C1382  O1404   1.292   .     A
C1382  C1391   1.446   .     S
C1382  O1406   1.295   .     A
C1383  O1407   1.285   .     A
C1383  O1409   1.303   .     A
C1383  C1385   1.445   .     S
C1384  C1386   1.445   .     S
C1384  O1408   1.285   .     A
C1384  O1410   1.303   .     A
C1386  C1265   1.373   1_655 S
C1386  C1295   1.520   1_655 S
C1387  C1392   1.403   .     A
C1387  N1419   1.438   .     S
C1388  C1391   1.403   .     A
C1388  N1422   1.438   .     S
C1388  C1570   1.404   .     S
C1389  C1425   1.514   .     S
C1389  C1391   1.411   .     A
C1389  C1567   1.404   .     S
C1390  C1392   1.411   .     A
C1390  C1429   1.514   .     S
C1393  N1402   1.392   .     A
C1393  C1433   1.507   .     S
C1394  N1401   1.392   .     A
C1394  C1437   1.507   .     S
C1394  C316    1.418   1_556 S
C1395  H1399   1.080   .     S
C1395  N1401   1.353   .     A
C1395  C313    1.418   1_556 S
C1396  H1400   1.080   .     S
C1396  N1402   1.353   .     A
Cu1397 Cu1398  2.696   .     S
Cu1397 O1410   1.985   .     S
Cu1397 O1403   1.954   .     S
Cu1397 O1406   1.956   .     S
Cu1397 O1407   1.981   .     S
Cu1397 N1401   2.026   .     S
Cu1398 O1409   1.985   .     S
Cu1398 O1405   1.956   .     S
Cu1398 O1404   1.954   .     S
Cu1398 O1408   1.981   .     S
Cu1398 N1402   2.026   .     S
C1411  H1413   1.109   .     S
C1411  H1414   1.105   .     S
C1411  C1265   1.520   1_655 S
C1411  H1292   1.110   1_655 S
C1415  H1418   1.109   .     S
C1415  H1417   1.105   .     S
H1416  C1295   1.110   1_655 S
N1419  H1421   1.045   .     S
N1419  H1420   1.045   .     S
N1422  H1424   1.046   .     S
N1422  H1423   1.046   .     S
C1425  H1426   1.109   .     S
C1425  H1427   1.107   .     S
C1425  H1428   1.111   .     S
C1429  H1432   1.106   .     S
C1429  H1430   1.109   .     S
C1429  H1431   1.111   .     S
C1433  H1435   1.099   .     S
C1433  H1436   1.108   .     S
C1433  H1434   1.111   .     S
C1437  H1438   1.111   .     S
C1437  H1439   1.108   .     S
C1437  H1440   1.099   .     S
C1441  O1465   1.295   .     A
C1441  C1452   1.446   .     S
C1441  O1463   1.292   .     A
C1442  O1464   1.292   .     A
C1442  C1451   1.446   .     S
C1442  O1466   1.295   .     A
C1443  O1467   1.285   .     A
C1443  O1469   1.303   .     A
C1443  C1445   1.445   .     S
C1444  C1446   1.445   .     S
C1444  O1468   1.285   .     A
C1444  O1470   1.303   .     A
C1445  C1566   1.373   1_455 S
C1445  C1591   1.520   1_455 S
C1446  C1505   1.373   .     S
C1446  C1535   1.520   .     S
C1447  C1452   1.403   .     A
C1447  N1479   1.438   .     S
C1448  C1451   1.403   .     A
C1448  N1482   1.438   .     S
C1448  C1090   1.404   1_565 S
C1449  C1485   1.514   .     S
C1449  C1451   1.411   .     A
C1449  C1087   1.404   1_565 S
C1450  C1452   1.411   .     A
C1450  C1489   1.514   .     S
C1453  N1462   1.392   .     A
C1453  C1493   1.507   .     S
C1454  N1461   1.392   .     A
C1454  C1497   1.507   .     S
C1454  C376    1.418   1_556 S
C1455  H1459   1.080   .     S
C1455  N1461   1.353   .     A
C1455  C373    1.418   1_556 S
C1456  H1460   1.080   .     S
C1456  N1462   1.353   .     A
Cu1457 Cu1458  2.696   .     S
Cu1457 O1470   1.985   .     S
Cu1457 O1463   1.954   .     S
Cu1457 O1466   1.956   .     S
Cu1457 O1467   1.981   .     S
Cu1457 N1461   2.026   .     S
Cu1458 O1469   1.985   .     S
Cu1458 O1465   1.956   .     S
Cu1458 O1464   1.954   .     S
Cu1458 O1468   1.981   .     S
Cu1458 N1462   2.026   .     S
C1471  H1473   1.109   .     S
C1471  H1474   1.105   .     S
C1471  C1505   1.520   .     S
C1471  H1532   1.110   .     S
H1472  C1591   1.110   1_455 S
C1475  H1478   1.109   .     S
C1475  H1477   1.105   .     S
C1475  C1566   1.520   1_455 S
C1475  H1596   1.110   1_455 S
H1476  C1535   1.110   .     S
N1479  H1481   1.045   .     S
N1479  H1480   1.045   .     S
N1482  H1484   1.046   .     S
N1482  H1483   1.046   .     S
C1485  H1486   1.109   .     S
C1485  H1487   1.107   .     S
C1485  H1488   1.111   .     S
C1489  H1492   1.106   .     S
C1489  H1490   1.109   .     S
C1489  H1491   1.111   .     S
C1493  H1495   1.099   .     S
C1493  H1496   1.108   .     S
C1493  H1494   1.111   .     S
C1497  H1498   1.111   .     S
C1497  H1499   1.108   .     S
C1497  H1500   1.099   .     S
C1501  O1525   1.295   .     A
C1501  C1512   1.446   .     S
C1501  O1523   1.292   .     A
C1502  O1524   1.292   .     A
C1502  C1511   1.446   .     S
C1502  O1526   1.295   .     A
C1503  O1527   1.285   .     A
C1503  O1529   1.303   .     A
C1503  C1505   1.445   .     S
C1504  C1506   1.445   .     S
C1504  O1528   1.285   .     A
C1504  O1530   1.303   .     A
C1506  C1565   1.373   .     S
C1506  C1595   1.520   .     S
C1507  C1512   1.403   .     A
C1507  N1539   1.438   .     S
C1508  C1511   1.403   .     A
C1508  N1542   1.438   .     S
C1508  C1150   1.404   1_565 S
C1509  C1545   1.514   .     S
C1509  C1511   1.411   .     A
C1509  C1147   1.404   1_565 S
C1510  C1512   1.411   .     A
C1510  C1549   1.514   .     S
C1513  N1522   1.392   .     A
C1513  C1553   1.507   .     S
C1514  N1521   1.392   .     A
C1514  C1557   1.507   .     S
C1514  C436    1.418   1_556 S
C1515  H1519   1.080   .     S
C1515  N1521   1.353   .     A
C1515  C433    1.418   1_556 S
C1516  H1520   1.080   .     S
C1516  N1522   1.353   .     A
Cu1517 Cu1518  2.696   .     S
Cu1517 O1530   1.985   .     S
Cu1517 O1523   1.954   .     S
Cu1517 O1526   1.956   .     S
Cu1517 O1527   1.981   .     S
Cu1517 N1521   2.026   .     S
Cu1518 O1529   1.985   .     S
Cu1518 O1525   1.956   .     S
Cu1518 O1524   1.954   .     S
Cu1518 O1528   1.981   .     S
Cu1518 N1522   2.026   .     S
C1531  H1533   1.109   .     S
C1531  H1534   1.105   .     S
C1531  C1565   1.520   .     S
C1531  H1592   1.110   .     S
C1535  H1538   1.109   .     S
C1535  H1537   1.105   .     S
H1536  C1595   1.110   .     S
N1539  H1541   1.045   .     S
N1539  H1540   1.045   .     S
N1542  H1544   1.046   .     S
N1542  H1543   1.046   .     S
C1545  H1546   1.109   .     S
C1545  H1547   1.107   .     S
C1545  H1548   1.111   .     S
C1549  H1552   1.106   .     S
C1549  H1550   1.109   .     S
C1549  H1551   1.111   .     S
C1553  H1555   1.099   .     S
C1553  H1556   1.108   .     S
C1553  H1554   1.111   .     S
C1557  H1558   1.111   .     S
C1557  H1559   1.108   .     S
C1557  H1560   1.099   .     S
C1561  O1585   1.295   .     A
C1561  C1572   1.446   .     S
C1561  O1583   1.292   .     A
C1562  O1584   1.292   .     A
C1562  C1571   1.446   .     S
C1562  O1586   1.295   .     A
C1563  O1587   1.285   .     A
C1563  O1589   1.303   .     A
C1563  C1565   1.445   .     S
C1564  C1566   1.445   .     S
C1564  O1588   1.285   .     A
C1564  O1590   1.303   .     A
C1566  C1445   1.373   1_655 S
C1566  C1475   1.520   1_655 S
C1567  C1572   1.403   .     A
C1567  N1599   1.438   .     S
C1568  C1571   1.403   .     A
C1568  N1602   1.438   .     S
C1568  C1210   1.404   1_565 S
C1569  C1605   1.514   .     S
C1569  C1571   1.411   .     A
C1569  C1207   1.404   1_565 S
C1570  C1572   1.411   .     A
C1570  C1609   1.514   .     S
C1573  N1582   1.392   .     A
C1573  C1613   1.507   .     S
C1574  N1581   1.392   .     A
C1574  C1617   1.507   .     S
C1574  C496    1.418   1_556 S
C1575  H1579   1.080   .     S
C1575  N1581   1.353   .     A
C1575  C493    1.418   1_556 S
C1576  H1580   1.080   .     S
C1576  N1582   1.353   .     A
Cu1577 Cu1578  2.696   .     S
Cu1577 O1590   1.985   .     S
Cu1577 O1583   1.954   .     S
Cu1577 O1586   1.956   .     S
Cu1577 O1587   1.981   .     S
Cu1577 N1581   2.026   .     S
Cu1578 O1589   1.985   .     S
Cu1578 O1585   1.956   .     S
Cu1578 O1584   1.954   .     S
Cu1578 O1588   1.981   .     S
Cu1578 N1582   2.026   .     S
C1591  H1593   1.109   .     S
C1591  H1594   1.105   .     S
C1591  C1445   1.520   1_655 S
C1591  H1472   1.110   1_655 S
C1595  H1598   1.109   .     S
C1595  H1597   1.105   .     S
H1596  C1475   1.110   1_655 S
N1599  H1601   1.045   .     S
N1599  H1600   1.045   .     S
N1602  H1604   1.046   .     S
N1602  H1603   1.046   .     S
C1605  H1606   1.109   .     S
C1605  H1607   1.107   .     S
C1605  H1608   1.111   .     S
C1609  H1612   1.106   .     S
C1609  H1610   1.109   .     S
C1609  H1611   1.111   .     S
C1613  H1615   1.099   .     S
C1613  H1616   1.108   .     S
C1613  H1614   1.111   .     S
C1617  H1618   1.111   .     S
C1617  H1619   1.108   .     S
C1617  H1620   1.099   .     S
