data_str_m2_o1_o10_pcu_sym.190
_audit_creation_date              2020-01-03
_audit_creation_method            'Materials Studio'
_symmetry_space_group_name_H-M    'P1'
_symmetry_Int_Tables_number       1
_symmetry_cell_setting            triclinic
loop_
_symmetry_equiv_pos_as_xyz
  x,y,z
_cell_length_a                    26.1835
_cell_length_b                    32.4856
_cell_length_c                    28.5965
_cell_angle_alpha                 89.4998
_cell_angle_beta                  97.9127
_cell_angle_gamma                 90.0933
loop_
_atom_site_label
_atom_site_type_symbol
_atom_site_fract_x
_atom_site_fract_y
_atom_site_fract_z
_atom_site_U_iso_or_equiv
_atom_site_adp_type
_atom_site_occupancy
C1     C     0.16767   0.08733   0.16716   0.00000  Uiso   1.00
C2     C     0.16775   0.24587   0.16665   0.00000  Uiso   1.00
C3     C     0.06792   0.16686   0.15458   0.00000  Uiso   1.00
C4     C     0.26541   0.16678   0.17875   0.00000  Uiso   1.00
C5     C     0.01263   0.16719   0.14792   0.00000  Uiso   1.00
C6     C     0.32069   0.16696   0.18539   0.00000  Uiso   1.00
C7     C     0.18805   0.02197   0.13114   0.00000  Uiso   1.00
C8     C     0.15405   0.31094   0.20489   0.00000  Uiso   1.00
C9     C     0.19221   0.31266   0.13205   0.00000  Uiso   1.00
C10    C     0.15775   0.01999   0.20791   0.00000  Uiso   1.00
C11    C     0.17088   0.29036   0.16719   0.00000  Uiso   1.00
C12    C     0.17048   0.04261   0.16867   0.00000  Uiso   1.00
C13    C     0.13156   0.14383   0.02057   0.00000  Uiso   1.00
C14    C     0.20171   0.18956   0.31275   0.00000  Uiso   1.00
C15    C     0.13148   0.14393   0.30433   0.00000  Uiso   1.00
C16    C     0.20170   0.18953   0.02897   0.00000  Uiso   1.00
Cu17   Cu    0.16667   0.16667   0.21355   0.00000  Uiso   1.00
Cu18   Cu    0.16667   0.16666   0.11978   0.00000  Uiso   1.00
H19    H     0.32599   0.16750   0.11197   0.00000  Uiso   1.00
H20    H     0.00733   0.16673   0.22134   0.00000  Uiso   1.00
H21    H     0.20147   0.03897   0.10243   0.00000  Uiso   1.00
H22    H     0.13946   0.29410   0.23316   0.00000  Uiso   1.00
H23    H     0.10356   0.12538   0.03584   0.00000  Uiso   1.00
H24    H     0.22973   0.20800   0.29748   0.00000  Uiso   1.00
H25    H     0.10345   0.12552   0.28233   0.00000  Uiso   1.00
H26    H     0.22976   0.20784   0.05094   0.00000  Uiso   1.00
N27    N     0.16668   0.16668   0.28403   0.00000  Uiso   1.00
N28    N     0.16665   0.16666   0.04931   0.00000  Uiso   1.00
O29    O     0.16666   0.10655   0.20625   0.00000  Uiso   1.00
O30    O     0.16667   0.22678   0.12709   0.00000  Uiso   1.00
O31    O     0.16666   0.10654   0.12706   0.00000  Uiso   1.00
O32    O     0.16667   0.22679   0.20628   0.00000  Uiso   1.00
O33    O     0.09161   0.16667   0.19712   0.00000  Uiso   1.00
O34    O     0.24172   0.16666   0.13621   0.00000  Uiso   1.00
O35    O     0.09161   0.16666   0.11793   0.00000  Uiso   1.00
O36    O     0.24172   0.16667   0.21540   0.00000  Uiso   1.00
O37    O     0.21730   0.29383   0.09837   0.00000  Uiso   1.00
C38    C     0.26647   0.27935   0.11925   0.00000  Uiso   1.00
H39    H     0.28272   0.26106   0.09219   0.00000  Uiso   1.00
H40    H     0.26380   0.25804   0.14945   0.00000  Uiso   1.00
C41    C     0.30425   0.31453   0.13500   0.00000  Uiso   1.00
H42    H     0.30398   0.00436   0.10626   0.00000  Uiso   1.00
H43    H     0.29237   0.33006   0.16625   0.00000  Uiso   1.00
C44    C     0.02574   0.29844   0.14826   0.00000  Uiso   1.00
H45    H     0.02735   0.27578   0.17775   0.00000  Uiso   1.00
H46    H     0.05170   0.32458   0.15963   0.00000  Uiso   1.00
H47    H     0.03951   0.28361   0.11744   0.00000  Uiso   1.00
O48    O     0.14732   0.03857   0.24894   0.00000  Uiso   1.00
C49    C     0.19435   0.04492   0.27921   0.00000  Uiso   1.00
H50    H     0.18791   0.06989   0.30398   0.00000  Uiso   1.00
H51    H     0.22609   0.05575   0.25975   0.00000  Uiso   1.00
C52    C     0.21145   0.00630   0.30847   0.00000  Uiso   1.00
H53    H     0.18079   0.33021   0.32967   0.00000  Uiso   1.00
H54    H     0.21857   0.31390   0.28497   0.00000  Uiso   1.00
C55    C     0.26140   0.01423   0.00792   0.00000  Uiso   1.00
H56    H     0.29207   0.02490   0.32076   0.00000  Uiso   1.00
H57    H     0.27450   0.31849   0.02633   0.00000  Uiso   1.00
H58    H     0.25521   0.03786   0.03441   0.00000  Uiso   1.00
C59    C     0.50101   0.08733   0.16716   0.00000  Uiso   1.00
C60    C     0.50108   0.24587   0.16665   0.00000  Uiso   1.00
C61    C     0.40126   0.16686   0.15458   0.00000  Uiso   1.00
C62    C     0.59874   0.16678   0.17875   0.00000  Uiso   1.00
C63    C     0.34597   0.16719   0.14792   0.00000  Uiso   1.00
C64    C     0.65402   0.16696   0.18539   0.00000  Uiso   1.00
C65    C     0.52139   0.02197   0.13114   0.00000  Uiso   1.00
C66    C     0.48738   0.31094   0.20489   0.00000  Uiso   1.00
C67    C     0.52555   0.31266   0.13205   0.00000  Uiso   1.00
C68    C     0.49109   0.01999   0.20791   0.00000  Uiso   1.00
C69    C     0.50422   0.29036   0.16719   0.00000  Uiso   1.00
C70    C     0.50382   0.04261   0.16867   0.00000  Uiso   1.00
C71    C     0.46490   0.14383   0.02057   0.00000  Uiso   1.00
C72    C     0.53504   0.18956   0.31275   0.00000  Uiso   1.00
C73    C     0.46482   0.14393   0.30433   0.00000  Uiso   1.00
C74    C     0.53503   0.18953   0.02897   0.00000  Uiso   1.00
Cu75   Cu    0.50000   0.16667   0.21355   0.00000  Uiso   1.00
Cu76   Cu    0.50000   0.16666   0.11978   0.00000  Uiso   1.00
H77    H     0.65932   0.16750   0.11197   0.00000  Uiso   1.00
H78    H     0.34066   0.16673   0.22134   0.00000  Uiso   1.00
H79    H     0.53480   0.03897   0.10243   0.00000  Uiso   1.00
H80    H     0.47279   0.29410   0.23316   0.00000  Uiso   1.00
H81    H     0.43689   0.12538   0.03584   0.00000  Uiso   1.00
H82    H     0.56306   0.20800   0.29748   0.00000  Uiso   1.00
H83    H     0.43678   0.12552   0.28233   0.00000  Uiso   1.00
H84    H     0.56309   0.20784   0.05094   0.00000  Uiso   1.00
N85    N     0.50001   0.16668   0.28403   0.00000  Uiso   1.00
N86    N     0.49999   0.16666   0.04931   0.00000  Uiso   1.00
O87    O     0.50000   0.10655   0.20625   0.00000  Uiso   1.00
O88    O     0.50000   0.22678   0.12709   0.00000  Uiso   1.00
O89    O     0.50000   0.10654   0.12706   0.00000  Uiso   1.00
O90    O     0.50000   0.22679   0.20628   0.00000  Uiso   1.00
O91    O     0.42495   0.16667   0.19712   0.00000  Uiso   1.00
O92    O     0.57505   0.16666   0.13621   0.00000  Uiso   1.00
O93    O     0.42494   0.16666   0.11793   0.00000  Uiso   1.00
O94    O     0.57506   0.16667   0.21540   0.00000  Uiso   1.00
O95    O     0.55063   0.29383   0.09837   0.00000  Uiso   1.00
C96    C     0.59981   0.27935   0.11925   0.00000  Uiso   1.00
H97    H     0.61605   0.26106   0.09219   0.00000  Uiso   1.00
H98    H     0.59714   0.25804   0.14945   0.00000  Uiso   1.00
C99    C     0.63758   0.31453   0.13500   0.00000  Uiso   1.00
H100   H     0.63731   0.00436   0.10626   0.00000  Uiso   1.00
H101   H     0.62570   0.33006   0.16625   0.00000  Uiso   1.00
C102   C     0.35908   0.29844   0.14826   0.00000  Uiso   1.00
H103   H     0.36069   0.27578   0.17775   0.00000  Uiso   1.00
H104   H     0.38503   0.32458   0.15963   0.00000  Uiso   1.00
H105   H     0.37284   0.28361   0.11744   0.00000  Uiso   1.00
O106   O     0.48065   0.03857   0.24894   0.00000  Uiso   1.00
C107   C     0.52769   0.04492   0.27921   0.00000  Uiso   1.00
H108   H     0.52125   0.06989   0.30398   0.00000  Uiso   1.00
H109   H     0.55943   0.05575   0.25975   0.00000  Uiso   1.00
C110   C     0.54478   0.00630   0.30847   0.00000  Uiso   1.00
H111   H     0.51413   0.33021   0.32967   0.00000  Uiso   1.00
H112   H     0.55191   0.31390   0.28497   0.00000  Uiso   1.00
C113   C     0.59473   0.01423   0.00792   0.00000  Uiso   1.00
H114   H     0.62541   0.02490   0.32076   0.00000  Uiso   1.00
H115   H     0.60784   0.31849   0.02633   0.00000  Uiso   1.00
H116   H     0.58855   0.03786   0.03441   0.00000  Uiso   1.00
C117   C     0.83434   0.08733   0.16716   0.00000  Uiso   1.00
C118   C     0.83441   0.24587   0.16665   0.00000  Uiso   1.00
C119   C     0.73459   0.16686   0.15458   0.00000  Uiso   1.00
C120   C     0.93207   0.16678   0.17875   0.00000  Uiso   1.00
C121   C     0.67930   0.16719   0.14792   0.00000  Uiso   1.00
C122   C     0.98735   0.16696   0.18539   0.00000  Uiso   1.00
C123   C     0.85472   0.02197   0.13114   0.00000  Uiso   1.00
C124   C     0.82071   0.31094   0.20489   0.00000  Uiso   1.00
C125   C     0.85888   0.31266   0.13205   0.00000  Uiso   1.00
C126   C     0.82442   0.01999   0.20791   0.00000  Uiso   1.00
C127   C     0.83755   0.29036   0.16719   0.00000  Uiso   1.00
C128   C     0.83715   0.04261   0.16867   0.00000  Uiso   1.00
C129   C     0.79823   0.14383   0.02057   0.00000  Uiso   1.00
C130   C     0.86837   0.18956   0.31275   0.00000  Uiso   1.00
C131   C     0.79815   0.14393   0.30433   0.00000  Uiso   1.00
C132   C     0.86836   0.18953   0.02897   0.00000  Uiso   1.00
Cu133  Cu    0.83333   0.16667   0.21355   0.00000  Uiso   1.00
Cu134  Cu    0.83333   0.16666   0.11978   0.00000  Uiso   1.00
H135   H     0.99265   0.16750   0.11197   0.00000  Uiso   1.00
H136   H     0.67400   0.16673   0.22134   0.00000  Uiso   1.00
H137   H     0.86814   0.03897   0.10243   0.00000  Uiso   1.00
H138   H     0.80613   0.29410   0.23316   0.00000  Uiso   1.00
H139   H     0.77022   0.12538   0.03584   0.00000  Uiso   1.00
H140   H     0.89640   0.20800   0.29748   0.00000  Uiso   1.00
H141   H     0.77012   0.12552   0.28233   0.00000  Uiso   1.00
H142   H     0.89642   0.20784   0.05094   0.00000  Uiso   1.00
N143   N     0.83335   0.16668   0.28403   0.00000  Uiso   1.00
N144   N     0.83332   0.16666   0.04931   0.00000  Uiso   1.00
O145   O     0.83333   0.10655   0.20625   0.00000  Uiso   1.00
O146   O     0.83334   0.22678   0.12709   0.00000  Uiso   1.00
O147   O     0.83333   0.10654   0.12706   0.00000  Uiso   1.00
O148   O     0.83334   0.22679   0.20628   0.00000  Uiso   1.00
O149   O     0.75828   0.16667   0.19712   0.00000  Uiso   1.00
O150   O     0.90839   0.16666   0.13621   0.00000  Uiso   1.00
O151   O     0.75828   0.16666   0.11793   0.00000  Uiso   1.00
O152   O     0.90839   0.16667   0.21540   0.00000  Uiso   1.00
O153   O     0.88397   0.29383   0.09837   0.00000  Uiso   1.00
C154   C     0.93314   0.27935   0.11925   0.00000  Uiso   1.00
H155   H     0.94938   0.26106   0.09219   0.00000  Uiso   1.00
H156   H     0.93047   0.25804   0.14945   0.00000  Uiso   1.00
C157   C     0.97092   0.31453   0.13500   0.00000  Uiso   1.00
H158   H     0.97065   0.00436   0.10626   0.00000  Uiso   1.00
H159   H     0.95904   0.33006   0.16625   0.00000  Uiso   1.00
C160   C     0.69241   0.29844   0.14826   0.00000  Uiso   1.00
H161   H     0.69402   0.27578   0.17775   0.00000  Uiso   1.00
H162   H     0.71837   0.32458   0.15963   0.00000  Uiso   1.00
H163   H     0.70617   0.28361   0.11744   0.00000  Uiso   1.00
O164   O     0.81399   0.03857   0.24894   0.00000  Uiso   1.00
C165   C     0.86102   0.04492   0.27921   0.00000  Uiso   1.00
H166   H     0.85458   0.06989   0.30398   0.00000  Uiso   1.00
H167   H     0.89276   0.05575   0.25975   0.00000  Uiso   1.00
C168   C     0.87811   0.00630   0.30847   0.00000  Uiso   1.00
H169   H     0.84746   0.33021   0.32967   0.00000  Uiso   1.00
H170   H     0.88524   0.31390   0.28497   0.00000  Uiso   1.00
C171   C     0.92806   0.01423   0.00792   0.00000  Uiso   1.00
H172   H     0.95874   0.02490   0.32076   0.00000  Uiso   1.00
H173   H     0.94117   0.31849   0.02633   0.00000  Uiso   1.00
H174   H     0.92188   0.03786   0.03441   0.00000  Uiso   1.00
C175   C     0.16767   0.42066   0.16716   0.00000  Uiso   1.00
C176   C     0.16775   0.57920   0.16665   0.00000  Uiso   1.00
C177   C     0.06792   0.50020   0.15458   0.00000  Uiso   1.00
C178   C     0.26541   0.50011   0.17875   0.00000  Uiso   1.00
C179   C     0.01263   0.50052   0.14792   0.00000  Uiso   1.00
C180   C     0.32069   0.50029   0.18539   0.00000  Uiso   1.00
C181   C     0.18805   0.35530   0.13114   0.00000  Uiso   1.00
C182   C     0.15405   0.64427   0.20489   0.00000  Uiso   1.00
C183   C     0.19221   0.64599   0.13205   0.00000  Uiso   1.00
C184   C     0.15775   0.35332   0.20791   0.00000  Uiso   1.00
C185   C     0.17088   0.62369   0.16719   0.00000  Uiso   1.00
C186   C     0.17048   0.37594   0.16867   0.00000  Uiso   1.00
C187   C     0.13156   0.47716   0.02057   0.00000  Uiso   1.00
C188   C     0.20171   0.52289   0.31275   0.00000  Uiso   1.00
C189   C     0.13148   0.47727   0.30433   0.00000  Uiso   1.00
C190   C     0.20170   0.52286   0.02897   0.00000  Uiso   1.00
Cu191  Cu    0.16667   0.50001   0.21355   0.00000  Uiso   1.00
Cu192  Cu    0.16667   0.49999   0.11978   0.00000  Uiso   1.00
H193   H     0.32599   0.50083   0.11197   0.00000  Uiso   1.00
H194   H     0.00733   0.50007   0.22134   0.00000  Uiso   1.00
H195   H     0.20147   0.37231   0.10243   0.00000  Uiso   1.00
H196   H     0.13946   0.62744   0.23316   0.00000  Uiso   1.00
H197   H     0.10356   0.45871   0.03584   0.00000  Uiso   1.00
H198   H     0.22973   0.54134   0.29748   0.00000  Uiso   1.00
H199   H     0.10345   0.45886   0.28233   0.00000  Uiso   1.00
H200   H     0.22976   0.54117   0.05094   0.00000  Uiso   1.00
N201   N     0.16668   0.50001   0.28403   0.00000  Uiso   1.00
N202   N     0.16665   0.49999   0.04931   0.00000  Uiso   1.00
O203   O     0.16666   0.43989   0.20625   0.00000  Uiso   1.00
O204   O     0.16667   0.56011   0.12709   0.00000  Uiso   1.00
O205   O     0.16666   0.43988   0.12706   0.00000  Uiso   1.00
O206   O     0.16667   0.56012   0.20628   0.00000  Uiso   1.00
O207   O     0.09161   0.50000   0.19712   0.00000  Uiso   1.00
O208   O     0.24172   0.50000   0.13621   0.00000  Uiso   1.00
O209   O     0.09161   0.49999   0.11793   0.00000  Uiso   1.00
O210   O     0.24172   0.50001   0.21540   0.00000  Uiso   1.00
O211   O     0.21730   0.62716   0.09837   0.00000  Uiso   1.00
C212   C     0.26647   0.61269   0.11925   0.00000  Uiso   1.00
H213   H     0.28272   0.59439   0.09219   0.00000  Uiso   1.00
H214   H     0.26380   0.59137   0.14945   0.00000  Uiso   1.00
C215   C     0.30425   0.64787   0.13500   0.00000  Uiso   1.00
H216   H     0.30398   0.33770   0.10626   0.00000  Uiso   1.00
H217   H     0.29237   0.66339   0.16625   0.00000  Uiso   1.00
C218   C     0.02574   0.63177   0.14826   0.00000  Uiso   1.00
H219   H     0.02735   0.60911   0.17775   0.00000  Uiso   1.00
H220   H     0.05170   0.65791   0.15963   0.00000  Uiso   1.00
H221   H     0.03951   0.61694   0.11744   0.00000  Uiso   1.00
O222   O     0.14732   0.37190   0.24894   0.00000  Uiso   1.00
C223   C     0.19435   0.37825   0.27921   0.00000  Uiso   1.00
H224   H     0.18791   0.40322   0.30398   0.00000  Uiso   1.00
H225   H     0.22609   0.38908   0.25975   0.00000  Uiso   1.00
C226   C     0.21145   0.33963   0.30847   0.00000  Uiso   1.00
H227   H     0.18079   0.66354   0.32967   0.00000  Uiso   1.00
H228   H     0.21857   0.64723   0.28497   0.00000  Uiso   1.00
C229   C     0.26140   0.34756   0.00792   0.00000  Uiso   1.00
H230   H     0.29207   0.35824   0.32076   0.00000  Uiso   1.00
H231   H     0.27450   0.65182   0.02633   0.00000  Uiso   1.00
H232   H     0.25521   0.37119   0.03441   0.00000  Uiso   1.00
C233   C     0.50101   0.42066   0.16716   0.00000  Uiso   1.00
C234   C     0.50108   0.57920   0.16665   0.00000  Uiso   1.00
C235   C     0.40126   0.50020   0.15458   0.00000  Uiso   1.00
C236   C     0.59874   0.50011   0.17875   0.00000  Uiso   1.00
C237   C     0.34597   0.50052   0.14792   0.00000  Uiso   1.00
C238   C     0.65402   0.50029   0.18539   0.00000  Uiso   1.00
C239   C     0.52139   0.35530   0.13114   0.00000  Uiso   1.00
C240   C     0.48738   0.64427   0.20489   0.00000  Uiso   1.00
C241   C     0.52555   0.64599   0.13205   0.00000  Uiso   1.00
C242   C     0.49109   0.35332   0.20791   0.00000  Uiso   1.00
C243   C     0.50422   0.62369   0.16719   0.00000  Uiso   1.00
C244   C     0.50382   0.37594   0.16867   0.00000  Uiso   1.00
C245   C     0.46490   0.47716   0.02057   0.00000  Uiso   1.00
C246   C     0.53504   0.52289   0.31275   0.00000  Uiso   1.00
C247   C     0.46482   0.47727   0.30433   0.00000  Uiso   1.00
C248   C     0.53503   0.52286   0.02897   0.00000  Uiso   1.00
Cu249  Cu    0.50000   0.50001   0.21355   0.00000  Uiso   1.00
Cu250  Cu    0.50000   0.49999   0.11978   0.00000  Uiso   1.00
H251   H     0.65932   0.50083   0.11197   0.00000  Uiso   1.00
H252   H     0.34066   0.50007   0.22134   0.00000  Uiso   1.00
H253   H     0.53480   0.37231   0.10243   0.00000  Uiso   1.00
H254   H     0.47279   0.62744   0.23316   0.00000  Uiso   1.00
H255   H     0.43689   0.45871   0.03584   0.00000  Uiso   1.00
H256   H     0.56306   0.54134   0.29748   0.00000  Uiso   1.00
H257   H     0.43678   0.45886   0.28233   0.00000  Uiso   1.00
H258   H     0.56309   0.54117   0.05094   0.00000  Uiso   1.00
N259   N     0.50001   0.50001   0.28403   0.00000  Uiso   1.00
N260   N     0.49999   0.49999   0.04931   0.00000  Uiso   1.00
O261   O     0.50000   0.43989   0.20625   0.00000  Uiso   1.00
O262   O     0.50000   0.56011   0.12709   0.00000  Uiso   1.00
O263   O     0.50000   0.43988   0.12706   0.00000  Uiso   1.00
O264   O     0.50000   0.56012   0.20628   0.00000  Uiso   1.00
O265   O     0.42495   0.50000   0.19712   0.00000  Uiso   1.00
O266   O     0.57505   0.50000   0.13621   0.00000  Uiso   1.00
O267   O     0.42494   0.49999   0.11793   0.00000  Uiso   1.00
O268   O     0.57506   0.50001   0.21540   0.00000  Uiso   1.00
O269   O     0.55063   0.62716   0.09837   0.00000  Uiso   1.00
C270   C     0.59981   0.61269   0.11925   0.00000  Uiso   1.00
H271   H     0.61605   0.59439   0.09219   0.00000  Uiso   1.00
H272   H     0.59714   0.59137   0.14945   0.00000  Uiso   1.00
C273   C     0.63758   0.64787   0.13500   0.00000  Uiso   1.00
H274   H     0.63731   0.33770   0.10626   0.00000  Uiso   1.00
H275   H     0.62570   0.66339   0.16625   0.00000  Uiso   1.00
C276   C     0.35908   0.63177   0.14826   0.00000  Uiso   1.00
H277   H     0.36069   0.60911   0.17775   0.00000  Uiso   1.00
H278   H     0.38503   0.65791   0.15963   0.00000  Uiso   1.00
H279   H     0.37284   0.61694   0.11744   0.00000  Uiso   1.00
O280   O     0.48065   0.37190   0.24894   0.00000  Uiso   1.00
C281   C     0.52769   0.37825   0.27921   0.00000  Uiso   1.00
H282   H     0.52125   0.40322   0.30398   0.00000  Uiso   1.00
H283   H     0.55943   0.38908   0.25975   0.00000  Uiso   1.00
C284   C     0.54478   0.33963   0.30847   0.00000  Uiso   1.00
H285   H     0.51413   0.66354   0.32967   0.00000  Uiso   1.00
H286   H     0.55191   0.64723   0.28497   0.00000  Uiso   1.00
C287   C     0.59473   0.34756   0.00792   0.00000  Uiso   1.00
H288   H     0.62541   0.35824   0.32076   0.00000  Uiso   1.00
H289   H     0.60784   0.65182   0.02633   0.00000  Uiso   1.00
H290   H     0.58855   0.37119   0.03441   0.00000  Uiso   1.00
C291   C     0.83434   0.42066   0.16716   0.00000  Uiso   1.00
C292   C     0.83441   0.57920   0.16665   0.00000  Uiso   1.00
C293   C     0.73459   0.50020   0.15458   0.00000  Uiso   1.00
C294   C     0.93207   0.50011   0.17875   0.00000  Uiso   1.00
C295   C     0.67930   0.50052   0.14792   0.00000  Uiso   1.00
C296   C     0.98735   0.50029   0.18539   0.00000  Uiso   1.00
C297   C     0.85472   0.35530   0.13114   0.00000  Uiso   1.00
C298   C     0.82071   0.64427   0.20489   0.00000  Uiso   1.00
C299   C     0.85888   0.64599   0.13205   0.00000  Uiso   1.00
C300   C     0.82442   0.35332   0.20791   0.00000  Uiso   1.00
C301   C     0.83755   0.62369   0.16719   0.00000  Uiso   1.00
C302   C     0.83715   0.37594   0.16867   0.00000  Uiso   1.00
C303   C     0.79823   0.47716   0.02057   0.00000  Uiso   1.00
C304   C     0.86837   0.52289   0.31275   0.00000  Uiso   1.00
C305   C     0.79815   0.47727   0.30433   0.00000  Uiso   1.00
C306   C     0.86836   0.52286   0.02897   0.00000  Uiso   1.00
Cu307  Cu    0.83333   0.50001   0.21355   0.00000  Uiso   1.00
Cu308  Cu    0.83333   0.49999   0.11978   0.00000  Uiso   1.00
H309   H     0.99265   0.50083   0.11197   0.00000  Uiso   1.00
H310   H     0.67400   0.50007   0.22134   0.00000  Uiso   1.00
H311   H     0.86814   0.37231   0.10243   0.00000  Uiso   1.00
H312   H     0.80613   0.62744   0.23316   0.00000  Uiso   1.00
H313   H     0.77022   0.45871   0.03584   0.00000  Uiso   1.00
H314   H     0.89640   0.54134   0.29748   0.00000  Uiso   1.00
H315   H     0.77012   0.45886   0.28233   0.00000  Uiso   1.00
H316   H     0.89642   0.54117   0.05094   0.00000  Uiso   1.00
N317   N     0.83335   0.50001   0.28403   0.00000  Uiso   1.00
N318   N     0.83332   0.49999   0.04931   0.00000  Uiso   1.00
O319   O     0.83333   0.43989   0.20625   0.00000  Uiso   1.00
O320   O     0.83334   0.56011   0.12709   0.00000  Uiso   1.00
O321   O     0.83333   0.43988   0.12706   0.00000  Uiso   1.00
O322   O     0.83334   0.56012   0.20628   0.00000  Uiso   1.00
O323   O     0.75828   0.50000   0.19712   0.00000  Uiso   1.00
O324   O     0.90839   0.50000   0.13621   0.00000  Uiso   1.00
O325   O     0.75828   0.49999   0.11793   0.00000  Uiso   1.00
O326   O     0.90839   0.50001   0.21540   0.00000  Uiso   1.00
O327   O     0.88397   0.62716   0.09837   0.00000  Uiso   1.00
C328   C     0.93314   0.61269   0.11925   0.00000  Uiso   1.00
H329   H     0.94938   0.59439   0.09219   0.00000  Uiso   1.00
H330   H     0.93047   0.59137   0.14945   0.00000  Uiso   1.00
C331   C     0.97092   0.64787   0.13500   0.00000  Uiso   1.00
H332   H     0.97065   0.33770   0.10626   0.00000  Uiso   1.00
H333   H     0.95904   0.66339   0.16625   0.00000  Uiso   1.00
C334   C     0.69241   0.63177   0.14826   0.00000  Uiso   1.00
H335   H     0.69402   0.60911   0.17775   0.00000  Uiso   1.00
H336   H     0.71837   0.65791   0.15963   0.00000  Uiso   1.00
H337   H     0.70617   0.61694   0.11744   0.00000  Uiso   1.00
O338   O     0.81399   0.37190   0.24894   0.00000  Uiso   1.00
C339   C     0.86102   0.37825   0.27921   0.00000  Uiso   1.00
H340   H     0.85458   0.40322   0.30398   0.00000  Uiso   1.00
H341   H     0.89276   0.38908   0.25975   0.00000  Uiso   1.00
C342   C     0.87811   0.33963   0.30847   0.00000  Uiso   1.00
H343   H     0.84746   0.66354   0.32967   0.00000  Uiso   1.00
H344   H     0.88524   0.64723   0.28497   0.00000  Uiso   1.00
C345   C     0.92806   0.34756   0.00792   0.00000  Uiso   1.00
H346   H     0.95874   0.35824   0.32076   0.00000  Uiso   1.00
H347   H     0.94117   0.65182   0.02633   0.00000  Uiso   1.00
H348   H     0.92188   0.37119   0.03441   0.00000  Uiso   1.00
C349   C     0.16767   0.75400   0.16716   0.00000  Uiso   1.00
C350   C     0.16775   0.91254   0.16665   0.00000  Uiso   1.00
C351   C     0.06792   0.83353   0.15458   0.00000  Uiso   1.00
C352   C     0.26541   0.83344   0.17875   0.00000  Uiso   1.00
C353   C     0.01263   0.83386   0.14792   0.00000  Uiso   1.00
C354   C     0.32069   0.83362   0.18539   0.00000  Uiso   1.00
C355   C     0.18805   0.68864   0.13114   0.00000  Uiso   1.00
C356   C     0.15405   0.97760   0.20489   0.00000  Uiso   1.00
C357   C     0.19221   0.97933   0.13205   0.00000  Uiso   1.00
C358   C     0.15775   0.68666   0.20791   0.00000  Uiso   1.00
C359   C     0.17088   0.95702   0.16719   0.00000  Uiso   1.00
C360   C     0.17048   0.70927   0.16867   0.00000  Uiso   1.00
C361   C     0.13156   0.81049   0.02057   0.00000  Uiso   1.00
C362   C     0.20171   0.85623   0.31275   0.00000  Uiso   1.00
C363   C     0.13148   0.81060   0.30433   0.00000  Uiso   1.00
C364   C     0.20170   0.85619   0.02897   0.00000  Uiso   1.00
Cu365  Cu    0.16667   0.83334   0.21355   0.00000  Uiso   1.00
Cu366  Cu    0.16667   0.83333   0.11978   0.00000  Uiso   1.00
H367   H     0.32599   0.83416   0.11197   0.00000  Uiso   1.00
H368   H     0.00733   0.83340   0.22134   0.00000  Uiso   1.00
H369   H     0.20147   0.70564   0.10243   0.00000  Uiso   1.00
H370   H     0.13946   0.96077   0.23316   0.00000  Uiso   1.00
H371   H     0.10356   0.79205   0.03584   0.00000  Uiso   1.00
H372   H     0.22973   0.87467   0.29748   0.00000  Uiso   1.00
H373   H     0.10345   0.79219   0.28233   0.00000  Uiso   1.00
H374   H     0.22976   0.87450   0.05094   0.00000  Uiso   1.00
N375   N     0.16668   0.83334   0.28403   0.00000  Uiso   1.00
N376   N     0.16665   0.83332   0.04931   0.00000  Uiso   1.00
O377   O     0.16666   0.77322   0.20625   0.00000  Uiso   1.00
O378   O     0.16667   0.89345   0.12709   0.00000  Uiso   1.00
O379   O     0.16666   0.77321   0.12706   0.00000  Uiso   1.00
O380   O     0.16667   0.89346   0.20628   0.00000  Uiso   1.00
O381   O     0.09161   0.83334   0.19712   0.00000  Uiso   1.00
O382   O     0.24172   0.83333   0.13621   0.00000  Uiso   1.00
O383   O     0.09161   0.83333   0.11793   0.00000  Uiso   1.00
O384   O     0.24172   0.83334   0.21540   0.00000  Uiso   1.00
O385   O     0.21730   0.96049   0.09837   0.00000  Uiso   1.00
C386   C     0.26647   0.94602   0.11925   0.00000  Uiso   1.00
H387   H     0.28272   0.92773   0.09219   0.00000  Uiso   1.00
H388   H     0.26380   0.92471   0.14945   0.00000  Uiso   1.00
C389   C     0.30425   0.98120   0.13500   0.00000  Uiso   1.00
H390   H     0.30398   0.67103   0.10626   0.00000  Uiso   1.00
H391   H     0.29237   0.99673   0.16625   0.00000  Uiso   1.00
C392   C     0.02574   0.96511   0.14826   0.00000  Uiso   1.00
H393   H     0.02735   0.94245   0.17775   0.00000  Uiso   1.00
H394   H     0.05170   0.99125   0.15963   0.00000  Uiso   1.00
H395   H     0.03951   0.95027   0.11744   0.00000  Uiso   1.00
O396   O     0.14732   0.70523   0.24894   0.00000  Uiso   1.00
C397   C     0.19435   0.71159   0.27921   0.00000  Uiso   1.00
H398   H     0.18791   0.73656   0.30398   0.00000  Uiso   1.00
H399   H     0.22609   0.72242   0.25975   0.00000  Uiso   1.00
C400   C     0.21145   0.67296   0.30847   0.00000  Uiso   1.00
H401   H     0.18079   0.99688   0.32967   0.00000  Uiso   1.00
H402   H     0.21857   0.98057   0.28497   0.00000  Uiso   1.00
C403   C     0.26140   0.68090   0.00792   0.00000  Uiso   1.00
H404   H     0.29207   0.69157   0.32076   0.00000  Uiso   1.00
H405   H     0.27450   0.98516   0.02633   0.00000  Uiso   1.00
H406   H     0.25521   0.70452   0.03441   0.00000  Uiso   1.00
C407   C     0.50101   0.75400   0.16716   0.00000  Uiso   1.00
C408   C     0.50108   0.91254   0.16665   0.00000  Uiso   1.00
C409   C     0.40126   0.83353   0.15458   0.00000  Uiso   1.00
C410   C     0.59874   0.83344   0.17875   0.00000  Uiso   1.00
C411   C     0.34597   0.83386   0.14792   0.00000  Uiso   1.00
C412   C     0.65402   0.83362   0.18539   0.00000  Uiso   1.00
C413   C     0.52139   0.68864   0.13114   0.00000  Uiso   1.00
C414   C     0.48738   0.97760   0.20489   0.00000  Uiso   1.00
C415   C     0.52555   0.97933   0.13205   0.00000  Uiso   1.00
C416   C     0.49109   0.68666   0.20791   0.00000  Uiso   1.00
C417   C     0.50422   0.95702   0.16719   0.00000  Uiso   1.00
C418   C     0.50382   0.70927   0.16867   0.00000  Uiso   1.00
C419   C     0.46490   0.81049   0.02057   0.00000  Uiso   1.00
C420   C     0.53504   0.85623   0.31275   0.00000  Uiso   1.00
C421   C     0.46482   0.81060   0.30433   0.00000  Uiso   1.00
C422   C     0.53503   0.85619   0.02897   0.00000  Uiso   1.00
Cu423  Cu    0.50000   0.83334   0.21355   0.00000  Uiso   1.00
Cu424  Cu    0.50000   0.83333   0.11978   0.00000  Uiso   1.00
H425   H     0.65932   0.83416   0.11197   0.00000  Uiso   1.00
H426   H     0.34066   0.83340   0.22134   0.00000  Uiso   1.00
H427   H     0.53480   0.70564   0.10243   0.00000  Uiso   1.00
H428   H     0.47279   0.96077   0.23316   0.00000  Uiso   1.00
H429   H     0.43689   0.79205   0.03584   0.00000  Uiso   1.00
H430   H     0.56306   0.87467   0.29748   0.00000  Uiso   1.00
H431   H     0.43678   0.79219   0.28233   0.00000  Uiso   1.00
H432   H     0.56309   0.87450   0.05094   0.00000  Uiso   1.00
N433   N     0.50001   0.83334   0.28403   0.00000  Uiso   1.00
N434   N     0.49999   0.83332   0.04931   0.00000  Uiso   1.00
O435   O     0.50000   0.77322   0.20625   0.00000  Uiso   1.00
O436   O     0.50000   0.89345   0.12709   0.00000  Uiso   1.00
O437   O     0.50000   0.77321   0.12706   0.00000  Uiso   1.00
O438   O     0.50000   0.89346   0.20628   0.00000  Uiso   1.00
O439   O     0.42495   0.83334   0.19712   0.00000  Uiso   1.00
O440   O     0.57505   0.83333   0.13621   0.00000  Uiso   1.00
O441   O     0.42494   0.83333   0.11793   0.00000  Uiso   1.00
O442   O     0.57506   0.83334   0.21540   0.00000  Uiso   1.00
O443   O     0.55063   0.96049   0.09837   0.00000  Uiso   1.00
C444   C     0.59981   0.94602   0.11925   0.00000  Uiso   1.00
H445   H     0.61605   0.92773   0.09219   0.00000  Uiso   1.00
H446   H     0.59714   0.92471   0.14945   0.00000  Uiso   1.00
C447   C     0.63758   0.98120   0.13500   0.00000  Uiso   1.00
H448   H     0.63731   0.67103   0.10626   0.00000  Uiso   1.00
H449   H     0.62570   0.99673   0.16625   0.00000  Uiso   1.00
C450   C     0.35908   0.96511   0.14826   0.00000  Uiso   1.00
H451   H     0.36069   0.94245   0.17775   0.00000  Uiso   1.00
H452   H     0.38503   0.99125   0.15963   0.00000  Uiso   1.00
H453   H     0.37284   0.95027   0.11744   0.00000  Uiso   1.00
O454   O     0.48065   0.70523   0.24894   0.00000  Uiso   1.00
C455   C     0.52769   0.71159   0.27921   0.00000  Uiso   1.00
H456   H     0.52125   0.73656   0.30398   0.00000  Uiso   1.00
H457   H     0.55943   0.72242   0.25975   0.00000  Uiso   1.00
C458   C     0.54478   0.67296   0.30847   0.00000  Uiso   1.00
H459   H     0.51413   0.99688   0.32967   0.00000  Uiso   1.00
H460   H     0.55191   0.98057   0.28497   0.00000  Uiso   1.00
C461   C     0.59473   0.68090   0.00792   0.00000  Uiso   1.00
H462   H     0.62541   0.69157   0.32076   0.00000  Uiso   1.00
H463   H     0.60784   0.98516   0.02633   0.00000  Uiso   1.00
H464   H     0.58855   0.70452   0.03441   0.00000  Uiso   1.00
C465   C     0.83434   0.75400   0.16716   0.00000  Uiso   1.00
C466   C     0.83441   0.91254   0.16665   0.00000  Uiso   1.00
C467   C     0.73459   0.83353   0.15458   0.00000  Uiso   1.00
C468   C     0.93207   0.83344   0.17875   0.00000  Uiso   1.00
C469   C     0.67930   0.83386   0.14792   0.00000  Uiso   1.00
C470   C     0.98735   0.83362   0.18539   0.00000  Uiso   1.00
C471   C     0.85472   0.68864   0.13114   0.00000  Uiso   1.00
C472   C     0.82071   0.97760   0.20489   0.00000  Uiso   1.00
C473   C     0.85888   0.97933   0.13205   0.00000  Uiso   1.00
C474   C     0.82442   0.68666   0.20791   0.00000  Uiso   1.00
C475   C     0.83755   0.95702   0.16719   0.00000  Uiso   1.00
C476   C     0.83715   0.70927   0.16867   0.00000  Uiso   1.00
C477   C     0.79823   0.81049   0.02057   0.00000  Uiso   1.00
C478   C     0.86837   0.85623   0.31275   0.00000  Uiso   1.00
C479   C     0.79815   0.81060   0.30433   0.00000  Uiso   1.00
C480   C     0.86836   0.85619   0.02897   0.00000  Uiso   1.00
Cu481  Cu    0.83333   0.83334   0.21355   0.00000  Uiso   1.00
Cu482  Cu    0.83333   0.83333   0.11978   0.00000  Uiso   1.00
H483   H     0.99265   0.83416   0.11197   0.00000  Uiso   1.00
H484   H     0.67400   0.83340   0.22134   0.00000  Uiso   1.00
H485   H     0.86814   0.70564   0.10243   0.00000  Uiso   1.00
H486   H     0.80613   0.96077   0.23316   0.00000  Uiso   1.00
H487   H     0.77022   0.79205   0.03584   0.00000  Uiso   1.00
H488   H     0.89640   0.87467   0.29748   0.00000  Uiso   1.00
H489   H     0.77012   0.79219   0.28233   0.00000  Uiso   1.00
H490   H     0.89642   0.87450   0.05094   0.00000  Uiso   1.00
N491   N     0.83335   0.83334   0.28403   0.00000  Uiso   1.00
N492   N     0.83332   0.83332   0.04931   0.00000  Uiso   1.00
O493   O     0.83333   0.77322   0.20625   0.00000  Uiso   1.00
O494   O     0.83334   0.89345   0.12709   0.00000  Uiso   1.00
O495   O     0.83333   0.77321   0.12706   0.00000  Uiso   1.00
O496   O     0.83334   0.89346   0.20628   0.00000  Uiso   1.00
O497   O     0.75828   0.83334   0.19712   0.00000  Uiso   1.00
O498   O     0.90839   0.83333   0.13621   0.00000  Uiso   1.00
O499   O     0.75828   0.83333   0.11793   0.00000  Uiso   1.00
O500   O     0.90839   0.83334   0.21540   0.00000  Uiso   1.00
O501   O     0.88397   0.96049   0.09837   0.00000  Uiso   1.00
C502   C     0.93314   0.94602   0.11925   0.00000  Uiso   1.00
H503   H     0.94938   0.92773   0.09219   0.00000  Uiso   1.00
H504   H     0.93047   0.92471   0.14945   0.00000  Uiso   1.00
C505   C     0.97092   0.98120   0.13500   0.00000  Uiso   1.00
H506   H     0.97065   0.67103   0.10626   0.00000  Uiso   1.00
H507   H     0.95904   0.99673   0.16625   0.00000  Uiso   1.00
C508   C     0.69241   0.96511   0.14826   0.00000  Uiso   1.00
H509   H     0.69402   0.94245   0.17775   0.00000  Uiso   1.00
H510   H     0.71837   0.99125   0.15963   0.00000  Uiso   1.00
H511   H     0.70617   0.95027   0.11744   0.00000  Uiso   1.00
O512   O     0.81399   0.70523   0.24894   0.00000  Uiso   1.00
C513   C     0.86102   0.71159   0.27921   0.00000  Uiso   1.00
H514   H     0.85458   0.73656   0.30398   0.00000  Uiso   1.00
H515   H     0.89276   0.72242   0.25975   0.00000  Uiso   1.00
C516   C     0.87811   0.67296   0.30847   0.00000  Uiso   1.00
H517   H     0.84746   0.99688   0.32967   0.00000  Uiso   1.00
H518   H     0.88524   0.98057   0.28497   0.00000  Uiso   1.00
C519   C     0.92806   0.68090   0.00792   0.00000  Uiso   1.00
H520   H     0.95874   0.69157   0.32076   0.00000  Uiso   1.00
H521   H     0.94117   0.98516   0.02633   0.00000  Uiso   1.00
H522   H     0.92188   0.70452   0.03441   0.00000  Uiso   1.00
C523   C     0.16767   0.08733   0.50049   0.00000  Uiso   1.00
C524   C     0.16775   0.24587   0.49999   0.00000  Uiso   1.00
C525   C     0.06792   0.16686   0.48791   0.00000  Uiso   1.00
C526   C     0.26541   0.16678   0.51208   0.00000  Uiso   1.00
C527   C     0.01263   0.16719   0.48125   0.00000  Uiso   1.00
C528   C     0.32069   0.16696   0.51873   0.00000  Uiso   1.00
C529   C     0.18805   0.02197   0.46448   0.00000  Uiso   1.00
C530   C     0.15405   0.31094   0.53822   0.00000  Uiso   1.00
C531   C     0.19221   0.31266   0.46538   0.00000  Uiso   1.00
C532   C     0.15775   0.01999   0.54124   0.00000  Uiso   1.00
C533   C     0.17088   0.29036   0.50053   0.00000  Uiso   1.00
C534   C     0.17048   0.04261   0.50200   0.00000  Uiso   1.00
C535   C     0.13156   0.14383   0.35391   0.00000  Uiso   1.00
C536   C     0.20171   0.18956   0.64608   0.00000  Uiso   1.00
C537   C     0.13148   0.14393   0.63766   0.00000  Uiso   1.00
C538   C     0.20170   0.18953   0.36230   0.00000  Uiso   1.00
Cu539  Cu    0.16667   0.16667   0.54689   0.00000  Uiso   1.00
Cu540  Cu    0.16667   0.16666   0.45311   0.00000  Uiso   1.00
H541   H     0.32599   0.16750   0.44530   0.00000  Uiso   1.00
H542   H     0.00733   0.16673   0.55467   0.00000  Uiso   1.00
H543   H     0.20147   0.03897   0.43576   0.00000  Uiso   1.00
H544   H     0.13946   0.29410   0.56649   0.00000  Uiso   1.00
H545   H     0.10356   0.12538   0.36918   0.00000  Uiso   1.00
H546   H     0.22973   0.20800   0.63081   0.00000  Uiso   1.00
H547   H     0.10345   0.12552   0.61566   0.00000  Uiso   1.00
H548   H     0.22976   0.20784   0.38428   0.00000  Uiso   1.00
N549   N     0.16668   0.16668   0.61736   0.00000  Uiso   1.00
N550   N     0.16665   0.16666   0.38264   0.00000  Uiso   1.00
O551   O     0.16666   0.10655   0.53958   0.00000  Uiso   1.00
O552   O     0.16667   0.22678   0.46042   0.00000  Uiso   1.00
O553   O     0.16666   0.10654   0.46039   0.00000  Uiso   1.00
O554   O     0.16667   0.22679   0.53961   0.00000  Uiso   1.00
O555   O     0.09161   0.16667   0.53046   0.00000  Uiso   1.00
O556   O     0.24172   0.16666   0.46954   0.00000  Uiso   1.00
O557   O     0.09161   0.16666   0.45127   0.00000  Uiso   1.00
O558   O     0.24172   0.16667   0.54873   0.00000  Uiso   1.00
O559   O     0.21730   0.29383   0.43170   0.00000  Uiso   1.00
C560   C     0.26647   0.27935   0.45259   0.00000  Uiso   1.00
H561   H     0.28272   0.26106   0.42552   0.00000  Uiso   1.00
H562   H     0.26380   0.25804   0.48278   0.00000  Uiso   1.00
C563   C     0.30425   0.31453   0.46833   0.00000  Uiso   1.00
H564   H     0.30398   0.00436   0.43959   0.00000  Uiso   1.00
H565   H     0.29237   0.33006   0.49959   0.00000  Uiso   1.00
C566   C     0.02574   0.29844   0.48159   0.00000  Uiso   1.00
H567   H     0.02735   0.27578   0.51109   0.00000  Uiso   1.00
H568   H     0.05170   0.32458   0.49296   0.00000  Uiso   1.00
H569   H     0.03951   0.28361   0.45078   0.00000  Uiso   1.00
O570   O     0.14732   0.03857   0.58227   0.00000  Uiso   1.00
C571   C     0.19435   0.04492   0.61254   0.00000  Uiso   1.00
H572   H     0.18791   0.06989   0.63731   0.00000  Uiso   1.00
H573   H     0.22609   0.05575   0.59308   0.00000  Uiso   1.00
C574   C     0.21145   0.00630   0.64180   0.00000  Uiso   1.00
H575   H     0.18079   0.33021   0.66301   0.00000  Uiso   1.00
H576   H     0.21857   0.31390   0.61830   0.00000  Uiso   1.00
C577   C     0.26140   0.01423   0.34126   0.00000  Uiso   1.00
H578   H     0.29207   0.02490   0.65409   0.00000  Uiso   1.00
H579   H     0.27450   0.31849   0.35966   0.00000  Uiso   1.00
H580   H     0.25521   0.03786   0.36774   0.00000  Uiso   1.00
C581   C     0.50101   0.08733   0.50049   0.00000  Uiso   1.00
C582   C     0.50108   0.24587   0.49999   0.00000  Uiso   1.00
C583   C     0.40126   0.16686   0.48791   0.00000  Uiso   1.00
C584   C     0.59874   0.16678   0.51208   0.00000  Uiso   1.00
C585   C     0.34597   0.16719   0.48125   0.00000  Uiso   1.00
C586   C     0.65402   0.16696   0.51873   0.00000  Uiso   1.00
C587   C     0.52139   0.02197   0.46448   0.00000  Uiso   1.00
C588   C     0.48738   0.31094   0.53822   0.00000  Uiso   1.00
C589   C     0.52555   0.31266   0.46538   0.00000  Uiso   1.00
C590   C     0.49109   0.01999   0.54124   0.00000  Uiso   1.00
C591   C     0.50422   0.29036   0.50053   0.00000  Uiso   1.00
C592   C     0.50382   0.04261   0.50200   0.00000  Uiso   1.00
C593   C     0.46490   0.14383   0.35391   0.00000  Uiso   1.00
C594   C     0.53504   0.18956   0.64608   0.00000  Uiso   1.00
C595   C     0.46482   0.14393   0.63766   0.00000  Uiso   1.00
C596   C     0.53503   0.18953   0.36230   0.00000  Uiso   1.00
Cu597  Cu    0.50000   0.16667   0.54689   0.00000  Uiso   1.00
Cu598  Cu    0.50000   0.16666   0.45311   0.00000  Uiso   1.00
H599   H     0.65932   0.16750   0.44530   0.00000  Uiso   1.00
H600   H     0.34066   0.16673   0.55467   0.00000  Uiso   1.00
H601   H     0.53480   0.03897   0.43576   0.00000  Uiso   1.00
H602   H     0.47279   0.29410   0.56649   0.00000  Uiso   1.00
H603   H     0.43689   0.12538   0.36918   0.00000  Uiso   1.00
H604   H     0.56306   0.20800   0.63081   0.00000  Uiso   1.00
H605   H     0.43678   0.12552   0.61566   0.00000  Uiso   1.00
H606   H     0.56309   0.20784   0.38428   0.00000  Uiso   1.00
N607   N     0.50001   0.16668   0.61736   0.00000  Uiso   1.00
N608   N     0.49999   0.16666   0.38264   0.00000  Uiso   1.00
O609   O     0.50000   0.10655   0.53958   0.00000  Uiso   1.00
O610   O     0.50000   0.22678   0.46042   0.00000  Uiso   1.00
O611   O     0.50000   0.10654   0.46039   0.00000  Uiso   1.00
O612   O     0.50000   0.22679   0.53961   0.00000  Uiso   1.00
O613   O     0.42495   0.16667   0.53046   0.00000  Uiso   1.00
O614   O     0.57505   0.16666   0.46954   0.00000  Uiso   1.00
O615   O     0.42494   0.16666   0.45127   0.00000  Uiso   1.00
O616   O     0.57506   0.16667   0.54873   0.00000  Uiso   1.00
O617   O     0.55063   0.29383   0.43170   0.00000  Uiso   1.00
C618   C     0.59981   0.27935   0.45259   0.00000  Uiso   1.00
H619   H     0.61605   0.26106   0.42552   0.00000  Uiso   1.00
H620   H     0.59714   0.25804   0.48278   0.00000  Uiso   1.00
C621   C     0.63758   0.31453   0.46833   0.00000  Uiso   1.00
H622   H     0.63731   0.00436   0.43959   0.00000  Uiso   1.00
H623   H     0.62570   0.33006   0.49959   0.00000  Uiso   1.00
C624   C     0.35908   0.29844   0.48159   0.00000  Uiso   1.00
H625   H     0.36069   0.27578   0.51109   0.00000  Uiso   1.00
H626   H     0.38503   0.32458   0.49296   0.00000  Uiso   1.00
H627   H     0.37284   0.28361   0.45078   0.00000  Uiso   1.00
O628   O     0.48065   0.03857   0.58227   0.00000  Uiso   1.00
C629   C     0.52769   0.04492   0.61254   0.00000  Uiso   1.00
H630   H     0.52125   0.06989   0.63731   0.00000  Uiso   1.00
H631   H     0.55943   0.05575   0.59308   0.00000  Uiso   1.00
C632   C     0.54478   0.00630   0.64180   0.00000  Uiso   1.00
H633   H     0.51413   0.33021   0.66301   0.00000  Uiso   1.00
H634   H     0.55191   0.31390   0.61830   0.00000  Uiso   1.00
C635   C     0.59473   0.01423   0.34126   0.00000  Uiso   1.00
H636   H     0.62541   0.02490   0.65409   0.00000  Uiso   1.00
H637   H     0.60784   0.31849   0.35966   0.00000  Uiso   1.00
H638   H     0.58855   0.03786   0.36774   0.00000  Uiso   1.00
C639   C     0.83434   0.08733   0.50049   0.00000  Uiso   1.00
C640   C     0.83441   0.24587   0.49999   0.00000  Uiso   1.00
C641   C     0.73459   0.16686   0.48791   0.00000  Uiso   1.00
C642   C     0.93207   0.16678   0.51208   0.00000  Uiso   1.00
C643   C     0.67930   0.16719   0.48125   0.00000  Uiso   1.00
C644   C     0.98735   0.16696   0.51873   0.00000  Uiso   1.00
C645   C     0.85472   0.02197   0.46448   0.00000  Uiso   1.00
C646   C     0.82071   0.31094   0.53822   0.00000  Uiso   1.00
C647   C     0.85888   0.31266   0.46538   0.00000  Uiso   1.00
C648   C     0.82442   0.01999   0.54124   0.00000  Uiso   1.00
C649   C     0.83755   0.29036   0.50053   0.00000  Uiso   1.00
C650   C     0.83715   0.04261   0.50200   0.00000  Uiso   1.00
C651   C     0.79823   0.14383   0.35391   0.00000  Uiso   1.00
C652   C     0.86837   0.18956   0.64608   0.00000  Uiso   1.00
C653   C     0.79815   0.14393   0.63766   0.00000  Uiso   1.00
C654   C     0.86836   0.18953   0.36230   0.00000  Uiso   1.00
Cu655  Cu    0.83333   0.16667   0.54689   0.00000  Uiso   1.00
Cu656  Cu    0.83333   0.16666   0.45311   0.00000  Uiso   1.00
H657   H     0.99265   0.16750   0.44530   0.00000  Uiso   1.00
H658   H     0.67400   0.16673   0.55467   0.00000  Uiso   1.00
H659   H     0.86814   0.03897   0.43576   0.00000  Uiso   1.00
H660   H     0.80613   0.29410   0.56649   0.00000  Uiso   1.00
H661   H     0.77022   0.12538   0.36918   0.00000  Uiso   1.00
H662   H     0.89640   0.20800   0.63081   0.00000  Uiso   1.00
H663   H     0.77012   0.12552   0.61566   0.00000  Uiso   1.00
H664   H     0.89642   0.20784   0.38428   0.00000  Uiso   1.00
N665   N     0.83335   0.16668   0.61736   0.00000  Uiso   1.00
N666   N     0.83332   0.16666   0.38264   0.00000  Uiso   1.00
O667   O     0.83333   0.10655   0.53958   0.00000  Uiso   1.00
O668   O     0.83334   0.22678   0.46042   0.00000  Uiso   1.00
O669   O     0.83333   0.10654   0.46039   0.00000  Uiso   1.00
O670   O     0.83334   0.22679   0.53961   0.00000  Uiso   1.00
O671   O     0.75828   0.16667   0.53046   0.00000  Uiso   1.00
O672   O     0.90839   0.16666   0.46954   0.00000  Uiso   1.00
O673   O     0.75828   0.16666   0.45127   0.00000  Uiso   1.00
O674   O     0.90839   0.16667   0.54873   0.00000  Uiso   1.00
O675   O     0.88397   0.29383   0.43170   0.00000  Uiso   1.00
C676   C     0.93314   0.27935   0.45259   0.00000  Uiso   1.00
H677   H     0.94938   0.26106   0.42552   0.00000  Uiso   1.00
H678   H     0.93047   0.25804   0.48278   0.00000  Uiso   1.00
C679   C     0.97092   0.31453   0.46833   0.00000  Uiso   1.00
H680   H     0.97065   0.00436   0.43959   0.00000  Uiso   1.00
H681   H     0.95904   0.33006   0.49959   0.00000  Uiso   1.00
C682   C     0.69241   0.29844   0.48159   0.00000  Uiso   1.00
H683   H     0.69402   0.27578   0.51109   0.00000  Uiso   1.00
H684   H     0.71837   0.32458   0.49296   0.00000  Uiso   1.00
H685   H     0.70617   0.28361   0.45078   0.00000  Uiso   1.00
O686   O     0.81399   0.03857   0.58227   0.00000  Uiso   1.00
C687   C     0.86102   0.04492   0.61254   0.00000  Uiso   1.00
H688   H     0.85458   0.06989   0.63731   0.00000  Uiso   1.00
H689   H     0.89276   0.05575   0.59308   0.00000  Uiso   1.00
C690   C     0.87811   0.00630   0.64180   0.00000  Uiso   1.00
H691   H     0.84746   0.33021   0.66301   0.00000  Uiso   1.00
H692   H     0.88524   0.31390   0.61830   0.00000  Uiso   1.00
C693   C     0.92806   0.01423   0.34126   0.00000  Uiso   1.00
H694   H     0.95874   0.02490   0.65409   0.00000  Uiso   1.00
H695   H     0.94117   0.31849   0.35966   0.00000  Uiso   1.00
H696   H     0.92188   0.03786   0.36774   0.00000  Uiso   1.00
C697   C     0.16767   0.42066   0.50049   0.00000  Uiso   1.00
C698   C     0.16775   0.57920   0.49999   0.00000  Uiso   1.00
C699   C     0.06792   0.50020   0.48791   0.00000  Uiso   1.00
C700   C     0.26541   0.50011   0.51208   0.00000  Uiso   1.00
C701   C     0.01263   0.50052   0.48125   0.00000  Uiso   1.00
C702   C     0.32069   0.50029   0.51873   0.00000  Uiso   1.00
C703   C     0.18805   0.35530   0.46448   0.00000  Uiso   1.00
C704   C     0.15405   0.64427   0.53822   0.00000  Uiso   1.00
C705   C     0.19221   0.64599   0.46538   0.00000  Uiso   1.00
C706   C     0.15775   0.35332   0.54124   0.00000  Uiso   1.00
C707   C     0.17088   0.62369   0.50053   0.00000  Uiso   1.00
C708   C     0.17048   0.37594   0.50200   0.00000  Uiso   1.00
C709   C     0.13156   0.47716   0.35391   0.00000  Uiso   1.00
C710   C     0.20171   0.52289   0.64608   0.00000  Uiso   1.00
C711   C     0.13148   0.47727   0.63766   0.00000  Uiso   1.00
C712   C     0.20170   0.52286   0.36230   0.00000  Uiso   1.00
Cu713  Cu    0.16667   0.50001   0.54689   0.00000  Uiso   1.00
Cu714  Cu    0.16667   0.49999   0.45311   0.00000  Uiso   1.00
H715   H     0.32599   0.50083   0.44530   0.00000  Uiso   1.00
H716   H     0.00733   0.50007   0.55467   0.00000  Uiso   1.00
H717   H     0.20147   0.37231   0.43576   0.00000  Uiso   1.00
H718   H     0.13946   0.62744   0.56649   0.00000  Uiso   1.00
H719   H     0.10356   0.45871   0.36918   0.00000  Uiso   1.00
H720   H     0.22973   0.54134   0.63081   0.00000  Uiso   1.00
H721   H     0.10345   0.45886   0.61566   0.00000  Uiso   1.00
H722   H     0.22976   0.54117   0.38428   0.00000  Uiso   1.00
N723   N     0.16668   0.50001   0.61736   0.00000  Uiso   1.00
N724   N     0.16665   0.49999   0.38264   0.00000  Uiso   1.00
O725   O     0.16666   0.43989   0.53958   0.00000  Uiso   1.00
O726   O     0.16667   0.56011   0.46042   0.00000  Uiso   1.00
O727   O     0.16666   0.43988   0.46039   0.00000  Uiso   1.00
O728   O     0.16667   0.56012   0.53961   0.00000  Uiso   1.00
O729   O     0.09161   0.50000   0.53046   0.00000  Uiso   1.00
O730   O     0.24172   0.50000   0.46954   0.00000  Uiso   1.00
O731   O     0.09161   0.49999   0.45127   0.00000  Uiso   1.00
O732   O     0.24172   0.50001   0.54873   0.00000  Uiso   1.00
O733   O     0.21730   0.62716   0.43170   0.00000  Uiso   1.00
C734   C     0.26647   0.61269   0.45259   0.00000  Uiso   1.00
H735   H     0.28272   0.59439   0.42552   0.00000  Uiso   1.00
H736   H     0.26380   0.59137   0.48278   0.00000  Uiso   1.00
C737   C     0.30425   0.64787   0.46833   0.00000  Uiso   1.00
H738   H     0.30398   0.33770   0.43959   0.00000  Uiso   1.00
H739   H     0.29237   0.66339   0.49959   0.00000  Uiso   1.00
C740   C     0.02574   0.63177   0.48159   0.00000  Uiso   1.00
H741   H     0.02735   0.60911   0.51109   0.00000  Uiso   1.00
H742   H     0.05170   0.65791   0.49296   0.00000  Uiso   1.00
H743   H     0.03951   0.61694   0.45078   0.00000  Uiso   1.00
O744   O     0.14732   0.37190   0.58227   0.00000  Uiso   1.00
C745   C     0.19435   0.37825   0.61254   0.00000  Uiso   1.00
H746   H     0.18791   0.40322   0.63731   0.00000  Uiso   1.00
H747   H     0.22609   0.38908   0.59308   0.00000  Uiso   1.00
C748   C     0.21145   0.33963   0.64180   0.00000  Uiso   1.00
H749   H     0.18079   0.66354   0.66301   0.00000  Uiso   1.00
H750   H     0.21857   0.64723   0.61830   0.00000  Uiso   1.00
C751   C     0.26140   0.34756   0.34126   0.00000  Uiso   1.00
H752   H     0.29207   0.35824   0.65409   0.00000  Uiso   1.00
H753   H     0.27450   0.65182   0.35966   0.00000  Uiso   1.00
H754   H     0.25521   0.37119   0.36774   0.00000  Uiso   1.00
C755   C     0.50101   0.42066   0.50049   0.00000  Uiso   1.00
C756   C     0.50108   0.57920   0.49999   0.00000  Uiso   1.00
C757   C     0.40126   0.50020   0.48791   0.00000  Uiso   1.00
C758   C     0.59874   0.50011   0.51208   0.00000  Uiso   1.00
C759   C     0.34597   0.50052   0.48125   0.00000  Uiso   1.00
C760   C     0.65402   0.50029   0.51873   0.00000  Uiso   1.00
C761   C     0.52139   0.35530   0.46448   0.00000  Uiso   1.00
C762   C     0.48738   0.64427   0.53822   0.00000  Uiso   1.00
C763   C     0.52555   0.64599   0.46538   0.00000  Uiso   1.00
C764   C     0.49109   0.35332   0.54124   0.00000  Uiso   1.00
C765   C     0.50422   0.62369   0.50053   0.00000  Uiso   1.00
C766   C     0.50382   0.37594   0.50200   0.00000  Uiso   1.00
C767   C     0.46490   0.47716   0.35391   0.00000  Uiso   1.00
C768   C     0.53504   0.52289   0.64608   0.00000  Uiso   1.00
C769   C     0.46482   0.47727   0.63766   0.00000  Uiso   1.00
C770   C     0.53503   0.52286   0.36230   0.00000  Uiso   1.00
Cu771  Cu    0.50000   0.50001   0.54689   0.00000  Uiso   1.00
Cu772  Cu    0.50000   0.49999   0.45311   0.00000  Uiso   1.00
H773   H     0.65932   0.50083   0.44530   0.00000  Uiso   1.00
H774   H     0.34066   0.50007   0.55467   0.00000  Uiso   1.00
H775   H     0.53480   0.37231   0.43576   0.00000  Uiso   1.00
H776   H     0.47279   0.62744   0.56649   0.00000  Uiso   1.00
H777   H     0.43689   0.45871   0.36918   0.00000  Uiso   1.00
H778   H     0.56306   0.54134   0.63081   0.00000  Uiso   1.00
H779   H     0.43678   0.45886   0.61566   0.00000  Uiso   1.00
H780   H     0.56309   0.54117   0.38428   0.00000  Uiso   1.00
N781   N     0.50001   0.50001   0.61736   0.00000  Uiso   1.00
N782   N     0.49999   0.49999   0.38264   0.00000  Uiso   1.00
O783   O     0.50000   0.43989   0.53958   0.00000  Uiso   1.00
O784   O     0.50000   0.56011   0.46042   0.00000  Uiso   1.00
O785   O     0.50000   0.43988   0.46039   0.00000  Uiso   1.00
O786   O     0.50000   0.56012   0.53961   0.00000  Uiso   1.00
O787   O     0.42495   0.50000   0.53046   0.00000  Uiso   1.00
O788   O     0.57505   0.50000   0.46954   0.00000  Uiso   1.00
O789   O     0.42494   0.49999   0.45127   0.00000  Uiso   1.00
O790   O     0.57506   0.50001   0.54873   0.00000  Uiso   1.00
O791   O     0.55063   0.62716   0.43170   0.00000  Uiso   1.00
C792   C     0.59981   0.61269   0.45259   0.00000  Uiso   1.00
H793   H     0.61605   0.59439   0.42552   0.00000  Uiso   1.00
H794   H     0.59714   0.59137   0.48278   0.00000  Uiso   1.00
C795   C     0.63758   0.64787   0.46833   0.00000  Uiso   1.00
H796   H     0.63731   0.33770   0.43959   0.00000  Uiso   1.00
H797   H     0.62570   0.66339   0.49959   0.00000  Uiso   1.00
C798   C     0.35908   0.63177   0.48159   0.00000  Uiso   1.00
H799   H     0.36069   0.60911   0.51109   0.00000  Uiso   1.00
H800   H     0.38503   0.65791   0.49296   0.00000  Uiso   1.00
H801   H     0.37284   0.61694   0.45078   0.00000  Uiso   1.00
O802   O     0.48065   0.37190   0.58227   0.00000  Uiso   1.00
C803   C     0.52769   0.37825   0.61254   0.00000  Uiso   1.00
H804   H     0.52125   0.40322   0.63731   0.00000  Uiso   1.00
H805   H     0.55943   0.38908   0.59308   0.00000  Uiso   1.00
C806   C     0.54478   0.33963   0.64180   0.00000  Uiso   1.00
H807   H     0.51413   0.66354   0.66301   0.00000  Uiso   1.00
H808   H     0.55191   0.64723   0.61830   0.00000  Uiso   1.00
C809   C     0.59473   0.34756   0.34126   0.00000  Uiso   1.00
H810   H     0.62541   0.35824   0.65409   0.00000  Uiso   1.00
H811   H     0.60784   0.65182   0.35966   0.00000  Uiso   1.00
H812   H     0.58855   0.37119   0.36774   0.00000  Uiso   1.00
C813   C     0.83434   0.42066   0.50049   0.00000  Uiso   1.00
C814   C     0.83441   0.57920   0.49999   0.00000  Uiso   1.00
C815   C     0.73459   0.50020   0.48791   0.00000  Uiso   1.00
C816   C     0.93207   0.50011   0.51208   0.00000  Uiso   1.00
C817   C     0.67930   0.50052   0.48125   0.00000  Uiso   1.00
C818   C     0.98735   0.50029   0.51873   0.00000  Uiso   1.00
C819   C     0.85472   0.35530   0.46448   0.00000  Uiso   1.00
C820   C     0.82071   0.64427   0.53822   0.00000  Uiso   1.00
C821   C     0.85888   0.64599   0.46538   0.00000  Uiso   1.00
C822   C     0.82442   0.35332   0.54124   0.00000  Uiso   1.00
C823   C     0.83755   0.62369   0.50053   0.00000  Uiso   1.00
C824   C     0.83715   0.37594   0.50200   0.00000  Uiso   1.00
C825   C     0.79823   0.47716   0.35391   0.00000  Uiso   1.00
C826   C     0.86837   0.52289   0.64608   0.00000  Uiso   1.00
C827   C     0.79815   0.47727   0.63766   0.00000  Uiso   1.00
C828   C     0.86836   0.52286   0.36230   0.00000  Uiso   1.00
Cu829  Cu    0.83333   0.50001   0.54689   0.00000  Uiso   1.00
Cu830  Cu    0.83333   0.49999   0.45311   0.00000  Uiso   1.00
H831   H     0.99265   0.50083   0.44530   0.00000  Uiso   1.00
H832   H     0.67400   0.50007   0.55467   0.00000  Uiso   1.00
H833   H     0.86814   0.37231   0.43576   0.00000  Uiso   1.00
H834   H     0.80613   0.62744   0.56649   0.00000  Uiso   1.00
H835   H     0.77022   0.45871   0.36918   0.00000  Uiso   1.00
H836   H     0.89640   0.54134   0.63081   0.00000  Uiso   1.00
H837   H     0.77012   0.45886   0.61566   0.00000  Uiso   1.00
H838   H     0.89642   0.54117   0.38428   0.00000  Uiso   1.00
N839   N     0.83335   0.50001   0.61736   0.00000  Uiso   1.00
N840   N     0.83332   0.49999   0.38264   0.00000  Uiso   1.00
O841   O     0.83333   0.43989   0.53958   0.00000  Uiso   1.00
O842   O     0.83334   0.56011   0.46042   0.00000  Uiso   1.00
O843   O     0.83333   0.43988   0.46039   0.00000  Uiso   1.00
O844   O     0.83334   0.56012   0.53961   0.00000  Uiso   1.00
O845   O     0.75828   0.50000   0.53046   0.00000  Uiso   1.00
O846   O     0.90839   0.50000   0.46954   0.00000  Uiso   1.00
O847   O     0.75828   0.49999   0.45127   0.00000  Uiso   1.00
O848   O     0.90839   0.50001   0.54873   0.00000  Uiso   1.00
O849   O     0.88397   0.62716   0.43170   0.00000  Uiso   1.00
C850   C     0.93314   0.61269   0.45259   0.00000  Uiso   1.00
H851   H     0.94938   0.59439   0.42552   0.00000  Uiso   1.00
H852   H     0.93047   0.59137   0.48278   0.00000  Uiso   1.00
C853   C     0.97092   0.64787   0.46833   0.00000  Uiso   1.00
H854   H     0.97065   0.33770   0.43959   0.00000  Uiso   1.00
H855   H     0.95904   0.66339   0.49959   0.00000  Uiso   1.00
C856   C     0.69241   0.63177   0.48159   0.00000  Uiso   1.00
H857   H     0.69402   0.60911   0.51109   0.00000  Uiso   1.00
H858   H     0.71837   0.65791   0.49296   0.00000  Uiso   1.00
H859   H     0.70617   0.61694   0.45078   0.00000  Uiso   1.00
O860   O     0.81399   0.37190   0.58227   0.00000  Uiso   1.00
C861   C     0.86102   0.37825   0.61254   0.00000  Uiso   1.00
H862   H     0.85458   0.40322   0.63731   0.00000  Uiso   1.00
H863   H     0.89276   0.38908   0.59308   0.00000  Uiso   1.00
C864   C     0.87811   0.33963   0.64180   0.00000  Uiso   1.00
H865   H     0.84746   0.66354   0.66301   0.00000  Uiso   1.00
H866   H     0.88524   0.64723   0.61830   0.00000  Uiso   1.00
C867   C     0.92806   0.34756   0.34126   0.00000  Uiso   1.00
H868   H     0.95874   0.35824   0.65409   0.00000  Uiso   1.00
H869   H     0.94117   0.65182   0.35966   0.00000  Uiso   1.00
H870   H     0.92188   0.37119   0.36774   0.00000  Uiso   1.00
C871   C     0.16767   0.75400   0.50049   0.00000  Uiso   1.00
C872   C     0.16775   0.91254   0.49999   0.00000  Uiso   1.00
C873   C     0.06792   0.83353   0.48791   0.00000  Uiso   1.00
C874   C     0.26541   0.83344   0.51208   0.00000  Uiso   1.00
C875   C     0.01263   0.83386   0.48125   0.00000  Uiso   1.00
C876   C     0.32069   0.83362   0.51873   0.00000  Uiso   1.00
C877   C     0.18805   0.68864   0.46448   0.00000  Uiso   1.00
C878   C     0.15405   0.97760   0.53822   0.00000  Uiso   1.00
C879   C     0.19221   0.97933   0.46538   0.00000  Uiso   1.00
C880   C     0.15775   0.68666   0.54124   0.00000  Uiso   1.00
C881   C     0.17088   0.95702   0.50053   0.00000  Uiso   1.00
C882   C     0.17048   0.70927   0.50200   0.00000  Uiso   1.00
C883   C     0.13156   0.81049   0.35391   0.00000  Uiso   1.00
C884   C     0.20171   0.85623   0.64608   0.00000  Uiso   1.00
C885   C     0.13148   0.81060   0.63766   0.00000  Uiso   1.00
C886   C     0.20170   0.85619   0.36230   0.00000  Uiso   1.00
Cu887  Cu    0.16667   0.83334   0.54689   0.00000  Uiso   1.00
Cu888  Cu    0.16667   0.83333   0.45311   0.00000  Uiso   1.00
H889   H     0.32599   0.83416   0.44530   0.00000  Uiso   1.00
H890   H     0.00733   0.83340   0.55467   0.00000  Uiso   1.00
H891   H     0.20147   0.70564   0.43576   0.00000  Uiso   1.00
H892   H     0.13946   0.96077   0.56649   0.00000  Uiso   1.00
H893   H     0.10356   0.79205   0.36918   0.00000  Uiso   1.00
H894   H     0.22973   0.87467   0.63081   0.00000  Uiso   1.00
H895   H     0.10345   0.79219   0.61566   0.00000  Uiso   1.00
H896   H     0.22976   0.87450   0.38428   0.00000  Uiso   1.00
N897   N     0.16668   0.83334   0.61736   0.00000  Uiso   1.00
N898   N     0.16665   0.83332   0.38264   0.00000  Uiso   1.00
O899   O     0.16666   0.77322   0.53958   0.00000  Uiso   1.00
O900   O     0.16667   0.89345   0.46042   0.00000  Uiso   1.00
O901   O     0.16666   0.77321   0.46039   0.00000  Uiso   1.00
O902   O     0.16667   0.89346   0.53961   0.00000  Uiso   1.00
O903   O     0.09161   0.83334   0.53046   0.00000  Uiso   1.00
O904   O     0.24172   0.83333   0.46954   0.00000  Uiso   1.00
O905   O     0.09161   0.83333   0.45127   0.00000  Uiso   1.00
O906   O     0.24172   0.83334   0.54873   0.00000  Uiso   1.00
O907   O     0.21730   0.96049   0.43170   0.00000  Uiso   1.00
C908   C     0.26647   0.94602   0.45259   0.00000  Uiso   1.00
H909   H     0.28272   0.92773   0.42552   0.00000  Uiso   1.00
H910   H     0.26380   0.92471   0.48278   0.00000  Uiso   1.00
C911   C     0.30425   0.98120   0.46833   0.00000  Uiso   1.00
H912   H     0.30398   0.67103   0.43959   0.00000  Uiso   1.00
H913   H     0.29237   0.99673   0.49959   0.00000  Uiso   1.00
C914   C     0.02574   0.96511   0.48159   0.00000  Uiso   1.00
H915   H     0.02735   0.94245   0.51109   0.00000  Uiso   1.00
H916   H     0.05170   0.99125   0.49296   0.00000  Uiso   1.00
H917   H     0.03951   0.95027   0.45078   0.00000  Uiso   1.00
O918   O     0.14732   0.70523   0.58227   0.00000  Uiso   1.00
C919   C     0.19435   0.71159   0.61254   0.00000  Uiso   1.00
H920   H     0.18791   0.73656   0.63731   0.00000  Uiso   1.00
H921   H     0.22609   0.72242   0.59308   0.00000  Uiso   1.00
C922   C     0.21145   0.67296   0.64180   0.00000  Uiso   1.00
H923   H     0.18079   0.99688   0.66301   0.00000  Uiso   1.00
H924   H     0.21857   0.98057   0.61830   0.00000  Uiso   1.00
C925   C     0.26140   0.68090   0.34126   0.00000  Uiso   1.00
H926   H     0.29207   0.69157   0.65409   0.00000  Uiso   1.00
H927   H     0.27450   0.98516   0.35966   0.00000  Uiso   1.00
H928   H     0.25521   0.70452   0.36774   0.00000  Uiso   1.00
C929   C     0.50101   0.75400   0.50049   0.00000  Uiso   1.00
C930   C     0.50108   0.91254   0.49999   0.00000  Uiso   1.00
C931   C     0.40126   0.83353   0.48791   0.00000  Uiso   1.00
C932   C     0.59874   0.83344   0.51208   0.00000  Uiso   1.00
C933   C     0.34597   0.83386   0.48125   0.00000  Uiso   1.00
C934   C     0.65402   0.83362   0.51873   0.00000  Uiso   1.00
C935   C     0.52139   0.68864   0.46448   0.00000  Uiso   1.00
C936   C     0.48738   0.97760   0.53822   0.00000  Uiso   1.00
C937   C     0.52555   0.97933   0.46538   0.00000  Uiso   1.00
C938   C     0.49109   0.68666   0.54124   0.00000  Uiso   1.00
C939   C     0.50422   0.95702   0.50053   0.00000  Uiso   1.00
C940   C     0.50382   0.70927   0.50200   0.00000  Uiso   1.00
C941   C     0.46490   0.81049   0.35391   0.00000  Uiso   1.00
C942   C     0.53504   0.85623   0.64608   0.00000  Uiso   1.00
C943   C     0.46482   0.81060   0.63766   0.00000  Uiso   1.00
C944   C     0.53503   0.85619   0.36230   0.00000  Uiso   1.00
Cu945  Cu    0.50000   0.83334   0.54689   0.00000  Uiso   1.00
Cu946  Cu    0.50000   0.83333   0.45311   0.00000  Uiso   1.00
H947   H     0.65932   0.83416   0.44530   0.00000  Uiso   1.00
H948   H     0.34066   0.83340   0.55467   0.00000  Uiso   1.00
H949   H     0.53480   0.70564   0.43576   0.00000  Uiso   1.00
H950   H     0.47279   0.96077   0.56649   0.00000  Uiso   1.00
H951   H     0.43689   0.79205   0.36918   0.00000  Uiso   1.00
H952   H     0.56306   0.87467   0.63081   0.00000  Uiso   1.00
H953   H     0.43678   0.79219   0.61566   0.00000  Uiso   1.00
H954   H     0.56309   0.87450   0.38428   0.00000  Uiso   1.00
N955   N     0.50001   0.83334   0.61736   0.00000  Uiso   1.00
N956   N     0.49999   0.83332   0.38264   0.00000  Uiso   1.00
O957   O     0.50000   0.77322   0.53958   0.00000  Uiso   1.00
O958   O     0.50000   0.89345   0.46042   0.00000  Uiso   1.00
O959   O     0.50000   0.77321   0.46039   0.00000  Uiso   1.00
O960   O     0.50000   0.89346   0.53961   0.00000  Uiso   1.00
O961   O     0.42495   0.83334   0.53046   0.00000  Uiso   1.00
O962   O     0.57505   0.83333   0.46954   0.00000  Uiso   1.00
O963   O     0.42494   0.83333   0.45127   0.00000  Uiso   1.00
O964   O     0.57506   0.83334   0.54873   0.00000  Uiso   1.00
O965   O     0.55063   0.96049   0.43170   0.00000  Uiso   1.00
C966   C     0.59981   0.94602   0.45259   0.00000  Uiso   1.00
H967   H     0.61605   0.92773   0.42552   0.00000  Uiso   1.00
H968   H     0.59714   0.92471   0.48278   0.00000  Uiso   1.00
C969   C     0.63758   0.98120   0.46833   0.00000  Uiso   1.00
H970   H     0.63731   0.67103   0.43959   0.00000  Uiso   1.00
H971   H     0.62570   0.99673   0.49959   0.00000  Uiso   1.00
C972   C     0.35908   0.96511   0.48159   0.00000  Uiso   1.00
H973   H     0.36069   0.94245   0.51109   0.00000  Uiso   1.00
H974   H     0.38503   0.99125   0.49296   0.00000  Uiso   1.00
H975   H     0.37284   0.95027   0.45078   0.00000  Uiso   1.00
O976   O     0.48065   0.70523   0.58227   0.00000  Uiso   1.00
C977   C     0.52769   0.71159   0.61254   0.00000  Uiso   1.00
H978   H     0.52125   0.73656   0.63731   0.00000  Uiso   1.00
H979   H     0.55943   0.72242   0.59308   0.00000  Uiso   1.00
C980   C     0.54478   0.67296   0.64180   0.00000  Uiso   1.00
H981   H     0.51413   0.99688   0.66301   0.00000  Uiso   1.00
H982   H     0.55191   0.98057   0.61830   0.00000  Uiso   1.00
C983   C     0.59473   0.68090   0.34126   0.00000  Uiso   1.00
H984   H     0.62541   0.69157   0.65409   0.00000  Uiso   1.00
H985   H     0.60784   0.98516   0.35966   0.00000  Uiso   1.00
H986   H     0.58855   0.70452   0.36774   0.00000  Uiso   1.00
C987   C     0.83434   0.75400   0.50049   0.00000  Uiso   1.00
C988   C     0.83441   0.91254   0.49999   0.00000  Uiso   1.00
C989   C     0.73459   0.83353   0.48791   0.00000  Uiso   1.00
C990   C     0.93207   0.83344   0.51208   0.00000  Uiso   1.00
C991   C     0.67930   0.83386   0.48125   0.00000  Uiso   1.00
C992   C     0.98735   0.83362   0.51873   0.00000  Uiso   1.00
C993   C     0.85472   0.68864   0.46448   0.00000  Uiso   1.00
C994   C     0.82071   0.97760   0.53822   0.00000  Uiso   1.00
C995   C     0.85888   0.97933   0.46538   0.00000  Uiso   1.00
C996   C     0.82442   0.68666   0.54124   0.00000  Uiso   1.00
C997   C     0.83755   0.95702   0.50053   0.00000  Uiso   1.00
C998   C     0.83715   0.70927   0.50200   0.00000  Uiso   1.00
C999   C     0.79823   0.81049   0.35391   0.00000  Uiso   1.00
C1000  C     0.86837   0.85623   0.64608   0.00000  Uiso   1.00
C1001  C     0.79815   0.81060   0.63766   0.00000  Uiso   1.00
C1002  C     0.86836   0.85619   0.36230   0.00000  Uiso   1.00
Cu1003 Cu    0.83333   0.83334   0.54689   0.00000  Uiso   1.00
Cu1004 Cu    0.83333   0.83333   0.45311   0.00000  Uiso   1.00
H1005  H     0.99265   0.83416   0.44530   0.00000  Uiso   1.00
H1006  H     0.67400   0.83340   0.55467   0.00000  Uiso   1.00
H1007  H     0.86814   0.70564   0.43576   0.00000  Uiso   1.00
H1008  H     0.80613   0.96077   0.56649   0.00000  Uiso   1.00
H1009  H     0.77022   0.79205   0.36918   0.00000  Uiso   1.00
H1010  H     0.89640   0.87467   0.63081   0.00000  Uiso   1.00
H1011  H     0.77012   0.79219   0.61566   0.00000  Uiso   1.00
H1012  H     0.89642   0.87450   0.38428   0.00000  Uiso   1.00
N1013  N     0.83335   0.83334   0.61736   0.00000  Uiso   1.00
N1014  N     0.83332   0.83332   0.38264   0.00000  Uiso   1.00
O1015  O     0.83333   0.77322   0.53958   0.00000  Uiso   1.00
O1016  O     0.83334   0.89345   0.46042   0.00000  Uiso   1.00
O1017  O     0.83333   0.77321   0.46039   0.00000  Uiso   1.00
O1018  O     0.83334   0.89346   0.53961   0.00000  Uiso   1.00
O1019  O     0.75828   0.83334   0.53046   0.00000  Uiso   1.00
O1020  O     0.90839   0.83333   0.46954   0.00000  Uiso   1.00
O1021  O     0.75828   0.83333   0.45127   0.00000  Uiso   1.00
O1022  O     0.90839   0.83334   0.54873   0.00000  Uiso   1.00
O1023  O     0.88397   0.96049   0.43170   0.00000  Uiso   1.00
C1024  C     0.93314   0.94602   0.45259   0.00000  Uiso   1.00
H1025  H     0.94938   0.92773   0.42552   0.00000  Uiso   1.00
H1026  H     0.93047   0.92471   0.48278   0.00000  Uiso   1.00
C1027  C     0.97092   0.98120   0.46833   0.00000  Uiso   1.00
H1028  H     0.97065   0.67103   0.43959   0.00000  Uiso   1.00
H1029  H     0.95904   0.99673   0.49959   0.00000  Uiso   1.00
C1030  C     0.69241   0.96511   0.48159   0.00000  Uiso   1.00
H1031  H     0.69402   0.94245   0.51109   0.00000  Uiso   1.00
H1032  H     0.71837   0.99125   0.49296   0.00000  Uiso   1.00
H1033  H     0.70617   0.95027   0.45078   0.00000  Uiso   1.00
O1034  O     0.81399   0.70523   0.58227   0.00000  Uiso   1.00
C1035  C     0.86102   0.71159   0.61254   0.00000  Uiso   1.00
H1036  H     0.85458   0.73656   0.63731   0.00000  Uiso   1.00
H1037  H     0.89276   0.72242   0.59308   0.00000  Uiso   1.00
C1038  C     0.87811   0.67296   0.64180   0.00000  Uiso   1.00
H1039  H     0.84746   0.99688   0.66301   0.00000  Uiso   1.00
H1040  H     0.88524   0.98057   0.61830   0.00000  Uiso   1.00
C1041  C     0.92806   0.68090   0.34126   0.00000  Uiso   1.00
H1042  H     0.95874   0.69157   0.65409   0.00000  Uiso   1.00
H1043  H     0.94117   0.98516   0.35966   0.00000  Uiso   1.00
H1044  H     0.92188   0.70452   0.36774   0.00000  Uiso   1.00
C1045  C     0.16767   0.08733   0.83383   0.00000  Uiso   1.00
C1046  C     0.16775   0.24587   0.83332   0.00000  Uiso   1.00
C1047  C     0.06792   0.16686   0.82125   0.00000  Uiso   1.00
C1048  C     0.26541   0.16678   0.84541   0.00000  Uiso   1.00
C1049  C     0.01263   0.16719   0.81458   0.00000  Uiso   1.00
C1050  C     0.32069   0.16696   0.85206   0.00000  Uiso   1.00
C1051  C     0.18805   0.02197   0.79781   0.00000  Uiso   1.00
C1052  C     0.15405   0.31094   0.87156   0.00000  Uiso   1.00
C1053  C     0.19221   0.31266   0.79872   0.00000  Uiso   1.00
C1054  C     0.15775   0.01999   0.87457   0.00000  Uiso   1.00
C1055  C     0.17088   0.29036   0.83386   0.00000  Uiso   1.00
C1056  C     0.17048   0.04261   0.83534   0.00000  Uiso   1.00
C1057  C     0.13156   0.14383   0.68724   0.00000  Uiso   1.00
C1058  C     0.20171   0.18956   0.97941   0.00000  Uiso   1.00
C1059  C     0.13148   0.14393   0.97099   0.00000  Uiso   1.00
C1060  C     0.20170   0.18953   0.69564   0.00000  Uiso   1.00
Cu1061 Cu    0.16667   0.16667   0.88022   0.00000  Uiso   1.00
Cu1062 Cu    0.16667   0.16666   0.78645   0.00000  Uiso   1.00
H1063  H     0.32599   0.16750   0.77864   0.00000  Uiso   1.00
H1064  H     0.00733   0.16673   0.88801   0.00000  Uiso   1.00
H1065  H     0.20147   0.03897   0.76909   0.00000  Uiso   1.00
H1066  H     0.13946   0.29410   0.89983   0.00000  Uiso   1.00
H1067  H     0.10356   0.12538   0.70251   0.00000  Uiso   1.00
H1068  H     0.22973   0.20800   0.96414   0.00000  Uiso   1.00
H1069  H     0.10345   0.12552   0.94900   0.00000  Uiso   1.00
H1070  H     0.22976   0.20784   0.71761   0.00000  Uiso   1.00
N1071  N     0.16668   0.16668   0.95069   0.00000  Uiso   1.00
N1072  N     0.16665   0.16666   0.71597   0.00000  Uiso   1.00
O1073  O     0.16666   0.10655   0.87291   0.00000  Uiso   1.00
O1074  O     0.16667   0.22678   0.79375   0.00000  Uiso   1.00
O1075  O     0.16666   0.10654   0.79372   0.00000  Uiso   1.00
O1076  O     0.16667   0.22679   0.87294   0.00000  Uiso   1.00
O1077  O     0.09161   0.16667   0.86379   0.00000  Uiso   1.00
O1078  O     0.24172   0.16666   0.80288   0.00000  Uiso   1.00
O1079  O     0.09161   0.16666   0.78460   0.00000  Uiso   1.00
O1080  O     0.24172   0.16667   0.88207   0.00000  Uiso   1.00
O1081  O     0.21730   0.29383   0.76504   0.00000  Uiso   1.00
C1082  C     0.26647   0.27935   0.78592   0.00000  Uiso   1.00
H1083  H     0.28272   0.26106   0.75885   0.00000  Uiso   1.00
H1084  H     0.26380   0.25804   0.81611   0.00000  Uiso   1.00
C1085  C     0.30425   0.31453   0.80166   0.00000  Uiso   1.00
H1086  H     0.30398   0.00436   0.77293   0.00000  Uiso   1.00
H1087  H     0.29237   0.33006   0.83292   0.00000  Uiso   1.00
C1088  C     0.02574   0.29844   0.81493   0.00000  Uiso   1.00
H1089  H     0.02735   0.27578   0.84442   0.00000  Uiso   1.00
H1090  H     0.05170   0.32458   0.82629   0.00000  Uiso   1.00
H1091  H     0.03951   0.28361   0.78411   0.00000  Uiso   1.00
O1092  O     0.14732   0.03857   0.91561   0.00000  Uiso   1.00
C1093  C     0.19435   0.04492   0.94588   0.00000  Uiso   1.00
H1094  H     0.18791   0.06989   0.97064   0.00000  Uiso   1.00
H1095  H     0.22609   0.05575   0.92641   0.00000  Uiso   1.00
C1096  C     0.21145   0.00630   0.97513   0.00000  Uiso   1.00
H1097  H     0.18079   0.33021   0.99634   0.00000  Uiso   1.00
H1098  H     0.21857   0.31390   0.95164   0.00000  Uiso   1.00
C1099  C     0.26140   0.01423   0.67459   0.00000  Uiso   1.00
H1100  H     0.29207   0.02490   0.98743   0.00000  Uiso   1.00
H1101  H     0.27450   0.31849   0.69299   0.00000  Uiso   1.00
H1102  H     0.25521   0.03786   0.70107   0.00000  Uiso   1.00
C1103  C     0.50101   0.08733   0.83383   0.00000  Uiso   1.00
C1104  C     0.50108   0.24587   0.83332   0.00000  Uiso   1.00
C1105  C     0.40126   0.16686   0.82125   0.00000  Uiso   1.00
C1106  C     0.59874   0.16678   0.84541   0.00000  Uiso   1.00
C1107  C     0.34597   0.16719   0.81458   0.00000  Uiso   1.00
C1108  C     0.65402   0.16696   0.85206   0.00000  Uiso   1.00
C1109  C     0.52139   0.02197   0.79781   0.00000  Uiso   1.00
C1110  C     0.48738   0.31094   0.87156   0.00000  Uiso   1.00
C1111  C     0.52555   0.31266   0.79872   0.00000  Uiso   1.00
C1112  C     0.49109   0.01999   0.87457   0.00000  Uiso   1.00
C1113  C     0.50422   0.29036   0.83386   0.00000  Uiso   1.00
C1114  C     0.50382   0.04261   0.83534   0.00000  Uiso   1.00
C1115  C     0.46490   0.14383   0.68724   0.00000  Uiso   1.00
C1116  C     0.53504   0.18956   0.97941   0.00000  Uiso   1.00
C1117  C     0.46482   0.14393   0.97099   0.00000  Uiso   1.00
C1118  C     0.53503   0.18953   0.69564   0.00000  Uiso   1.00
Cu1119 Cu    0.50000   0.16667   0.88022   0.00000  Uiso   1.00
Cu1120 Cu    0.50000   0.16666   0.78645   0.00000  Uiso   1.00
H1121  H     0.65932   0.16750   0.77864   0.00000  Uiso   1.00
H1122  H     0.34066   0.16673   0.88801   0.00000  Uiso   1.00
H1123  H     0.53480   0.03897   0.76909   0.00000  Uiso   1.00
H1124  H     0.47279   0.29410   0.89983   0.00000  Uiso   1.00
H1125  H     0.43689   0.12538   0.70251   0.00000  Uiso   1.00
H1126  H     0.56306   0.20800   0.96414   0.00000  Uiso   1.00
H1127  H     0.43678   0.12552   0.94900   0.00000  Uiso   1.00
H1128  H     0.56309   0.20784   0.71761   0.00000  Uiso   1.00
N1129  N     0.50001   0.16668   0.95069   0.00000  Uiso   1.00
N1130  N     0.49999   0.16666   0.71597   0.00000  Uiso   1.00
O1131  O     0.50000   0.10655   0.87291   0.00000  Uiso   1.00
O1132  O     0.50000   0.22678   0.79375   0.00000  Uiso   1.00
O1133  O     0.50000   0.10654   0.79372   0.00000  Uiso   1.00
O1134  O     0.50000   0.22679   0.87294   0.00000  Uiso   1.00
O1135  O     0.42495   0.16667   0.86379   0.00000  Uiso   1.00
O1136  O     0.57505   0.16666   0.80288   0.00000  Uiso   1.00
O1137  O     0.42494   0.16666   0.78460   0.00000  Uiso   1.00
O1138  O     0.57506   0.16667   0.88207   0.00000  Uiso   1.00
O1139  O     0.55063   0.29383   0.76504   0.00000  Uiso   1.00
C1140  C     0.59981   0.27935   0.78592   0.00000  Uiso   1.00
H1141  H     0.61605   0.26106   0.75885   0.00000  Uiso   1.00
H1142  H     0.59714   0.25804   0.81611   0.00000  Uiso   1.00
C1143  C     0.63758   0.31453   0.80166   0.00000  Uiso   1.00
H1144  H     0.63731   0.00436   0.77293   0.00000  Uiso   1.00
H1145  H     0.62570   0.33006   0.83292   0.00000  Uiso   1.00
C1146  C     0.35908   0.29844   0.81493   0.00000  Uiso   1.00
H1147  H     0.36069   0.27578   0.84442   0.00000  Uiso   1.00
H1148  H     0.38503   0.32458   0.82629   0.00000  Uiso   1.00
H1149  H     0.37284   0.28361   0.78411   0.00000  Uiso   1.00
O1150  O     0.48065   0.03857   0.91561   0.00000  Uiso   1.00
C1151  C     0.52769   0.04492   0.94588   0.00000  Uiso   1.00
H1152  H     0.52125   0.06989   0.97064   0.00000  Uiso   1.00
H1153  H     0.55943   0.05575   0.92641   0.00000  Uiso   1.00
C1154  C     0.54478   0.00630   0.97513   0.00000  Uiso   1.00
H1155  H     0.51413   0.33021   0.99634   0.00000  Uiso   1.00
H1156  H     0.55191   0.31390   0.95164   0.00000  Uiso   1.00
C1157  C     0.59473   0.01423   0.67459   0.00000  Uiso   1.00
H1158  H     0.62541   0.02490   0.98743   0.00000  Uiso   1.00
H1159  H     0.60784   0.31849   0.69299   0.00000  Uiso   1.00
H1160  H     0.58855   0.03786   0.70107   0.00000  Uiso   1.00
C1161  C     0.83434   0.08733   0.83383   0.00000  Uiso   1.00
C1162  C     0.83441   0.24587   0.83332   0.00000  Uiso   1.00
C1163  C     0.73459   0.16686   0.82125   0.00000  Uiso   1.00
C1164  C     0.93207   0.16678   0.84541   0.00000  Uiso   1.00
C1165  C     0.67930   0.16719   0.81458   0.00000  Uiso   1.00
C1166  C     0.98735   0.16696   0.85206   0.00000  Uiso   1.00
C1167  C     0.85472   0.02197   0.79781   0.00000  Uiso   1.00
C1168  C     0.82071   0.31094   0.87156   0.00000  Uiso   1.00
C1169  C     0.85888   0.31266   0.79872   0.00000  Uiso   1.00
C1170  C     0.82442   0.01999   0.87457   0.00000  Uiso   1.00
C1171  C     0.83755   0.29036   0.83386   0.00000  Uiso   1.00
C1172  C     0.83715   0.04261   0.83534   0.00000  Uiso   1.00
C1173  C     0.79823   0.14383   0.68724   0.00000  Uiso   1.00
C1174  C     0.86837   0.18956   0.97941   0.00000  Uiso   1.00
C1175  C     0.79815   0.14393   0.97099   0.00000  Uiso   1.00
C1176  C     0.86836   0.18953   0.69564   0.00000  Uiso   1.00
Cu1177 Cu    0.83333   0.16667   0.88022   0.00000  Uiso   1.00
Cu1178 Cu    0.83333   0.16666   0.78645   0.00000  Uiso   1.00
H1179  H     0.99265   0.16750   0.77864   0.00000  Uiso   1.00
H1180  H     0.67400   0.16673   0.88801   0.00000  Uiso   1.00
H1181  H     0.86814   0.03897   0.76909   0.00000  Uiso   1.00
H1182  H     0.80613   0.29410   0.89983   0.00000  Uiso   1.00
H1183  H     0.77022   0.12538   0.70251   0.00000  Uiso   1.00
H1184  H     0.89640   0.20800   0.96414   0.00000  Uiso   1.00
H1185  H     0.77012   0.12552   0.94900   0.00000  Uiso   1.00
H1186  H     0.89642   0.20784   0.71761   0.00000  Uiso   1.00
N1187  N     0.83335   0.16668   0.95069   0.00000  Uiso   1.00
N1188  N     0.83332   0.16666   0.71597   0.00000  Uiso   1.00
O1189  O     0.83333   0.10655   0.87291   0.00000  Uiso   1.00
O1190  O     0.83334   0.22678   0.79375   0.00000  Uiso   1.00
O1191  O     0.83333   0.10654   0.79372   0.00000  Uiso   1.00
O1192  O     0.83334   0.22679   0.87294   0.00000  Uiso   1.00
O1193  O     0.75828   0.16667   0.86379   0.00000  Uiso   1.00
O1194  O     0.90839   0.16666   0.80288   0.00000  Uiso   1.00
O1195  O     0.75828   0.16666   0.78460   0.00000  Uiso   1.00
O1196  O     0.90839   0.16667   0.88207   0.00000  Uiso   1.00
O1197  O     0.88397   0.29383   0.76504   0.00000  Uiso   1.00
C1198  C     0.93314   0.27935   0.78592   0.00000  Uiso   1.00
H1199  H     0.94938   0.26106   0.75885   0.00000  Uiso   1.00
H1200  H     0.93047   0.25804   0.81611   0.00000  Uiso   1.00
C1201  C     0.97092   0.31453   0.80166   0.00000  Uiso   1.00
H1202  H     0.97065   0.00436   0.77293   0.00000  Uiso   1.00
H1203  H     0.95904   0.33006   0.83292   0.00000  Uiso   1.00
C1204  C     0.69241   0.29844   0.81493   0.00000  Uiso   1.00
H1205  H     0.69402   0.27578   0.84442   0.00000  Uiso   1.00
H1206  H     0.71837   0.32458   0.82629   0.00000  Uiso   1.00
H1207  H     0.70617   0.28361   0.78411   0.00000  Uiso   1.00
O1208  O     0.81399   0.03857   0.91561   0.00000  Uiso   1.00
C1209  C     0.86102   0.04492   0.94588   0.00000  Uiso   1.00
H1210  H     0.85458   0.06989   0.97064   0.00000  Uiso   1.00
H1211  H     0.89276   0.05575   0.92641   0.00000  Uiso   1.00
C1212  C     0.87811   0.00630   0.97513   0.00000  Uiso   1.00
H1213  H     0.84746   0.33021   0.99634   0.00000  Uiso   1.00
H1214  H     0.88524   0.31390   0.95164   0.00000  Uiso   1.00
C1215  C     0.92806   0.01423   0.67459   0.00000  Uiso   1.00
H1216  H     0.95874   0.02490   0.98743   0.00000  Uiso   1.00
H1217  H     0.94117   0.31849   0.69299   0.00000  Uiso   1.00
H1218  H     0.92188   0.03786   0.70107   0.00000  Uiso   1.00
C1219  C     0.16767   0.42066   0.83383   0.00000  Uiso   1.00
C1220  C     0.16775   0.57920   0.83332   0.00000  Uiso   1.00
C1221  C     0.06792   0.50020   0.82125   0.00000  Uiso   1.00
C1222  C     0.26541   0.50011   0.84541   0.00000  Uiso   1.00
C1223  C     0.01263   0.50052   0.81458   0.00000  Uiso   1.00
C1224  C     0.32069   0.50029   0.85206   0.00000  Uiso   1.00
C1225  C     0.18805   0.35530   0.79781   0.00000  Uiso   1.00
C1226  C     0.15405   0.64427   0.87156   0.00000  Uiso   1.00
C1227  C     0.19221   0.64599   0.79872   0.00000  Uiso   1.00
C1228  C     0.15775   0.35332   0.87457   0.00000  Uiso   1.00
C1229  C     0.17088   0.62369   0.83386   0.00000  Uiso   1.00
C1230  C     0.17048   0.37594   0.83534   0.00000  Uiso   1.00
C1231  C     0.13156   0.47716   0.68724   0.00000  Uiso   1.00
C1232  C     0.20171   0.52289   0.97941   0.00000  Uiso   1.00
C1233  C     0.13148   0.47727   0.97099   0.00000  Uiso   1.00
C1234  C     0.20170   0.52286   0.69564   0.00000  Uiso   1.00
Cu1235 Cu    0.16667   0.50001   0.88022   0.00000  Uiso   1.00
Cu1236 Cu    0.16667   0.49999   0.78645   0.00000  Uiso   1.00
H1237  H     0.32599   0.50083   0.77864   0.00000  Uiso   1.00
H1238  H     0.00733   0.50007   0.88801   0.00000  Uiso   1.00
H1239  H     0.20147   0.37231   0.76909   0.00000  Uiso   1.00
H1240  H     0.13946   0.62744   0.89983   0.00000  Uiso   1.00
H1241  H     0.10356   0.45871   0.70251   0.00000  Uiso   1.00
H1242  H     0.22973   0.54134   0.96414   0.00000  Uiso   1.00
H1243  H     0.10345   0.45886   0.94900   0.00000  Uiso   1.00
H1244  H     0.22976   0.54117   0.71761   0.00000  Uiso   1.00
N1245  N     0.16668   0.50001   0.95069   0.00000  Uiso   1.00
N1246  N     0.16665   0.49999   0.71597   0.00000  Uiso   1.00
O1247  O     0.16666   0.43989   0.87291   0.00000  Uiso   1.00
O1248  O     0.16667   0.56011   0.79375   0.00000  Uiso   1.00
O1249  O     0.16666   0.43988   0.79372   0.00000  Uiso   1.00
O1250  O     0.16667   0.56012   0.87294   0.00000  Uiso   1.00
O1251  O     0.09161   0.50000   0.86379   0.00000  Uiso   1.00
O1252  O     0.24172   0.50000   0.80288   0.00000  Uiso   1.00
O1253  O     0.09161   0.49999   0.78460   0.00000  Uiso   1.00
O1254  O     0.24172   0.50001   0.88207   0.00000  Uiso   1.00
O1255  O     0.21730   0.62716   0.76504   0.00000  Uiso   1.00
C1256  C     0.26647   0.61269   0.78592   0.00000  Uiso   1.00
H1257  H     0.28272   0.59439   0.75885   0.00000  Uiso   1.00
H1258  H     0.26380   0.59137   0.81611   0.00000  Uiso   1.00
C1259  C     0.30425   0.64787   0.80166   0.00000  Uiso   1.00
H1260  H     0.30398   0.33770   0.77293   0.00000  Uiso   1.00
H1261  H     0.29237   0.66339   0.83292   0.00000  Uiso   1.00
C1262  C     0.02574   0.63177   0.81493   0.00000  Uiso   1.00
H1263  H     0.02735   0.60911   0.84442   0.00000  Uiso   1.00
H1264  H     0.05170   0.65791   0.82629   0.00000  Uiso   1.00
H1265  H     0.03951   0.61694   0.78411   0.00000  Uiso   1.00
O1266  O     0.14732   0.37190   0.91561   0.00000  Uiso   1.00
C1267  C     0.19435   0.37825   0.94588   0.00000  Uiso   1.00
H1268  H     0.18791   0.40322   0.97064   0.00000  Uiso   1.00
H1269  H     0.22609   0.38908   0.92641   0.00000  Uiso   1.00
C1270  C     0.21145   0.33963   0.97513   0.00000  Uiso   1.00
H1271  H     0.18079   0.66354   0.99634   0.00000  Uiso   1.00
H1272  H     0.21857   0.64723   0.95164   0.00000  Uiso   1.00
C1273  C     0.26140   0.34756   0.67459   0.00000  Uiso   1.00
H1274  H     0.29207   0.35824   0.98743   0.00000  Uiso   1.00
H1275  H     0.27450   0.65182   0.69299   0.00000  Uiso   1.00
H1276  H     0.25521   0.37119   0.70107   0.00000  Uiso   1.00
C1277  C     0.50101   0.42066   0.83383   0.00000  Uiso   1.00
C1278  C     0.50108   0.57920   0.83332   0.00000  Uiso   1.00
C1279  C     0.40126   0.50020   0.82125   0.00000  Uiso   1.00
C1280  C     0.59874   0.50011   0.84541   0.00000  Uiso   1.00
C1281  C     0.34597   0.50052   0.81458   0.00000  Uiso   1.00
C1282  C     0.65402   0.50029   0.85206   0.00000  Uiso   1.00
C1283  C     0.52139   0.35530   0.79781   0.00000  Uiso   1.00
C1284  C     0.48738   0.64427   0.87156   0.00000  Uiso   1.00
C1285  C     0.52555   0.64599   0.79872   0.00000  Uiso   1.00
C1286  C     0.49109   0.35332   0.87457   0.00000  Uiso   1.00
C1287  C     0.50422   0.62369   0.83386   0.00000  Uiso   1.00
C1288  C     0.50382   0.37594   0.83534   0.00000  Uiso   1.00
C1289  C     0.46490   0.47716   0.68724   0.00000  Uiso   1.00
C1290  C     0.53504   0.52289   0.97941   0.00000  Uiso   1.00
C1291  C     0.46482   0.47727   0.97099   0.00000  Uiso   1.00
C1292  C     0.53503   0.52286   0.69564   0.00000  Uiso   1.00
Cu1293 Cu    0.50000   0.50001   0.88022   0.00000  Uiso   1.00
Cu1294 Cu    0.50000   0.49999   0.78645   0.00000  Uiso   1.00
H1295  H     0.65932   0.50083   0.77864   0.00000  Uiso   1.00
H1296  H     0.34066   0.50007   0.88801   0.00000  Uiso   1.00
H1297  H     0.53480   0.37231   0.76909   0.00000  Uiso   1.00
H1298  H     0.47279   0.62744   0.89983   0.00000  Uiso   1.00
H1299  H     0.43689   0.45871   0.70251   0.00000  Uiso   1.00
H1300  H     0.56306   0.54134   0.96414   0.00000  Uiso   1.00
H1301  H     0.43678   0.45886   0.94900   0.00000  Uiso   1.00
H1302  H     0.56309   0.54117   0.71761   0.00000  Uiso   1.00
N1303  N     0.50001   0.50001   0.95069   0.00000  Uiso   1.00
N1304  N     0.49999   0.49999   0.71597   0.00000  Uiso   1.00
O1305  O     0.50000   0.43989   0.87291   0.00000  Uiso   1.00
O1306  O     0.50000   0.56011   0.79375   0.00000  Uiso   1.00
O1307  O     0.50000   0.43988   0.79372   0.00000  Uiso   1.00
O1308  O     0.50000   0.56012   0.87294   0.00000  Uiso   1.00
O1309  O     0.42495   0.50000   0.86379   0.00000  Uiso   1.00
O1310  O     0.57505   0.50000   0.80288   0.00000  Uiso   1.00
O1311  O     0.42494   0.49999   0.78460   0.00000  Uiso   1.00
O1312  O     0.57506   0.50001   0.88207   0.00000  Uiso   1.00
O1313  O     0.55063   0.62716   0.76504   0.00000  Uiso   1.00
C1314  C     0.59981   0.61269   0.78592   0.00000  Uiso   1.00
H1315  H     0.61605   0.59439   0.75885   0.00000  Uiso   1.00
H1316  H     0.59714   0.59137   0.81611   0.00000  Uiso   1.00
C1317  C     0.63758   0.64787   0.80166   0.00000  Uiso   1.00
H1318  H     0.63731   0.33770   0.77293   0.00000  Uiso   1.00
H1319  H     0.62570   0.66339   0.83292   0.00000  Uiso   1.00
C1320  C     0.35908   0.63177   0.81493   0.00000  Uiso   1.00
H1321  H     0.36069   0.60911   0.84442   0.00000  Uiso   1.00
H1322  H     0.38503   0.65791   0.82629   0.00000  Uiso   1.00
H1323  H     0.37284   0.61694   0.78411   0.00000  Uiso   1.00
O1324  O     0.48065   0.37190   0.91561   0.00000  Uiso   1.00
C1325  C     0.52769   0.37825   0.94588   0.00000  Uiso   1.00
H1326  H     0.52125   0.40322   0.97064   0.00000  Uiso   1.00
H1327  H     0.55943   0.38908   0.92641   0.00000  Uiso   1.00
C1328  C     0.54478   0.33963   0.97513   0.00000  Uiso   1.00
H1329  H     0.51413   0.66354   0.99634   0.00000  Uiso   1.00
H1330  H     0.55191   0.64723   0.95164   0.00000  Uiso   1.00
C1331  C     0.59473   0.34756   0.67459   0.00000  Uiso   1.00
H1332  H     0.62541   0.35824   0.98743   0.00000  Uiso   1.00
H1333  H     0.60784   0.65182   0.69299   0.00000  Uiso   1.00
H1334  H     0.58855   0.37119   0.70107   0.00000  Uiso   1.00
C1335  C     0.83434   0.42066   0.83383   0.00000  Uiso   1.00
C1336  C     0.83441   0.57920   0.83332   0.00000  Uiso   1.00
C1337  C     0.73459   0.50020   0.82125   0.00000  Uiso   1.00
C1338  C     0.93207   0.50011   0.84541   0.00000  Uiso   1.00
C1339  C     0.67930   0.50052   0.81458   0.00000  Uiso   1.00
C1340  C     0.98735   0.50029   0.85206   0.00000  Uiso   1.00
C1341  C     0.85472   0.35530   0.79781   0.00000  Uiso   1.00
C1342  C     0.82071   0.64427   0.87156   0.00000  Uiso   1.00
C1343  C     0.85888   0.64599   0.79872   0.00000  Uiso   1.00
C1344  C     0.82442   0.35332   0.87457   0.00000  Uiso   1.00
C1345  C     0.83755   0.62369   0.83386   0.00000  Uiso   1.00
C1346  C     0.83715   0.37594   0.83534   0.00000  Uiso   1.00
C1347  C     0.79823   0.47716   0.68724   0.00000  Uiso   1.00
C1348  C     0.86837   0.52289   0.97941   0.00000  Uiso   1.00
C1349  C     0.79815   0.47727   0.97099   0.00000  Uiso   1.00
C1350  C     0.86836   0.52286   0.69564   0.00000  Uiso   1.00
Cu1351 Cu    0.83333   0.50001   0.88022   0.00000  Uiso   1.00
Cu1352 Cu    0.83333   0.49999   0.78645   0.00000  Uiso   1.00
H1353  H     0.99265   0.50083   0.77864   0.00000  Uiso   1.00
H1354  H     0.67400   0.50007   0.88801   0.00000  Uiso   1.00
H1355  H     0.86814   0.37231   0.76909   0.00000  Uiso   1.00
H1356  H     0.80613   0.62744   0.89983   0.00000  Uiso   1.00
H1357  H     0.77022   0.45871   0.70251   0.00000  Uiso   1.00
H1358  H     0.89640   0.54134   0.96414   0.00000  Uiso   1.00
H1359  H     0.77012   0.45886   0.94900   0.00000  Uiso   1.00
H1360  H     0.89642   0.54117   0.71761   0.00000  Uiso   1.00
N1361  N     0.83335   0.50001   0.95069   0.00000  Uiso   1.00
N1362  N     0.83332   0.49999   0.71597   0.00000  Uiso   1.00
O1363  O     0.83333   0.43989   0.87291   0.00000  Uiso   1.00
O1364  O     0.83334   0.56011   0.79375   0.00000  Uiso   1.00
O1365  O     0.83333   0.43988   0.79372   0.00000  Uiso   1.00
O1366  O     0.83334   0.56012   0.87294   0.00000  Uiso   1.00
O1367  O     0.75828   0.50000   0.86379   0.00000  Uiso   1.00
O1368  O     0.90839   0.50000   0.80288   0.00000  Uiso   1.00
O1369  O     0.75828   0.49999   0.78460   0.00000  Uiso   1.00
O1370  O     0.90839   0.50001   0.88207   0.00000  Uiso   1.00
O1371  O     0.88397   0.62716   0.76504   0.00000  Uiso   1.00
C1372  C     0.93314   0.61269   0.78592   0.00000  Uiso   1.00
H1373  H     0.94938   0.59439   0.75885   0.00000  Uiso   1.00
H1374  H     0.93047   0.59137   0.81611   0.00000  Uiso   1.00
C1375  C     0.97092   0.64787   0.80166   0.00000  Uiso   1.00
H1376  H     0.97065   0.33770   0.77293   0.00000  Uiso   1.00
H1377  H     0.95904   0.66339   0.83292   0.00000  Uiso   1.00
C1378  C     0.69241   0.63177   0.81493   0.00000  Uiso   1.00
H1379  H     0.69402   0.60911   0.84442   0.00000  Uiso   1.00
H1380  H     0.71837   0.65791   0.82629   0.00000  Uiso   1.00
H1381  H     0.70617   0.61694   0.78411   0.00000  Uiso   1.00
O1382  O     0.81399   0.37190   0.91561   0.00000  Uiso   1.00
C1383  C     0.86102   0.37825   0.94588   0.00000  Uiso   1.00
H1384  H     0.85458   0.40322   0.97064   0.00000  Uiso   1.00
H1385  H     0.89276   0.38908   0.92641   0.00000  Uiso   1.00
C1386  C     0.87811   0.33963   0.97513   0.00000  Uiso   1.00
H1387  H     0.84746   0.66354   0.99634   0.00000  Uiso   1.00
H1388  H     0.88524   0.64723   0.95164   0.00000  Uiso   1.00
C1389  C     0.92806   0.34756   0.67459   0.00000  Uiso   1.00
H1390  H     0.95874   0.35824   0.98743   0.00000  Uiso   1.00
H1391  H     0.94117   0.65182   0.69299   0.00000  Uiso   1.00
H1392  H     0.92188   0.37119   0.70107   0.00000  Uiso   1.00
C1393  C     0.16767   0.75400   0.83383   0.00000  Uiso   1.00
C1394  C     0.16775   0.91254   0.83332   0.00000  Uiso   1.00
C1395  C     0.06792   0.83353   0.82125   0.00000  Uiso   1.00
C1396  C     0.26541   0.83344   0.84541   0.00000  Uiso   1.00
C1397  C     0.01263   0.83386   0.81458   0.00000  Uiso   1.00
C1398  C     0.32069   0.83362   0.85206   0.00000  Uiso   1.00
C1399  C     0.18805   0.68864   0.79781   0.00000  Uiso   1.00
C1400  C     0.15405   0.97760   0.87156   0.00000  Uiso   1.00
C1401  C     0.19221   0.97933   0.79872   0.00000  Uiso   1.00
C1402  C     0.15775   0.68666   0.87457   0.00000  Uiso   1.00
C1403  C     0.17088   0.95702   0.83386   0.00000  Uiso   1.00
C1404  C     0.17048   0.70927   0.83534   0.00000  Uiso   1.00
C1405  C     0.13156   0.81049   0.68724   0.00000  Uiso   1.00
C1406  C     0.20171   0.85623   0.97941   0.00000  Uiso   1.00
C1407  C     0.13148   0.81060   0.97099   0.00000  Uiso   1.00
C1408  C     0.20170   0.85619   0.69564   0.00000  Uiso   1.00
Cu1409 Cu    0.16667   0.83334   0.88022   0.00000  Uiso   1.00
Cu1410 Cu    0.16667   0.83333   0.78645   0.00000  Uiso   1.00
H1411  H     0.32599   0.83416   0.77864   0.00000  Uiso   1.00
H1412  H     0.00733   0.83340   0.88801   0.00000  Uiso   1.00
H1413  H     0.20147   0.70564   0.76909   0.00000  Uiso   1.00
H1414  H     0.13946   0.96077   0.89983   0.00000  Uiso   1.00
H1415  H     0.10356   0.79205   0.70251   0.00000  Uiso   1.00
H1416  H     0.22973   0.87467   0.96414   0.00000  Uiso   1.00
H1417  H     0.10345   0.79219   0.94900   0.00000  Uiso   1.00
H1418  H     0.22976   0.87450   0.71761   0.00000  Uiso   1.00
N1419  N     0.16668   0.83334   0.95069   0.00000  Uiso   1.00
N1420  N     0.16665   0.83332   0.71597   0.00000  Uiso   1.00
O1421  O     0.16666   0.77322   0.87291   0.00000  Uiso   1.00
O1422  O     0.16667   0.89345   0.79375   0.00000  Uiso   1.00
O1423  O     0.16666   0.77321   0.79372   0.00000  Uiso   1.00
O1424  O     0.16667   0.89346   0.87294   0.00000  Uiso   1.00
O1425  O     0.09161   0.83334   0.86379   0.00000  Uiso   1.00
O1426  O     0.24172   0.83333   0.80288   0.00000  Uiso   1.00
O1427  O     0.09161   0.83333   0.78460   0.00000  Uiso   1.00
O1428  O     0.24172   0.83334   0.88207   0.00000  Uiso   1.00
O1429  O     0.21730   0.96049   0.76504   0.00000  Uiso   1.00
C1430  C     0.26647   0.94602   0.78592   0.00000  Uiso   1.00
H1431  H     0.28272   0.92773   0.75885   0.00000  Uiso   1.00
H1432  H     0.26380   0.92471   0.81611   0.00000  Uiso   1.00
C1433  C     0.30425   0.98120   0.80166   0.00000  Uiso   1.00
H1434  H     0.30398   0.67103   0.77293   0.00000  Uiso   1.00
H1435  H     0.29237   0.99673   0.83292   0.00000  Uiso   1.00
C1436  C     0.02574   0.96511   0.81493   0.00000  Uiso   1.00
H1437  H     0.02735   0.94245   0.84442   0.00000  Uiso   1.00
H1438  H     0.05170   0.99125   0.82629   0.00000  Uiso   1.00
H1439  H     0.03951   0.95027   0.78411   0.00000  Uiso   1.00
O1440  O     0.14732   0.70523   0.91561   0.00000  Uiso   1.00
C1441  C     0.19435   0.71159   0.94588   0.00000  Uiso   1.00
H1442  H     0.18791   0.73656   0.97064   0.00000  Uiso   1.00
H1443  H     0.22609   0.72242   0.92641   0.00000  Uiso   1.00
C1444  C     0.21145   0.67296   0.97513   0.00000  Uiso   1.00
H1445  H     0.18079   0.99688   0.99634   0.00000  Uiso   1.00
H1446  H     0.21857   0.98057   0.95164   0.00000  Uiso   1.00
C1447  C     0.26140   0.68090   0.67459   0.00000  Uiso   1.00
H1448  H     0.29207   0.69157   0.98743   0.00000  Uiso   1.00
H1449  H     0.27450   0.98516   0.69299   0.00000  Uiso   1.00
H1450  H     0.25521   0.70452   0.70107   0.00000  Uiso   1.00
C1451  C     0.50101   0.75400   0.83383   0.00000  Uiso   1.00
C1452  C     0.50108   0.91254   0.83332   0.00000  Uiso   1.00
C1453  C     0.40126   0.83353   0.82125   0.00000  Uiso   1.00
C1454  C     0.59874   0.83344   0.84541   0.00000  Uiso   1.00
C1455  C     0.34597   0.83386   0.81458   0.00000  Uiso   1.00
C1456  C     0.65402   0.83362   0.85206   0.00000  Uiso   1.00
C1457  C     0.52139   0.68864   0.79781   0.00000  Uiso   1.00
C1458  C     0.48738   0.97760   0.87156   0.00000  Uiso   1.00
C1459  C     0.52555   0.97933   0.79872   0.00000  Uiso   1.00
C1460  C     0.49109   0.68666   0.87457   0.00000  Uiso   1.00
C1461  C     0.50422   0.95702   0.83386   0.00000  Uiso   1.00
C1462  C     0.50382   0.70927   0.83534   0.00000  Uiso   1.00
C1463  C     0.46490   0.81049   0.68724   0.00000  Uiso   1.00
C1464  C     0.53504   0.85623   0.97941   0.00000  Uiso   1.00
C1465  C     0.46482   0.81060   0.97099   0.00000  Uiso   1.00
C1466  C     0.53503   0.85619   0.69564   0.00000  Uiso   1.00
Cu1467 Cu    0.50000   0.83334   0.88022   0.00000  Uiso   1.00
Cu1468 Cu    0.50000   0.83333   0.78645   0.00000  Uiso   1.00
H1469  H     0.65932   0.83416   0.77864   0.00000  Uiso   1.00
H1470  H     0.34066   0.83340   0.88801   0.00000  Uiso   1.00
H1471  H     0.53480   0.70564   0.76909   0.00000  Uiso   1.00
H1472  H     0.47279   0.96077   0.89983   0.00000  Uiso   1.00
H1473  H     0.43689   0.79205   0.70251   0.00000  Uiso   1.00
H1474  H     0.56306   0.87467   0.96414   0.00000  Uiso   1.00
H1475  H     0.43678   0.79219   0.94900   0.00000  Uiso   1.00
H1476  H     0.56309   0.87450   0.71761   0.00000  Uiso   1.00
N1477  N     0.50001   0.83334   0.95069   0.00000  Uiso   1.00
N1478  N     0.49999   0.83332   0.71597   0.00000  Uiso   1.00
O1479  O     0.50000   0.77322   0.87291   0.00000  Uiso   1.00
O1480  O     0.50000   0.89345   0.79375   0.00000  Uiso   1.00
O1481  O     0.50000   0.77321   0.79372   0.00000  Uiso   1.00
O1482  O     0.50000   0.89346   0.87294   0.00000  Uiso   1.00
O1483  O     0.42495   0.83334   0.86379   0.00000  Uiso   1.00
O1484  O     0.57505   0.83333   0.80288   0.00000  Uiso   1.00
O1485  O     0.42494   0.83333   0.78460   0.00000  Uiso   1.00
O1486  O     0.57506   0.83334   0.88207   0.00000  Uiso   1.00
O1487  O     0.55063   0.96049   0.76504   0.00000  Uiso   1.00
C1488  C     0.59981   0.94602   0.78592   0.00000  Uiso   1.00
H1489  H     0.61605   0.92773   0.75885   0.00000  Uiso   1.00
H1490  H     0.59714   0.92471   0.81611   0.00000  Uiso   1.00
C1491  C     0.63758   0.98120   0.80166   0.00000  Uiso   1.00
H1492  H     0.63731   0.67103   0.77293   0.00000  Uiso   1.00
H1493  H     0.62570   0.99673   0.83292   0.00000  Uiso   1.00
C1494  C     0.35908   0.96511   0.81493   0.00000  Uiso   1.00
H1495  H     0.36069   0.94245   0.84442   0.00000  Uiso   1.00
H1496  H     0.38503   0.99125   0.82629   0.00000  Uiso   1.00
H1497  H     0.37284   0.95027   0.78411   0.00000  Uiso   1.00
O1498  O     0.48065   0.70523   0.91561   0.00000  Uiso   1.00
C1499  C     0.52769   0.71159   0.94588   0.00000  Uiso   1.00
H1500  H     0.52125   0.73656   0.97064   0.00000  Uiso   1.00
H1501  H     0.55943   0.72242   0.92641   0.00000  Uiso   1.00
C1502  C     0.54478   0.67296   0.97513   0.00000  Uiso   1.00
H1503  H     0.51413   0.99688   0.99634   0.00000  Uiso   1.00
H1504  H     0.55191   0.98057   0.95164   0.00000  Uiso   1.00
C1505  C     0.59473   0.68090   0.67459   0.00000  Uiso   1.00
H1506  H     0.62541   0.69157   0.98743   0.00000  Uiso   1.00
H1507  H     0.60784   0.98516   0.69299   0.00000  Uiso   1.00
H1508  H     0.58855   0.70452   0.70107   0.00000  Uiso   1.00
C1509  C     0.83434   0.75400   0.83383   0.00000  Uiso   1.00
C1510  C     0.83441   0.91254   0.83332   0.00000  Uiso   1.00
C1511  C     0.73459   0.83353   0.82125   0.00000  Uiso   1.00
C1512  C     0.93207   0.83344   0.84541   0.00000  Uiso   1.00
C1513  C     0.67930   0.83386   0.81458   0.00000  Uiso   1.00
C1514  C     0.98735   0.83362   0.85206   0.00000  Uiso   1.00
C1515  C     0.85472   0.68864   0.79781   0.00000  Uiso   1.00
C1516  C     0.82071   0.97760   0.87156   0.00000  Uiso   1.00
C1517  C     0.85888   0.97933   0.79872   0.00000  Uiso   1.00
C1518  C     0.82442   0.68666   0.87457   0.00000  Uiso   1.00
C1519  C     0.83755   0.95702   0.83386   0.00000  Uiso   1.00
C1520  C     0.83715   0.70927   0.83534   0.00000  Uiso   1.00
C1521  C     0.79823   0.81049   0.68724   0.00000  Uiso   1.00
C1522  C     0.86837   0.85623   0.97941   0.00000  Uiso   1.00
C1523  C     0.79815   0.81060   0.97099   0.00000  Uiso   1.00
C1524  C     0.86836   0.85619   0.69564   0.00000  Uiso   1.00
Cu1525 Cu    0.83333   0.83334   0.88022   0.00000  Uiso   1.00
Cu1526 Cu    0.83333   0.83333   0.78645   0.00000  Uiso   1.00
H1527  H     0.99265   0.83416   0.77864   0.00000  Uiso   1.00
H1528  H     0.67400   0.83340   0.88801   0.00000  Uiso   1.00
H1529  H     0.86814   0.70564   0.76909   0.00000  Uiso   1.00
H1530  H     0.80613   0.96077   0.89983   0.00000  Uiso   1.00
H1531  H     0.77022   0.79205   0.70251   0.00000  Uiso   1.00
H1532  H     0.89640   0.87467   0.96414   0.00000  Uiso   1.00
H1533  H     0.77012   0.79219   0.94900   0.00000  Uiso   1.00
H1534  H     0.89642   0.87450   0.71761   0.00000  Uiso   1.00
N1535  N     0.83335   0.83334   0.95069   0.00000  Uiso   1.00
N1536  N     0.83332   0.83332   0.71597   0.00000  Uiso   1.00
O1537  O     0.83333   0.77322   0.87291   0.00000  Uiso   1.00
O1538  O     0.83334   0.89345   0.79375   0.00000  Uiso   1.00
O1539  O     0.83333   0.77321   0.79372   0.00000  Uiso   1.00
O1540  O     0.83334   0.89346   0.87294   0.00000  Uiso   1.00
O1541  O     0.75828   0.83334   0.86379   0.00000  Uiso   1.00
O1542  O     0.90839   0.83333   0.80288   0.00000  Uiso   1.00
O1543  O     0.75828   0.83333   0.78460   0.00000  Uiso   1.00
O1544  O     0.90839   0.83334   0.88207   0.00000  Uiso   1.00
O1545  O     0.88397   0.96049   0.76504   0.00000  Uiso   1.00
C1546  C     0.93314   0.94602   0.78592   0.00000  Uiso   1.00
H1547  H     0.94938   0.92773   0.75885   0.00000  Uiso   1.00
H1548  H     0.93047   0.92471   0.81611   0.00000  Uiso   1.00
C1549  C     0.97092   0.98120   0.80166   0.00000  Uiso   1.00
H1550  H     0.97065   0.67103   0.77293   0.00000  Uiso   1.00
H1551  H     0.95904   0.99673   0.83292   0.00000  Uiso   1.00
C1552  C     0.69241   0.96511   0.81493   0.00000  Uiso   1.00
H1553  H     0.69402   0.94245   0.84442   0.00000  Uiso   1.00
H1554  H     0.71837   0.99125   0.82629   0.00000  Uiso   1.00
H1555  H     0.70617   0.95027   0.78411   0.00000  Uiso   1.00
O1556  O     0.81399   0.70523   0.91561   0.00000  Uiso   1.00
C1557  C     0.86102   0.71159   0.94588   0.00000  Uiso   1.00
H1558  H     0.85458   0.73656   0.97064   0.00000  Uiso   1.00
H1559  H     0.89276   0.72242   0.92641   0.00000  Uiso   1.00
C1560  C     0.87811   0.67296   0.97513   0.00000  Uiso   1.00
H1561  H     0.84746   0.99688   0.99634   0.00000  Uiso   1.00
H1562  H     0.88524   0.98057   0.95164   0.00000  Uiso   1.00
C1563  C     0.92806   0.68090   0.67459   0.00000  Uiso   1.00
H1564  H     0.95874   0.69157   0.98743   0.00000  Uiso   1.00
H1565  H     0.94117   0.98516   0.69299   0.00000  Uiso   1.00
H1566  H     0.92188   0.70452   0.70107   0.00000  Uiso   1.00
loop_
_geom_bond_atom_site_label_1
_geom_bond_atom_site_label_2
_geom_bond_distance
_geom_bond_site_symmetry_2
_ccdc_geom_bond_type
C1     O29     1.289   .     A
C1     C12     1.455   .     S
C1     O31     1.298   .     A
C2     O30     1.292   .     A
C2     C11     1.447   .     S
C2     O32     1.291   .     A
C3     O35     1.289   .     A
C3     O33     1.287   .     A
C3     C5      1.434   .     S
C4     O34     1.287   .     A
C4     O36     1.289   .     A
C4     C6      1.434   .     S
C5     C122    1.335   1_455 S
C5     H135    1.087   1_455 S
C6     C63     1.335   .     S
C6     H78     1.087   .     S
C7     C12     1.401   .     A
C7     H21     1.083   .     S
C7     C357    1.389   1_545 S
C8     H22     1.084   .     S
C8     C11     1.396   .     A
C8     C184    1.383   .     S
C9     C11     1.410   .     A
C9     O37     1.385   .     S
C9     C181    1.389   .     S
C10    C12     1.413   .     A
C10    O48     1.384   .     S
C10    C356    1.383   1_545 S
C13    N28     1.367   .     A
C13    H23     1.082   .     S
C13    C1059   1.418   1_554 S
C14    N27     1.367   .     A
C14    H24     1.082   .     S
C14    C538    1.417   .     S
C15    N27     1.367   .     A
C15    H25     1.082   .     S
C15    C535    1.418   .     S
C16    N28     1.367   .     A
C16    H26     1.080   .     S
C16    C1058   1.417   1_554 S
Cu17   O36     1.959   .     S
Cu17   O29     1.966   .     S
Cu17   Cu18    2.682   .     S
Cu17   O33     1.957   .     S
Cu17   N27     2.015   .     S
Cu17   O32     1.962   .     S
Cu18   N28     2.015   .     S
Cu18   O34     1.957   .     S
Cu18   O30     1.966   .     S
Cu18   O35     1.959   .     S
Cu18   O31     1.962   .     S
H19    C63     1.087   .     S
H20    C122    1.087   1_455 S
O37    C38     1.421   .     S
C38    H40     1.112   .     S
C38    H39     1.110   .     S
C38    C41     1.539   .     S
C41    H43     1.111   .     S
C41    H216    1.109   .     S
C41    C102    1.525   .     S
H42    C389    1.109   1_545 S
C44    H47     1.111   .     S
C44    H45     1.111   .     S
C44    H46     1.109   .     S
C44    C157    1.525   1_455 S
O48    C49     1.420   .     S
C49    C52     1.535   .     S
C49    H50     1.110   .     S
C49    H51     1.117   .     S
C52    H401    1.112   1_545 S
C52    H402    1.109   1_545 S
C52    C577    1.524   .     S
H53    C226    1.112   .     S
H54    C226    1.109   .     S
C55    H58     1.110   .     S
C55    C1096   1.524   1_554 S
C55    H1100   1.111   1_554 S
C55    H405    1.109   1_545 S
H56    C577    1.111   .     S
H57    C229    1.109   .     S
C59    O87     1.289   .     A
C59    C70     1.455   .     S
C59    O89     1.298   .     A
C60    O88     1.292   .     A
C60    C69     1.447   .     S
C60    O90     1.291   .     A
C61    O93     1.289   .     A
C61    O91     1.287   .     A
C61    C63     1.434   .     S
C62    O92     1.287   .     A
C62    O94     1.289   .     A
C62    C64     1.434   .     S
C64    C121    1.335   .     S
C64    H136    1.087   .     S
C65    C70     1.401   .     A
C65    H79     1.083   .     S
C65    C415    1.389   1_545 S
C66    H80     1.084   .     S
C66    C69     1.396   .     A
C66    C242    1.383   .     S
C67    C69     1.410   .     A
C67    O95     1.385   .     S
C67    C239    1.389   .     S
C68    C70     1.413   .     A
C68    O106    1.384   .     S
C68    C414    1.383   1_545 S
C71    N86     1.367   .     A
C71    H81     1.082   .     S
C71    C1117   1.418   1_554 S
C72    N85     1.367   .     A
C72    H82     1.082   .     S
C72    C596    1.417   .     S
C73    N85     1.367   .     A
C73    H83     1.082   .     S
C73    C593    1.418   .     S
C74    N86     1.367   .     A
C74    H84     1.080   .     S
C74    C1116   1.417   1_554 S
Cu75   O94     1.959   .     S
Cu75   O87     1.966   .     S
Cu75   Cu76    2.682   .     S
Cu75   O91     1.957   .     S
Cu75   N85     2.015   .     S
Cu75   O90     1.962   .     S
Cu76   N86     2.015   .     S
Cu76   O92     1.957   .     S
Cu76   O88     1.966   .     S
Cu76   O93     1.959   .     S
Cu76   O89     1.962   .     S
H77    C121    1.087   .     S
O95    C96     1.421   .     S
C96    H98     1.112   .     S
C96    H97     1.110   .     S
C96    C99     1.539   .     S
C99    H101    1.111   .     S
C99    H274    1.109   .     S
C99    C160    1.525   .     S
H100   C447    1.109   1_545 S
C102   H105    1.111   .     S
C102   H103    1.111   .     S
C102   H104    1.109   .     S
O106   C107    1.420   .     S
C107   C110    1.535   .     S
C107   H108    1.110   .     S
C107   H109    1.117   .     S
C110   H459    1.112   1_545 S
C110   H460    1.109   1_545 S
C110   C635    1.524   .     S
H111   C284    1.112   .     S
H112   C284    1.109   .     S
C113   H116    1.110   .     S
C113   C1154   1.524   1_554 S
C113   H1158   1.111   1_554 S
C113   H463    1.109   1_545 S
H114   C635    1.111   .     S
H115   C287    1.109   .     S
C117   O145    1.289   .     A
C117   C128    1.455   .     S
C117   O147    1.298   .     A
C118   O146    1.292   .     A
C118   C127    1.447   .     S
C118   O148    1.291   .     A
C119   O151    1.289   .     A
C119   O149    1.287   .     A
C119   C121    1.434   .     S
C120   O150    1.287   .     A
C120   O152    1.289   .     A
C120   C122    1.434   .     S
C122   C5      1.335   1_655 S
C122   H20     1.087   1_655 S
C123   C128    1.401   .     A
C123   H137    1.083   .     S
C123   C473    1.389   1_545 S
C124   H138    1.084   .     S
C124   C127    1.396   .     A
C124   C300    1.383   .     S
C125   C127    1.410   .     A
C125   O153    1.385   .     S
C125   C297    1.389   .     S
C126   C128    1.413   .     A
C126   O164    1.384   .     S
C126   C472    1.383   1_545 S
C129   N144    1.367   .     A
C129   H139    1.082   .     S
C129   C1175   1.418   1_554 S
C130   N143    1.367   .     A
C130   H140    1.082   .     S
C130   C654    1.417   .     S
C131   N143    1.367   .     A
C131   H141    1.082   .     S
C131   C651    1.418   .     S
C132   N144    1.367   .     A
C132   H142    1.080   .     S
C132   C1174   1.417   1_554 S
Cu133  O152    1.959   .     S
Cu133  O145    1.966   .     S
Cu133  Cu134   2.682   .     S
Cu133  O149    1.957   .     S
Cu133  N143    2.015   .     S
Cu133  O148    1.962   .     S
Cu134  N144    2.015   .     S
Cu134  O150    1.957   .     S
Cu134  O146    1.966   .     S
Cu134  O151    1.959   .     S
Cu134  O147    1.962   .     S
H135   C5      1.087   1_655 S
O153   C154    1.421   .     S
C154   H156    1.112   .     S
C154   H155    1.110   .     S
C154   C157    1.539   .     S
C157   H159    1.111   .     S
C157   H332    1.109   .     S
C157   C44     1.525   1_655 S
H158   C505    1.109   1_545 S
C160   H163    1.111   .     S
C160   H161    1.111   .     S
C160   H162    1.109   .     S
O164   C165    1.420   .     S
C165   C168    1.535   .     S
C165   H166    1.110   .     S
C165   H167    1.117   .     S
C168   H517    1.112   1_545 S
C168   H518    1.109   1_545 S
C168   C693    1.524   .     S
H169   C342    1.112   .     S
H170   C342    1.109   .     S
C171   H174    1.110   .     S
C171   C1212   1.524   1_554 S
C171   H1216   1.111   1_554 S
C171   H521    1.109   1_545 S
H172   C693    1.111   .     S
H173   C345    1.109   .     S
C175   O203    1.289   .     A
C175   C186    1.455   .     S
C175   O205    1.298   .     A
C176   O204    1.292   .     A
C176   C185    1.447   .     S
C176   O206    1.291   .     A
C177   O209    1.289   .     A
C177   O207    1.287   .     A
C177   C179    1.434   .     S
C178   O208    1.287   .     A
C178   O210    1.289   .     A
C178   C180    1.434   .     S
C179   C296    1.335   1_455 S
C179   H309    1.087   1_455 S
C180   C237    1.335   .     S
C180   H252    1.087   .     S
C181   C186    1.401   .     A
C181   H195    1.083   .     S
C182   H196    1.084   .     S
C182   C185    1.396   .     A
C182   C358    1.383   .     S
C183   C185    1.410   .     A
C183   O211    1.385   .     S
C183   C355    1.389   .     S
C184   C186    1.413   .     A
C184   O222    1.384   .     S
C187   N202    1.367   .     A
C187   H197    1.082   .     S
C187   C1233   1.418   1_554 S
C188   N201    1.367   .     A
C188   H198    1.082   .     S
C188   C712    1.417   .     S
C189   N201    1.367   .     A
C189   H199    1.082   .     S
C189   C709    1.418   .     S
C190   N202    1.367   .     A
C190   H200    1.080   .     S
C190   C1232   1.417   1_554 S
Cu191  O210    1.959   .     S
Cu191  O203    1.966   .     S
Cu191  Cu192   2.682   .     S
Cu191  O207    1.957   .     S
Cu191  N201    2.015   .     S
Cu191  O206    1.962   .     S
Cu192  N202    2.015   .     S
Cu192  O208    1.957   .     S
Cu192  O204    1.966   .     S
Cu192  O209    1.959   .     S
Cu192  O205    1.962   .     S
H193   C237    1.087   .     S
H194   C296    1.087   1_455 S
O211   C212    1.421   .     S
C212   H214    1.112   .     S
C212   H213    1.110   .     S
C212   C215    1.539   .     S
C215   H217    1.111   .     S
C215   H390    1.109   .     S
C215   C276    1.525   .     S
C218   H221    1.111   .     S
C218   H219    1.111   .     S
C218   H220    1.109   .     S
C218   C331    1.525   1_455 S
O222   C223    1.420   .     S
C223   C226    1.535   .     S
C223   H224    1.110   .     S
C223   H225    1.117   .     S
C226   C751    1.524   .     S
H227   C400    1.112   .     S
H228   C400    1.109   .     S
C229   H232    1.110   .     S
C229   C1270   1.524   1_554 S
C229   H1274   1.111   1_554 S
H230   C751    1.111   .     S
H231   C403    1.109   .     S
C233   O261    1.289   .     A
C233   C244    1.455   .     S
C233   O263    1.298   .     A
C234   O262    1.292   .     A
C234   C243    1.447   .     S
C234   O264    1.291   .     A
C235   O267    1.289   .     A
C235   O265    1.287   .     A
C235   C237    1.434   .     S
C236   O266    1.287   .     A
C236   O268    1.289   .     A
C236   C238    1.434   .     S
C238   C295    1.335   .     S
C238   H310    1.087   .     S
C239   C244    1.401   .     A
C239   H253    1.083   .     S
C240   H254    1.084   .     S
C240   C243    1.396   .     A
C240   C416    1.383   .     S
C241   C243    1.410   .     A
C241   O269    1.385   .     S
C241   C413    1.389   .     S
C242   C244    1.413   .     A
C242   O280    1.384   .     S
C245   N260    1.367   .     A
C245   H255    1.082   .     S
C245   C1291   1.418   1_554 S
C246   N259    1.367   .     A
C246   H256    1.082   .     S
C246   C770    1.417   .     S
C247   N259    1.367   .     A
C247   H257    1.082   .     S
C247   C767    1.418   .     S
C248   N260    1.367   .     A
C248   H258    1.080   .     S
C248   C1290   1.417   1_554 S
Cu249  O268    1.959   .     S
Cu249  O261    1.966   .     S
Cu249  Cu250   2.682   .     S
Cu249  O265    1.957   .     S
Cu249  N259    2.015   .     S
Cu249  O264    1.962   .     S
Cu250  N260    2.015   .     S
Cu250  O266    1.957   .     S
Cu250  O262    1.966   .     S
Cu250  O267    1.959   .     S
Cu250  O263    1.962   .     S
H251   C295    1.087   .     S
O269   C270    1.421   .     S
C270   H272    1.112   .     S
C270   H271    1.110   .     S
C270   C273    1.539   .     S
C273   H275    1.111   .     S
C273   H448    1.109   .     S
C273   C334    1.525   .     S
C276   H279    1.111   .     S
C276   H277    1.111   .     S
C276   H278    1.109   .     S
O280   C281    1.420   .     S
C281   C284    1.535   .     S
C281   H282    1.110   .     S
C281   H283    1.117   .     S
C284   C809    1.524   .     S
H285   C458    1.112   .     S
H286   C458    1.109   .     S
C287   H290    1.110   .     S
C287   C1328   1.524   1_554 S
C287   H1332   1.111   1_554 S
H288   C809    1.111   .     S
H289   C461    1.109   .     S
C291   O319    1.289   .     A
C291   C302    1.455   .     S
C291   O321    1.298   .     A
C292   O320    1.292   .     A
C292   C301    1.447   .     S
C292   O322    1.291   .     A
C293   O325    1.289   .     A
C293   O323    1.287   .     A
C293   C295    1.434   .     S
C294   O324    1.287   .     A
C294   O326    1.289   .     A
C294   C296    1.434   .     S
C296   C179    1.335   1_655 S
C296   H194    1.087   1_655 S
C297   C302    1.401   .     A
C297   H311    1.083   .     S
C298   H312    1.084   .     S
C298   C301    1.396   .     A
C298   C474    1.383   .     S
C299   C301    1.410   .     A
C299   O327    1.385   .     S
C299   C471    1.389   .     S
C300   C302    1.413   .     A
C300   O338    1.384   .     S
C303   N318    1.367   .     A
C303   H313    1.082   .     S
C303   C1349   1.418   1_554 S
C304   N317    1.367   .     A
C304   H314    1.082   .     S
C304   C828    1.417   .     S
C305   N317    1.367   .     A
C305   H315    1.082   .     S
C305   C825    1.418   .     S
C306   N318    1.367   .     A
C306   H316    1.080   .     S
C306   C1348   1.417   1_554 S
Cu307  O326    1.959   .     S
Cu307  O319    1.966   .     S
Cu307  Cu308   2.682   .     S
Cu307  O323    1.957   .     S
Cu307  N317    2.015   .     S
Cu307  O322    1.962   .     S
Cu308  N318    2.015   .     S
Cu308  O324    1.957   .     S
Cu308  O320    1.966   .     S
Cu308  O325    1.959   .     S
Cu308  O321    1.962   .     S
H309   C179    1.087   1_655 S
O327   C328    1.421   .     S
C328   H330    1.112   .     S
C328   H329    1.110   .     S
C328   C331    1.539   .     S
C331   H333    1.111   .     S
C331   H506    1.109   .     S
C331   C218    1.525   1_655 S
C334   H337    1.111   .     S
C334   H335    1.111   .     S
C334   H336    1.109   .     S
O338   C339    1.420   .     S
C339   C342    1.535   .     S
C339   H340    1.110   .     S
C339   H341    1.117   .     S
C342   C867    1.524   .     S
H343   C516    1.112   .     S
H344   C516    1.109   .     S
C345   H348    1.110   .     S
C345   C1386   1.524   1_554 S
C345   H1390   1.111   1_554 S
H346   C867    1.111   .     S
H347   C519    1.109   .     S
C349   O377    1.289   .     A
C349   C360    1.455   .     S
C349   O379    1.298   .     A
C350   O378    1.292   .     A
C350   C359    1.447   .     S
C350   O380    1.291   .     A
C351   O383    1.289   .     A
C351   O381    1.287   .     A
C351   C353    1.434   .     S
C352   O382    1.287   .     A
C352   O384    1.289   .     A
C352   C354    1.434   .     S
C353   C470    1.335   1_455 S
C353   H483    1.087   1_455 S
C354   C411    1.335   .     S
C354   H426    1.087   .     S
C355   C360    1.401   .     A
C355   H369    1.083   .     S
C356   H370    1.084   .     S
C356   C359    1.396   .     A
C356   C10     1.383   1_565 S
C357   C359    1.410   .     A
C357   O385    1.385   .     S
C357   C7      1.389   1_565 S
C358   C360    1.413   .     A
C358   O396    1.384   .     S
C361   N376    1.367   .     A
C361   H371    1.082   .     S
C361   C1407   1.418   1_554 S
C362   N375    1.367   .     A
C362   H372    1.082   .     S
C362   C886    1.417   .     S
C363   N375    1.367   .     A
C363   H373    1.082   .     S
C363   C883    1.418   .     S
C364   N376    1.367   .     A
C364   H374    1.080   .     S
C364   C1406   1.417   1_554 S
Cu365  O384    1.959   .     S
Cu365  O377    1.966   .     S
Cu365  Cu366   2.682   .     S
Cu365  O381    1.957   .     S
Cu365  N375    2.015   .     S
Cu365  O380    1.962   .     S
Cu366  N376    2.015   .     S
Cu366  O382    1.957   .     S
Cu366  O378    1.966   .     S
Cu366  O383    1.959   .     S
Cu366  O379    1.962   .     S
H367   C411    1.087   .     S
H368   C470    1.087   1_455 S
O385   C386    1.421   .     S
C386   H388    1.112   .     S
C386   H387    1.110   .     S
C386   C389    1.539   .     S
C389   H391    1.111   .     S
C389   H42     1.109   1_565 S
C389   C450    1.525   .     S
C392   H395    1.111   .     S
C392   H393    1.111   .     S
C392   H394    1.109   .     S
C392   C505    1.525   1_455 S
O396   C397    1.420   .     S
C397   C400    1.535   .     S
C397   H398    1.110   .     S
C397   H399    1.117   .     S
C400   C925    1.524   .     S
H401   C52     1.112   1_565 S
H402   C52     1.109   1_565 S
C403   H406    1.110   .     S
C403   C1444   1.524   1_554 S
C403   H1448   1.111   1_554 S
H404   C925    1.111   .     S
H405   C55     1.109   1_565 S
C407   O435    1.289   .     A
C407   C418    1.455   .     S
C407   O437    1.298   .     A
C408   O436    1.292   .     A
C408   C417    1.447   .     S
C408   O438    1.291   .     A
C409   O441    1.289   .     A
C409   O439    1.287   .     A
C409   C411    1.434   .     S
C410   O440    1.287   .     A
C410   O442    1.289   .     A
C410   C412    1.434   .     S
C412   C469    1.335   .     S
C412   H484    1.087   .     S
C413   C418    1.401   .     A
C413   H427    1.083   .     S
C414   H428    1.084   .     S
C414   C417    1.396   .     A
C414   C68     1.383   1_565 S
C415   C417    1.410   .     A
C415   O443    1.385   .     S
C415   C65     1.389   1_565 S
C416   C418    1.413   .     A
C416   O454    1.384   .     S
C419   N434    1.367   .     A
C419   H429    1.082   .     S
C419   C1465   1.418   1_554 S
C420   N433    1.367   .     A
C420   H430    1.082   .     S
C420   C944    1.417   .     S
C421   N433    1.367   .     A
C421   H431    1.082   .     S
C421   C941    1.418   .     S
C422   N434    1.367   .     A
C422   H432    1.080   .     S
C422   C1464   1.417   1_554 S
Cu423  O442    1.959   .     S
Cu423  O435    1.966   .     S
Cu423  Cu424   2.682   .     S
Cu423  O439    1.957   .     S
Cu423  N433    2.015   .     S
Cu423  O438    1.962   .     S
Cu424  N434    2.015   .     S
Cu424  O440    1.957   .     S
Cu424  O436    1.966   .     S
Cu424  O441    1.959   .     S
Cu424  O437    1.962   .     S
H425   C469    1.087   .     S
O443   C444    1.421   .     S
C444   H446    1.112   .     S
C444   H445    1.110   .     S
C444   C447    1.539   .     S
C447   H449    1.111   .     S
C447   H100    1.109   1_565 S
C447   C508    1.525   .     S
C450   H453    1.111   .     S
C450   H451    1.111   .     S
C450   H452    1.109   .     S
O454   C455    1.420   .     S
C455   C458    1.535   .     S
C455   H456    1.110   .     S
C455   H457    1.117   .     S
C458   C983    1.524   .     S
H459   C110    1.112   1_565 S
H460   C110    1.109   1_565 S
C461   H464    1.110   .     S
C461   C1502   1.524   1_554 S
C461   H1506   1.111   1_554 S
H462   C983    1.111   .     S
H463   C113    1.109   1_565 S
C465   O493    1.289   .     A
C465   C476    1.455   .     S
C465   O495    1.298   .     A
C466   O494    1.292   .     A
C466   C475    1.447   .     S
C466   O496    1.291   .     A
C467   O499    1.289   .     A
C467   O497    1.287   .     A
C467   C469    1.434   .     S
C468   O498    1.287   .     A
C468   O500    1.289   .     A
C468   C470    1.434   .     S
C470   C353    1.335   1_655 S
C470   H368    1.087   1_655 S
C471   C476    1.401   .     A
C471   H485    1.083   .     S
C472   H486    1.084   .     S
C472   C475    1.396   .     A
C472   C126    1.383   1_565 S
C473   C475    1.410   .     A
C473   O501    1.385   .     S
C473   C123    1.389   1_565 S
C474   C476    1.413   .     A
C474   O512    1.384   .     S
C477   N492    1.367   .     A
C477   H487    1.082   .     S
C477   C1523   1.418   1_554 S
C478   N491    1.367   .     A
C478   H488    1.082   .     S
C478   C1002   1.417   .     S
C479   N491    1.367   .     A
C479   H489    1.082   .     S
C479   C999    1.418   .     S
C480   N492    1.367   .     A
C480   H490    1.080   .     S
C480   C1522   1.417   1_554 S
Cu481  O500    1.959   .     S
Cu481  O493    1.966   .     S
Cu481  Cu482   2.682   .     S
Cu481  O497    1.957   .     S
Cu481  N491    2.015   .     S
Cu481  O496    1.962   .     S
Cu482  N492    2.015   .     S
Cu482  O498    1.957   .     S
Cu482  O494    1.966   .     S
Cu482  O499    1.959   .     S
Cu482  O495    1.962   .     S
H483   C353    1.087   1_655 S
O501   C502    1.421   .     S
C502   H504    1.112   .     S
C502   H503    1.110   .     S
C502   C505    1.539   .     S
C505   H507    1.111   .     S
C505   H158    1.109   1_565 S
C505   C392    1.525   1_655 S
C508   H511    1.111   .     S
C508   H509    1.111   .     S
C508   H510    1.109   .     S
O512   C513    1.420   .     S
C513   C516    1.535   .     S
C513   H514    1.110   .     S
C513   H515    1.117   .     S
C516   C1041   1.524   .     S
H517   C168    1.112   1_565 S
H518   C168    1.109   1_565 S
C519   H522    1.110   .     S
C519   C1560   1.524   1_554 S
C519   H1564   1.111   1_554 S
H520   C1041   1.111   .     S
H521   C171    1.109   1_565 S
C523   O551    1.289   .     A
C523   C534    1.455   .     S
C523   O553    1.298   .     A
C524   O552    1.292   .     A
C524   C533    1.447   .     S
C524   O554    1.291   .     A
C525   O557    1.289   .     A
C525   O555    1.287   .     A
C525   C527    1.434   .     S
C526   O556    1.287   .     A
C526   O558    1.289   .     A
C526   C528    1.434   .     S
C527   C644    1.335   1_455 S
C527   H657    1.087   1_455 S
C528   C585    1.335   .     S
C528   H600    1.087   .     S
C529   C534    1.401   .     A
C529   H543    1.083   .     S
C529   C879    1.389   1_545 S
C530   H544    1.084   .     S
C530   C533    1.396   .     A
C530   C706    1.383   .     S
C531   C533    1.410   .     A
C531   O559    1.385   .     S
C531   C703    1.389   .     S
C532   C534    1.413   .     A
C532   O570    1.384   .     S
C532   C878    1.383   1_545 S
C535   N550    1.367   .     A
C535   H545    1.082   .     S
C536   N549    1.367   .     A
C536   H546    1.082   .     S
C536   C1060   1.417   .     S
C537   N549    1.367   .     A
C537   H547    1.082   .     S
C537   C1057   1.418   .     S
C538   N550    1.367   .     A
C538   H548    1.080   .     S
Cu539  O558    1.959   .     S
Cu539  O551    1.966   .     S
Cu539  Cu540   2.682   .     S
Cu539  O555    1.957   .     S
Cu539  N549    2.015   .     S
Cu539  O554    1.962   .     S
Cu540  N550    2.015   .     S
Cu540  O556    1.957   .     S
Cu540  O552    1.966   .     S
Cu540  O557    1.959   .     S
Cu540  O553    1.962   .     S
H541   C585    1.087   .     S
H542   C644    1.087   1_455 S
O559   C560    1.421   .     S
C560   H562    1.112   .     S
C560   H561    1.110   .     S
C560   C563    1.539   .     S
C563   H565    1.111   .     S
C563   H738    1.109   .     S
C563   C624    1.525   .     S
H564   C911    1.109   1_545 S
C566   H569    1.111   .     S
C566   H567    1.111   .     S
C566   H568    1.109   .     S
C566   C679    1.525   1_455 S
O570   C571    1.420   .     S
C571   C574    1.535   .     S
C571   H572    1.110   .     S
C571   H573    1.117   .     S
C574   H923    1.112   1_545 S
C574   H924    1.109   1_545 S
C574   C1099   1.524   .     S
H575   C748    1.112   .     S
H576   C748    1.109   .     S
C577   H580    1.110   .     S
C577   H927    1.109   1_545 S
H578   C1099   1.111   .     S
H579   C751    1.109   .     S
C581   O609    1.289   .     A
C581   C592    1.455   .     S
C581   O611    1.298   .     A
C582   O610    1.292   .     A
C582   C591    1.447   .     S
C582   O612    1.291   .     A
C583   O615    1.289   .     A
C583   O613    1.287   .     A
C583   C585    1.434   .     S
C584   O614    1.287   .     A
C584   O616    1.289   .     A
C584   C586    1.434   .     S
C586   C643    1.335   .     S
C586   H658    1.087   .     S
C587   C592    1.401   .     A
C587   H601    1.083   .     S
C587   C937    1.389   1_545 S
C588   H602    1.084   .     S
C588   C591    1.396   .     A
C588   C764    1.383   .     S
C589   C591    1.410   .     A
C589   O617    1.385   .     S
C589   C761    1.389   .     S
C590   C592    1.413   .     A
C590   O628    1.384   .     S
C590   C936    1.383   1_545 S
C593   N608    1.367   .     A
C593   H603    1.082   .     S
C594   N607    1.367   .     A
C594   H604    1.082   .     S
C594   C1118   1.417   .     S
C595   N607    1.367   .     A
C595   H605    1.082   .     S
C595   C1115   1.418   .     S
C596   N608    1.367   .     A
C596   H606    1.080   .     S
Cu597  O616    1.959   .     S
Cu597  O609    1.966   .     S
Cu597  Cu598   2.682   .     S
Cu597  O613    1.957   .     S
Cu597  N607    2.015   .     S
Cu597  O612    1.962   .     S
Cu598  N608    2.015   .     S
Cu598  O614    1.957   .     S
Cu598  O610    1.966   .     S
Cu598  O615    1.959   .     S
Cu598  O611    1.962   .     S
H599   C643    1.087   .     S
O617   C618    1.421   .     S
C618   H620    1.112   .     S
C618   H619    1.110   .     S
C618   C621    1.539   .     S
C621   H623    1.111   .     S
C621   H796    1.109   .     S
C621   C682    1.525   .     S
H622   C969    1.109   1_545 S
C624   H627    1.111   .     S
C624   H625    1.111   .     S
C624   H626    1.109   .     S
O628   C629    1.420   .     S
C629   C632    1.535   .     S
C629   H630    1.110   .     S
C629   H631    1.117   .     S
C632   H981    1.112   1_545 S
C632   H982    1.109   1_545 S
C632   C1157   1.524   .     S
H633   C806    1.112   .     S
H634   C806    1.109   .     S
C635   H638    1.110   .     S
C635   H985    1.109   1_545 S
H636   C1157   1.111   .     S
H637   C809    1.109   .     S
C639   O667    1.289   .     A
C639   C650    1.455   .     S
C639   O669    1.298   .     A
C640   O668    1.292   .     A
C640   C649    1.447   .     S
C640   O670    1.291   .     A
C641   O673    1.289   .     A
C641   O671    1.287   .     A
C641   C643    1.434   .     S
C642   O672    1.287   .     A
C642   O674    1.289   .     A
C642   C644    1.434   .     S
C644   C527    1.335   1_655 S
C644   H542    1.087   1_655 S
C645   C650    1.401   .     A
C645   H659    1.083   .     S
C645   C995    1.389   1_545 S
C646   H660    1.084   .     S
C646   C649    1.396   .     A
C646   C822    1.383   .     S
C647   C649    1.410   .     A
C647   O675    1.385   .     S
C647   C819    1.389   .     S
C648   C650    1.413   .     A
C648   O686    1.384   .     S
C648   C994    1.383   1_545 S
C651   N666    1.367   .     A
C651   H661    1.082   .     S
C652   N665    1.367   .     A
C652   H662    1.082   .     S
C652   C1176   1.417   .     S
C653   N665    1.367   .     A
C653   H663    1.082   .     S
C653   C1173   1.418   .     S
C654   N666    1.367   .     A
C654   H664    1.080   .     S
Cu655  O674    1.959   .     S
Cu655  O667    1.966   .     S
Cu655  Cu656   2.682   .     S
Cu655  O671    1.957   .     S
Cu655  N665    2.015   .     S
Cu655  O670    1.962   .     S
Cu656  N666    2.015   .     S
Cu656  O672    1.957   .     S
Cu656  O668    1.966   .     S
Cu656  O673    1.959   .     S
Cu656  O669    1.962   .     S
H657   C527    1.087   1_655 S
O675   C676    1.421   .     S
C676   H678    1.112   .     S
C676   H677    1.110   .     S
C676   C679    1.539   .     S
C679   H681    1.111   .     S
C679   H854    1.109   .     S
C679   C566    1.525   1_655 S
H680   C1027   1.109   1_545 S
C682   H685    1.111   .     S
C682   H683    1.111   .     S
C682   H684    1.109   .     S
O686   C687    1.420   .     S
C687   C690    1.535   .     S
C687   H688    1.110   .     S
C687   H689    1.117   .     S
C690   H1039   1.112   1_545 S
C690   H1040   1.109   1_545 S
C690   C1215   1.524   .     S
H691   C864    1.112   .     S
H692   C864    1.109   .     S
C693   H696    1.110   .     S
C693   H1043   1.109   1_545 S
H694   C1215   1.111   .     S
H695   C867    1.109   .     S
C697   O725    1.289   .     A
C697   C708    1.455   .     S
C697   O727    1.298   .     A
C698   O726    1.292   .     A
C698   C707    1.447   .     S
C698   O728    1.291   .     A
C699   O731    1.289   .     A
C699   O729    1.287   .     A
C699   C701    1.434   .     S
C700   O730    1.287   .     A
C700   O732    1.289   .     A
C700   C702    1.434   .     S
C701   C818    1.335   1_455 S
C701   H831    1.087   1_455 S
C702   C759    1.335   .     S
C702   H774    1.087   .     S
C703   C708    1.401   .     A
C703   H717    1.083   .     S
C704   H718    1.084   .     S
C704   C707    1.396   .     A
C704   C880    1.383   .     S
C705   C707    1.410   .     A
C705   O733    1.385   .     S
C705   C877    1.389   .     S
C706   C708    1.413   .     A
C706   O744    1.384   .     S
C709   N724    1.367   .     A
C709   H719    1.082   .     S
C710   N723    1.367   .     A
C710   H720    1.082   .     S
C710   C1234   1.417   .     S
C711   N723    1.367   .     A
C711   H721    1.082   .     S
C711   C1231   1.418   .     S
C712   N724    1.367   .     A
C712   H722    1.080   .     S
Cu713  O732    1.959   .     S
Cu713  O725    1.966   .     S
Cu713  Cu714   2.682   .     S
Cu713  O729    1.957   .     S
Cu713  N723    2.015   .     S
Cu713  O728    1.962   .     S
Cu714  N724    2.015   .     S
Cu714  O730    1.957   .     S
Cu714  O726    1.966   .     S
Cu714  O731    1.959   .     S
Cu714  O727    1.962   .     S
H715   C759    1.087   .     S
H716   C818    1.087   1_455 S
O733   C734    1.421   .     S
C734   H736    1.112   .     S
C734   H735    1.110   .     S
C734   C737    1.539   .     S
C737   H739    1.111   .     S
C737   H912    1.109   .     S
C737   C798    1.525   .     S
C740   H743    1.111   .     S
C740   H741    1.111   .     S
C740   H742    1.109   .     S
C740   C853    1.525   1_455 S
O744   C745    1.420   .     S
C745   C748    1.535   .     S
C745   H746    1.110   .     S
C745   H747    1.117   .     S
C748   C1273   1.524   .     S
H749   C922    1.112   .     S
H750   C922    1.109   .     S
C751   H754    1.110   .     S
H752   C1273   1.111   .     S
H753   C925    1.109   .     S
C755   O783    1.289   .     A
C755   C766    1.455   .     S
C755   O785    1.298   .     A
C756   O784    1.292   .     A
C756   C765    1.447   .     S
C756   O786    1.291   .     A
C757   O789    1.289   .     A
C757   O787    1.287   .     A
C757   C759    1.434   .     S
C758   O788    1.287   .     A
C758   O790    1.289   .     A
C758   C760    1.434   .     S
C760   C817    1.335   .     S
C760   H832    1.087   .     S
C761   C766    1.401   .     A
C761   H775    1.083   .     S
C762   H776    1.084   .     S
C762   C765    1.396   .     A
C762   C938    1.383   .     S
C763   C765    1.410   .     A
C763   O791    1.385   .     S
C763   C935    1.389   .     S
C764   C766    1.413   .     A
C764   O802    1.384   .     S
C767   N782    1.367   .     A
C767   H777    1.082   .     S
C768   N781    1.367   .     A
C768   H778    1.082   .     S
C768   C1292   1.417   .     S
C769   N781    1.367   .     A
C769   H779    1.082   .     S
C769   C1289   1.418   .     S
C770   N782    1.367   .     A
C770   H780    1.080   .     S
Cu771  O790    1.959   .     S
Cu771  O783    1.966   .     S
Cu771  Cu772   2.682   .     S
Cu771  O787    1.957   .     S
Cu771  N781    2.015   .     S
Cu771  O786    1.962   .     S
Cu772  N782    2.015   .     S
Cu772  O788    1.957   .     S
Cu772  O784    1.966   .     S
Cu772  O789    1.959   .     S
Cu772  O785    1.962   .     S
H773   C817    1.087   .     S
O791   C792    1.421   .     S
C792   H794    1.112   .     S
C792   H793    1.110   .     S
C792   C795    1.539   .     S
C795   H797    1.111   .     S
C795   H970    1.109   .     S
C795   C856    1.525   .     S
C798   H801    1.111   .     S
C798   H799    1.111   .     S
C798   H800    1.109   .     S
O802   C803    1.420   .     S
C803   C806    1.535   .     S
C803   H804    1.110   .     S
C803   H805    1.117   .     S
C806   C1331   1.524   .     S
H807   C980    1.112   .     S
H808   C980    1.109   .     S
C809   H812    1.110   .     S
H810   C1331   1.111   .     S
H811   C983    1.109   .     S
C813   O841    1.289   .     A
C813   C824    1.455   .     S
C813   O843    1.298   .     A
C814   O842    1.292   .     A
C814   C823    1.447   .     S
C814   O844    1.291   .     A
C815   O847    1.289   .     A
C815   O845    1.287   .     A
C815   C817    1.434   .     S
C816   O846    1.287   .     A
C816   O848    1.289   .     A
C816   C818    1.434   .     S
C818   C701    1.335   1_655 S
C818   H716    1.087   1_655 S
C819   C824    1.401   .     A
C819   H833    1.083   .     S
C820   H834    1.084   .     S
C820   C823    1.396   .     A
C820   C996    1.383   .     S
C821   C823    1.410   .     A
C821   O849    1.385   .     S
C821   C993    1.389   .     S
C822   C824    1.413   .     A
C822   O860    1.384   .     S
C825   N840    1.367   .     A
C825   H835    1.082   .     S
C826   N839    1.367   .     A
C826   H836    1.082   .     S
C826   C1350   1.417   .     S
C827   N839    1.367   .     A
C827   H837    1.082   .     S
C827   C1347   1.418   .     S
C828   N840    1.367   .     A
C828   H838    1.080   .     S
Cu829  O848    1.959   .     S
Cu829  O841    1.966   .     S
Cu829  Cu830   2.682   .     S
Cu829  O845    1.957   .     S
Cu829  N839    2.015   .     S
Cu829  O844    1.962   .     S
Cu830  N840    2.015   .     S
Cu830  O846    1.957   .     S
Cu830  O842    1.966   .     S
Cu830  O847    1.959   .     S
Cu830  O843    1.962   .     S
H831   C701    1.087   1_655 S
O849   C850    1.421   .     S
C850   H852    1.112   .     S
C850   H851    1.110   .     S
C850   C853    1.539   .     S
C853   H855    1.111   .     S
C853   H1028   1.109   .     S
C853   C740    1.525   1_655 S
C856   H859    1.111   .     S
C856   H857    1.111   .     S
C856   H858    1.109   .     S
O860   C861    1.420   .     S
C861   C864    1.535   .     S
C861   H862    1.110   .     S
C861   H863    1.117   .     S
C864   C1389   1.524   .     S
H865   C1038   1.112   .     S
H866   C1038   1.109   .     S
C867   H870    1.110   .     S
H868   C1389   1.111   .     S
H869   C1041   1.109   .     S
C871   O899    1.289   .     A
C871   C882    1.455   .     S
C871   O901    1.298   .     A
C872   O900    1.292   .     A
C872   C881    1.447   .     S
C872   O902    1.291   .     A
C873   O905    1.289   .     A
C873   O903    1.287   .     A
C873   C875    1.434   .     S
C874   O904    1.287   .     A
C874   O906    1.289   .     A
C874   C876    1.434   .     S
C875   C992    1.335   1_455 S
C875   H1005   1.087   1_455 S
C876   C933    1.335   .     S
C876   H948    1.087   .     S
C877   C882    1.401   .     A
C877   H891    1.083   .     S
C878   H892    1.084   .     S
C878   C881    1.396   .     A
C878   C532    1.383   1_565 S
C879   C881    1.410   .     A
C879   O907    1.385   .     S
C879   C529    1.389   1_565 S
C880   C882    1.413   .     A
C880   O918    1.384   .     S
C883   N898    1.367   .     A
C883   H893    1.082   .     S
C884   N897    1.367   .     A
C884   H894    1.082   .     S
C884   C1408   1.417   .     S
C885   N897    1.367   .     A
C885   H895    1.082   .     S
C885   C1405   1.418   .     S
C886   N898    1.367   .     A
C886   H896    1.080   .     S
Cu887  O906    1.959   .     S
Cu887  O899    1.966   .     S
Cu887  Cu888   2.682   .     S
Cu887  O903    1.957   .     S
Cu887  N897    2.015   .     S
Cu887  O902    1.962   .     S
Cu888  N898    2.015   .     S
Cu888  O904    1.957   .     S
Cu888  O900    1.966   .     S
Cu888  O905    1.959   .     S
Cu888  O901    1.962   .     S
H889   C933    1.087   .     S
H890   C992    1.087   1_455 S
O907   C908    1.421   .     S
C908   H910    1.112   .     S
C908   H909    1.110   .     S
C908   C911    1.539   .     S
C911   H913    1.111   .     S
C911   H564    1.109   1_565 S
C911   C972    1.525   .     S
C914   H917    1.111   .     S
C914   H915    1.111   .     S
C914   H916    1.109   .     S
C914   C1027   1.525   1_455 S
O918   C919    1.420   .     S
C919   C922    1.535   .     S
C919   H920    1.110   .     S
C919   H921    1.117   .     S
C922   C1447   1.524   .     S
H923   C574    1.112   1_565 S
H924   C574    1.109   1_565 S
C925   H928    1.110   .     S
H926   C1447   1.111   .     S
H927   C577    1.109   1_565 S
C929   O957    1.289   .     A
C929   C940    1.455   .     S
C929   O959    1.298   .     A
C930   O958    1.292   .     A
C930   C939    1.447   .     S
C930   O960    1.291   .     A
C931   O963    1.289   .     A
C931   O961    1.287   .     A
C931   C933    1.434   .     S
C932   O962    1.287   .     A
C932   O964    1.289   .     A
C932   C934    1.434   .     S
C934   C991    1.335   .     S
C934   H1006   1.087   .     S
C935   C940    1.401   .     A
C935   H949    1.083   .     S
C936   H950    1.084   .     S
C936   C939    1.396   .     A
C936   C590    1.383   1_565 S
C937   C939    1.410   .     A
C937   O965    1.385   .     S
C937   C587    1.389   1_565 S
C938   C940    1.413   .     A
C938   O976    1.384   .     S
C941   N956    1.367   .     A
C941   H951    1.082   .     S
C942   N955    1.367   .     A
C942   H952    1.082   .     S
C942   C1466   1.417   .     S
C943   N955    1.367   .     A
C943   H953    1.082   .     S
C943   C1463   1.418   .     S
C944   N956    1.367   .     A
C944   H954    1.080   .     S
Cu945  O964    1.959   .     S
Cu945  O957    1.966   .     S
Cu945  Cu946   2.682   .     S
Cu945  O961    1.957   .     S
Cu945  N955    2.015   .     S
Cu945  O960    1.962   .     S
Cu946  N956    2.015   .     S
Cu946  O962    1.957   .     S
Cu946  O958    1.966   .     S
Cu946  O963    1.959   .     S
Cu946  O959    1.962   .     S
H947   C991    1.087   .     S
O965   C966    1.421   .     S
C966   H968    1.112   .     S
C966   H967    1.110   .     S
C966   C969    1.539   .     S
C969   H971    1.111   .     S
C969   H622    1.109   1_565 S
C969   C1030   1.525   .     S
C972   H975    1.111   .     S
C972   H973    1.111   .     S
C972   H974    1.109   .     S
O976   C977    1.420   .     S
C977   C980    1.535   .     S
C977   H978    1.110   .     S
C977   H979    1.117   .     S
C980   C1505   1.524   .     S
H981   C632    1.112   1_565 S
H982   C632    1.109   1_565 S
C983   H986    1.110   .     S
H984   C1505   1.111   .     S
H985   C635    1.109   1_565 S
C987   O1015   1.289   .     A
C987   C998    1.455   .     S
C987   O1017   1.298   .     A
C988   O1016   1.292   .     A
C988   C997    1.447   .     S
C988   O1018   1.291   .     A
C989   O1021   1.289   .     A
C989   O1019   1.287   .     A
C989   C991    1.434   .     S
C990   O1020   1.287   .     A
C990   O1022   1.289   .     A
C990   C992    1.434   .     S
C992   C875    1.335   1_655 S
C992   H890    1.087   1_655 S
C993   C998    1.401   .     A
C993   H1007   1.083   .     S
C994   H1008   1.084   .     S
C994   C997    1.396   .     A
C994   C648    1.383   1_565 S
C995   C997    1.410   .     A
C995   O1023   1.385   .     S
C995   C645    1.389   1_565 S
C996   C998    1.413   .     A
C996   O1034   1.384   .     S
C999   N1014   1.367   .     A
C999   H1009   1.082   .     S
C1000  N1013   1.367   .     A
C1000  H1010   1.082   .     S
C1000  C1524   1.417   .     S
C1001  N1013   1.367   .     A
C1001  H1011   1.082   .     S
C1001  C1521   1.418   .     S
C1002  N1014   1.367   .     A
C1002  H1012   1.080   .     S
Cu1003 O1022   1.959   .     S
Cu1003 O1015   1.966   .     S
Cu1003 Cu1004  2.682   .     S
Cu1003 O1019   1.957   .     S
Cu1003 N1013   2.015   .     S
Cu1003 O1018   1.962   .     S
Cu1004 N1014   2.015   .     S
Cu1004 O1020   1.957   .     S
Cu1004 O1016   1.966   .     S
Cu1004 O1021   1.959   .     S
Cu1004 O1017   1.962   .     S
H1005  C875    1.087   1_655 S
O1023  C1024   1.421   .     S
C1024  H1026   1.112   .     S
C1024  H1025   1.110   .     S
C1024  C1027   1.539   .     S
C1027  H1029   1.111   .     S
C1027  H680    1.109   1_565 S
C1027  C914    1.525   1_655 S
C1030  H1033   1.111   .     S
C1030  H1031   1.111   .     S
C1030  H1032   1.109   .     S
O1034  C1035   1.420   .     S
C1035  C1038   1.535   .     S
C1035  H1036   1.110   .     S
C1035  H1037   1.117   .     S
C1038  C1563   1.524   .     S
H1039  C690    1.112   1_565 S
H1040  C690    1.109   1_565 S
C1041  H1044   1.110   .     S
H1042  C1563   1.111   .     S
H1043  C693    1.109   1_565 S
C1045  O1073   1.289   .     A
C1045  C1056   1.455   .     S
C1045  O1075   1.298   .     A
C1046  O1074   1.292   .     A
C1046  C1055   1.447   .     S
C1046  O1076   1.291   .     A
C1047  O1079   1.289   .     A
C1047  O1077   1.287   .     A
C1047  C1049   1.434   .     S
C1048  O1078   1.287   .     A
C1048  O1080   1.289   .     A
C1048  C1050   1.434   .     S
C1049  C1166   1.335   1_455 S
C1049  H1179   1.087   1_455 S
C1050  C1107   1.335   .     S
C1050  H1122   1.087   .     S
C1051  C1056   1.401   .     A
C1051  H1065   1.083   .     S
C1051  C1401   1.389   1_545 S
C1052  H1066   1.084   .     S
C1052  C1055   1.396   .     A
C1052  C1228   1.383   .     S
C1053  C1055   1.410   .     A
C1053  O1081   1.385   .     S
C1053  C1225   1.389   .     S
C1054  C1056   1.413   .     A
C1054  O1092   1.384   .     S
C1054  C1400   1.383   1_545 S
C1057  N1072   1.367   .     A
C1057  H1067   1.082   .     S
C1058  N1071   1.367   .     A
C1058  H1068   1.082   .     S
C1058  C16     1.417   1_556 S
C1059  N1071   1.367   .     A
C1059  H1069   1.082   .     S
C1059  C13     1.418   1_556 S
C1060  N1072   1.367   .     A
C1060  H1070   1.080   .     S
Cu1061 O1080   1.959   .     S
Cu1061 O1073   1.966   .     S
Cu1061 Cu1062  2.682   .     S
Cu1061 O1077   1.957   .     S
Cu1061 N1071   2.015   .     S
Cu1061 O1076   1.962   .     S
Cu1062 N1072   2.015   .     S
Cu1062 O1078   1.957   .     S
Cu1062 O1074   1.966   .     S
Cu1062 O1079   1.959   .     S
Cu1062 O1075   1.962   .     S
H1063  C1107   1.087   .     S
H1064  C1166   1.087   1_455 S
O1081  C1082   1.421   .     S
C1082  H1084   1.112   .     S
C1082  H1083   1.110   .     S
C1082  C1085   1.539   .     S
C1085  H1087   1.111   .     S
C1085  H1260   1.109   .     S
C1085  C1146   1.525   .     S
H1086  C1433   1.109   1_545 S
C1088  H1091   1.111   .     S
C1088  H1089   1.111   .     S
C1088  H1090   1.109   .     S
C1088  C1201   1.525   1_455 S
O1092  C1093   1.420   .     S
C1093  C1096   1.535   .     S
C1093  H1094   1.110   .     S
C1093  H1095   1.117   .     S
C1096  H1445   1.112   1_545 S
C1096  H1446   1.109   1_545 S
C1096  C55     1.524   1_556 S
H1097  C1270   1.112   .     S
H1098  C1270   1.109   .     S
C1099  H1102   1.110   .     S
C1099  H1449   1.109   1_545 S
H1100  C55     1.111   1_556 S
H1101  C1273   1.109   .     S
C1103  O1131   1.289   .     A
C1103  C1114   1.455   .     S
C1103  O1133   1.298   .     A
C1104  O1132   1.292   .     A
C1104  C1113   1.447   .     S
C1104  O1134   1.291   .     A
C1105  O1137   1.289   .     A
C1105  O1135   1.287   .     A
C1105  C1107   1.434   .     S
C1106  O1136   1.287   .     A
C1106  O1138   1.289   .     A
C1106  C1108   1.434   .     S
C1108  C1165   1.335   .     S
C1108  H1180   1.087   .     S
C1109  C1114   1.401   .     A
C1109  H1123   1.083   .     S
C1109  C1459   1.389   1_545 S
C1110  H1124   1.084   .     S
C1110  C1113   1.396   .     A
C1110  C1286   1.383   .     S
C1111  C1113   1.410   .     A
C1111  O1139   1.385   .     S
C1111  C1283   1.389   .     S
C1112  C1114   1.413   .     A
C1112  O1150   1.384   .     S
C1112  C1458   1.383   1_545 S
C1115  N1130   1.367   .     A
C1115  H1125   1.082   .     S
C1116  N1129   1.367   .     A
C1116  H1126   1.082   .     S
C1116  C74     1.417   1_556 S
C1117  N1129   1.367   .     A
C1117  H1127   1.082   .     S
C1117  C71     1.418   1_556 S
C1118  N1130   1.367   .     A
C1118  H1128   1.080   .     S
Cu1119 O1138   1.959   .     S
Cu1119 O1131   1.966   .     S
Cu1119 Cu1120  2.682   .     S
Cu1119 O1135   1.957   .     S
Cu1119 N1129   2.015   .     S
Cu1119 O1134   1.962   .     S
Cu1120 N1130   2.015   .     S
Cu1120 O1136   1.957   .     S
Cu1120 O1132   1.966   .     S
Cu1120 O1137   1.959   .     S
Cu1120 O1133   1.962   .     S
H1121  C1165   1.087   .     S
O1139  C1140   1.421   .     S
C1140  H1142   1.112   .     S
C1140  H1141   1.110   .     S
C1140  C1143   1.539   .     S
C1143  H1145   1.111   .     S
C1143  H1318   1.109   .     S
C1143  C1204   1.525   .     S
H1144  C1491   1.109   1_545 S
C1146  H1149   1.111   .     S
C1146  H1147   1.111   .     S
C1146  H1148   1.109   .     S
O1150  C1151   1.420   .     S
C1151  C1154   1.535   .     S
C1151  H1152   1.110   .     S
C1151  H1153   1.117   .     S
C1154  H1503   1.112   1_545 S
C1154  H1504   1.109   1_545 S
C1154  C113    1.524   1_556 S
H1155  C1328   1.112   .     S
H1156  C1328   1.109   .     S
C1157  H1160   1.110   .     S
C1157  H1507   1.109   1_545 S
H1158  C113    1.111   1_556 S
H1159  C1331   1.109   .     S
C1161  O1189   1.289   .     A
C1161  C1172   1.455   .     S
C1161  O1191   1.298   .     A
C1162  O1190   1.292   .     A
C1162  C1171   1.447   .     S
C1162  O1192   1.291   .     A
C1163  O1195   1.289   .     A
C1163  O1193   1.287   .     A
C1163  C1165   1.434   .     S
C1164  O1194   1.287   .     A
C1164  O1196   1.289   .     A
C1164  C1166   1.434   .     S
C1166  C1049   1.335   1_655 S
C1166  H1064   1.087   1_655 S
C1167  C1172   1.401   .     A
C1167  H1181   1.083   .     S
C1167  C1517   1.389   1_545 S
C1168  H1182   1.084   .     S
C1168  C1171   1.396   .     A
C1168  C1344   1.383   .     S
C1169  C1171   1.410   .     A
C1169  O1197   1.385   .     S
C1169  C1341   1.389   .     S
C1170  C1172   1.413   .     A
C1170  O1208   1.384   .     S
C1170  C1516   1.383   1_545 S
C1173  N1188   1.367   .     A
C1173  H1183   1.082   .     S
C1174  N1187   1.367   .     A
C1174  H1184   1.082   .     S
C1174  C132    1.417   1_556 S
C1175  N1187   1.367   .     A
C1175  H1185   1.082   .     S
C1175  C129    1.418   1_556 S
C1176  N1188   1.367   .     A
C1176  H1186   1.080   .     S
Cu1177 O1196   1.959   .     S
Cu1177 O1189   1.966   .     S
Cu1177 Cu1178  2.682   .     S
Cu1177 O1193   1.957   .     S
Cu1177 N1187   2.015   .     S
Cu1177 O1192   1.962   .     S
Cu1178 N1188   2.015   .     S
Cu1178 O1194   1.957   .     S
Cu1178 O1190   1.966   .     S
Cu1178 O1195   1.959   .     S
Cu1178 O1191   1.962   .     S
H1179  C1049   1.087   1_655 S
O1197  C1198   1.421   .     S
C1198  H1200   1.112   .     S
C1198  H1199   1.110   .     S
C1198  C1201   1.539   .     S
C1201  H1203   1.111   .     S
C1201  H1376   1.109   .     S
C1201  C1088   1.525   1_655 S
H1202  C1549   1.109   1_545 S
C1204  H1207   1.111   .     S
C1204  H1205   1.111   .     S
C1204  H1206   1.109   .     S
O1208  C1209   1.420   .     S
C1209  C1212   1.535   .     S
C1209  H1210   1.110   .     S
C1209  H1211   1.117   .     S
C1212  H1561   1.112   1_545 S
C1212  H1562   1.109   1_545 S
C1212  C171    1.524   1_556 S
H1213  C1386   1.112   .     S
H1214  C1386   1.109   .     S
C1215  H1218   1.110   .     S
C1215  H1565   1.109   1_545 S
H1216  C171    1.111   1_556 S
H1217  C1389   1.109   .     S
C1219  O1247   1.289   .     A
C1219  C1230   1.455   .     S
C1219  O1249   1.298   .     A
C1220  O1248   1.292   .     A
C1220  C1229   1.447   .     S
C1220  O1250   1.291   .     A
C1221  O1253   1.289   .     A
C1221  O1251   1.287   .     A
C1221  C1223   1.434   .     S
C1222  O1252   1.287   .     A
C1222  O1254   1.289   .     A
C1222  C1224   1.434   .     S
C1223  C1340   1.335   1_455 S
C1223  H1353   1.087   1_455 S
C1224  C1281   1.335   .     S
C1224  H1296   1.087   .     S
C1225  C1230   1.401   .     A
C1225  H1239   1.083   .     S
C1226  H1240   1.084   .     S
C1226  C1229   1.396   .     A
C1226  C1402   1.383   .     S
C1227  C1229   1.410   .     A
C1227  O1255   1.385   .     S
C1227  C1399   1.389   .     S
C1228  C1230   1.413   .     A
C1228  O1266   1.384   .     S
C1231  N1246   1.367   .     A
C1231  H1241   1.082   .     S
C1232  N1245   1.367   .     A
C1232  H1242   1.082   .     S
C1232  C190    1.417   1_556 S
C1233  N1245   1.367   .     A
C1233  H1243   1.082   .     S
C1233  C187    1.418   1_556 S
C1234  N1246   1.367   .     A
C1234  H1244   1.080   .     S
Cu1235 O1254   1.959   .     S
Cu1235 O1247   1.966   .     S
Cu1235 Cu1236  2.682   .     S
Cu1235 O1251   1.957   .     S
Cu1235 N1245   2.015   .     S
Cu1235 O1250   1.962   .     S
Cu1236 N1246   2.015   .     S
Cu1236 O1252   1.957   .     S
Cu1236 O1248   1.966   .     S
Cu1236 O1253   1.959   .     S
Cu1236 O1249   1.962   .     S
H1237  C1281   1.087   .     S
H1238  C1340   1.087   1_455 S
O1255  C1256   1.421   .     S
C1256  H1258   1.112   .     S
C1256  H1257   1.110   .     S
C1256  C1259   1.539   .     S
C1259  H1261   1.111   .     S
C1259  H1434   1.109   .     S
C1259  C1320   1.525   .     S
C1262  H1265   1.111   .     S
C1262  H1263   1.111   .     S
C1262  H1264   1.109   .     S
C1262  C1375   1.525   1_455 S
O1266  C1267   1.420   .     S
C1267  C1270   1.535   .     S
C1267  H1268   1.110   .     S
C1267  H1269   1.117   .     S
C1270  C229    1.524   1_556 S
H1271  C1444   1.112   .     S
H1272  C1444   1.109   .     S
C1273  H1276   1.110   .     S
H1274  C229    1.111   1_556 S
H1275  C1447   1.109   .     S
C1277  O1305   1.289   .     A
C1277  C1288   1.455   .     S
C1277  O1307   1.298   .     A
C1278  O1306   1.292   .     A
C1278  C1287   1.447   .     S
C1278  O1308   1.291   .     A
C1279  O1311   1.289   .     A
C1279  O1309   1.287   .     A
C1279  C1281   1.434   .     S
C1280  O1310   1.287   .     A
C1280  O1312   1.289   .     A
C1280  C1282   1.434   .     S
C1282  C1339   1.335   .     S
C1282  H1354   1.087   .     S
C1283  C1288   1.401   .     A
C1283  H1297   1.083   .     S
C1284  H1298   1.084   .     S
C1284  C1287   1.396   .     A
C1284  C1460   1.383   .     S
C1285  C1287   1.410   .     A
C1285  O1313   1.385   .     S
C1285  C1457   1.389   .     S
C1286  C1288   1.413   .     A
C1286  O1324   1.384   .     S
C1289  N1304   1.367   .     A
C1289  H1299   1.082   .     S
C1290  N1303   1.367   .     A
C1290  H1300   1.082   .     S
C1290  C248    1.417   1_556 S
C1291  N1303   1.367   .     A
C1291  H1301   1.082   .     S
C1291  C245    1.418   1_556 S
C1292  N1304   1.367   .     A
C1292  H1302   1.080   .     S
Cu1293 O1312   1.959   .     S
Cu1293 O1305   1.966   .     S
Cu1293 Cu1294  2.682   .     S
Cu1293 O1309   1.957   .     S
Cu1293 N1303   2.015   .     S
Cu1293 O1308   1.962   .     S
Cu1294 N1304   2.015   .     S
Cu1294 O1310   1.957   .     S
Cu1294 O1306   1.966   .     S
Cu1294 O1311   1.959   .     S
Cu1294 O1307   1.962   .     S
H1295  C1339   1.087   .     S
O1313  C1314   1.421   .     S
C1314  H1316   1.112   .     S
C1314  H1315   1.110   .     S
C1314  C1317   1.539   .     S
C1317  H1319   1.111   .     S
C1317  H1492   1.109   .     S
C1317  C1378   1.525   .     S
C1320  H1323   1.111   .     S
C1320  H1321   1.111   .     S
C1320  H1322   1.109   .     S
O1324  C1325   1.420   .     S
C1325  C1328   1.535   .     S
C1325  H1326   1.110   .     S
C1325  H1327   1.117   .     S
C1328  C287    1.524   1_556 S
H1329  C1502   1.112   .     S
H1330  C1502   1.109   .     S
C1331  H1334   1.110   .     S
H1332  C287    1.111   1_556 S
H1333  C1505   1.109   .     S
C1335  O1363   1.289   .     A
C1335  C1346   1.455   .     S
C1335  O1365   1.298   .     A
C1336  O1364   1.292   .     A
C1336  C1345   1.447   .     S
C1336  O1366   1.291   .     A
C1337  O1369   1.289   .     A
C1337  O1367   1.287   .     A
C1337  C1339   1.434   .     S
C1338  O1368   1.287   .     A
C1338  O1370   1.289   .     A
C1338  C1340   1.434   .     S
C1340  C1223   1.335   1_655 S
C1340  H1238   1.087   1_655 S
C1341  C1346   1.401   .     A
C1341  H1355   1.083   .     S
C1342  H1356   1.084   .     S
C1342  C1345   1.396   .     A
C1342  C1518   1.383   .     S
C1343  C1345   1.410   .     A
C1343  O1371   1.385   .     S
C1343  C1515   1.389   .     S
C1344  C1346   1.413   .     A
C1344  O1382   1.384   .     S
C1347  N1362   1.367   .     A
C1347  H1357   1.082   .     S
C1348  N1361   1.367   .     A
C1348  H1358   1.082   .     S
C1348  C306    1.417   1_556 S
C1349  N1361   1.367   .     A
C1349  H1359   1.082   .     S
C1349  C303    1.418   1_556 S
C1350  N1362   1.367   .     A
C1350  H1360   1.080   .     S
Cu1351 O1370   1.959   .     S
Cu1351 O1363   1.966   .     S
Cu1351 Cu1352  2.682   .     S
Cu1351 O1367   1.957   .     S
Cu1351 N1361   2.015   .     S
Cu1351 O1366   1.962   .     S
Cu1352 N1362   2.015   .     S
Cu1352 O1368   1.957   .     S
Cu1352 O1364   1.966   .     S
Cu1352 O1369   1.959   .     S
Cu1352 O1365   1.962   .     S
H1353  C1223   1.087   1_655 S
O1371  C1372   1.421   .     S
C1372  H1374   1.112   .     S
C1372  H1373   1.110   .     S
C1372  C1375   1.539   .     S
C1375  H1377   1.111   .     S
C1375  H1550   1.109   .     S
C1375  C1262   1.525   1_655 S
C1378  H1381   1.111   .     S
C1378  H1379   1.111   .     S
C1378  H1380   1.109   .     S
O1382  C1383   1.420   .     S
C1383  C1386   1.535   .     S
C1383  H1384   1.110   .     S
C1383  H1385   1.117   .     S
C1386  C345    1.524   1_556 S
H1387  C1560   1.112   .     S
H1388  C1560   1.109   .     S
C1389  H1392   1.110   .     S
H1390  C345    1.111   1_556 S
H1391  C1563   1.109   .     S
C1393  O1421   1.289   .     A
C1393  C1404   1.455   .     S
C1393  O1423   1.298   .     A
C1394  O1422   1.292   .     A
C1394  C1403   1.447   .     S
C1394  O1424   1.291   .     A
C1395  O1427   1.289   .     A
C1395  O1425   1.287   .     A
C1395  C1397   1.434   .     S
C1396  O1426   1.287   .     A
C1396  O1428   1.289   .     A
C1396  C1398   1.434   .     S
C1397  C1514   1.335   1_455 S
C1397  H1527   1.087   1_455 S
C1398  C1455   1.335   .     S
C1398  H1470   1.087   .     S
C1399  C1404   1.401   .     A
C1399  H1413   1.083   .     S
C1400  H1414   1.084   .     S
C1400  C1403   1.396   .     A
C1400  C1054   1.383   1_565 S
C1401  C1403   1.410   .     A
C1401  O1429   1.385   .     S
C1401  C1051   1.389   1_565 S
C1402  C1404   1.413   .     A
C1402  O1440   1.384   .     S
C1405  N1420   1.367   .     A
C1405  H1415   1.082   .     S
C1406  N1419   1.367   .     A
C1406  H1416   1.082   .     S
C1406  C364    1.417   1_556 S
C1407  N1419   1.367   .     A
C1407  H1417   1.082   .     S
C1407  C361    1.418   1_556 S
C1408  N1420   1.367   .     A
C1408  H1418   1.080   .     S
Cu1409 O1428   1.959   .     S
Cu1409 O1421   1.966   .     S
Cu1409 Cu1410  2.682   .     S
Cu1409 O1425   1.957   .     S
Cu1409 N1419   2.015   .     S
Cu1409 O1424   1.962   .     S
Cu1410 N1420   2.015   .     S
Cu1410 O1426   1.957   .     S
Cu1410 O1422   1.966   .     S
Cu1410 O1427   1.959   .     S
Cu1410 O1423   1.962   .     S
H1411  C1455   1.087   .     S
H1412  C1514   1.087   1_455 S
O1429  C1430   1.421   .     S
C1430  H1432   1.112   .     S
C1430  H1431   1.110   .     S
C1430  C1433   1.539   .     S
C1433  H1435   1.111   .     S
C1433  H1086   1.109   1_565 S
C1433  C1494   1.525   .     S
C1436  H1439   1.111   .     S
C1436  H1437   1.111   .     S
C1436  H1438   1.109   .     S
C1436  C1549   1.525   1_455 S
O1440  C1441   1.420   .     S
C1441  C1444   1.535   .     S
C1441  H1442   1.110   .     S
C1441  H1443   1.117   .     S
C1444  C403    1.524   1_556 S
H1445  C1096   1.112   1_565 S
H1446  C1096   1.109   1_565 S
C1447  H1450   1.110   .     S
H1448  C403    1.111   1_556 S
H1449  C1099   1.109   1_565 S
C1451  O1479   1.289   .     A
C1451  C1462   1.455   .     S
C1451  O1481   1.298   .     A
C1452  O1480   1.292   .     A
C1452  C1461   1.447   .     S
C1452  O1482   1.291   .     A
C1453  O1485   1.289   .     A
C1453  O1483   1.287   .     A
C1453  C1455   1.434   .     S
C1454  O1484   1.287   .     A
C1454  O1486   1.289   .     A
C1454  C1456   1.434   .     S
C1456  C1513   1.335   .     S
C1456  H1528   1.087   .     S
C1457  C1462   1.401   .     A
C1457  H1471   1.083   .     S
C1458  H1472   1.084   .     S
C1458  C1461   1.396   .     A
C1458  C1112   1.383   1_565 S
C1459  C1461   1.410   .     A
C1459  O1487   1.385   .     S
C1459  C1109   1.389   1_565 S
C1460  C1462   1.413   .     A
C1460  O1498   1.384   .     S
C1463  N1478   1.367   .     A
C1463  H1473   1.082   .     S
C1464  N1477   1.367   .     A
C1464  H1474   1.082   .     S
C1464  C422    1.417   1_556 S
C1465  N1477   1.367   .     A
C1465  H1475   1.082   .     S
C1465  C419    1.418   1_556 S
C1466  N1478   1.367   .     A
C1466  H1476   1.080   .     S
Cu1467 O1486   1.959   .     S
Cu1467 O1479   1.966   .     S
Cu1467 Cu1468  2.682   .     S
Cu1467 O1483   1.957   .     S
Cu1467 N1477   2.015   .     S
Cu1467 O1482   1.962   .     S
Cu1468 N1478   2.015   .     S
Cu1468 O1484   1.957   .     S
Cu1468 O1480   1.966   .     S
Cu1468 O1485   1.959   .     S
Cu1468 O1481   1.962   .     S
H1469  C1513   1.087   .     S
O1487  C1488   1.421   .     S
C1488  H1490   1.112   .     S
C1488  H1489   1.110   .     S
C1488  C1491   1.539   .     S
C1491  H1493   1.111   .     S
C1491  H1144   1.109   1_565 S
C1491  C1552   1.525   .     S
C1494  H1497   1.111   .     S
C1494  H1495   1.111   .     S
C1494  H1496   1.109   .     S
O1498  C1499   1.420   .     S
C1499  C1502   1.535   .     S
C1499  H1500   1.110   .     S
C1499  H1501   1.117   .     S
C1502  C461    1.524   1_556 S
H1503  C1154   1.112   1_565 S
H1504  C1154   1.109   1_565 S
C1505  H1508   1.110   .     S
H1506  C461    1.111   1_556 S
H1507  C1157   1.109   1_565 S
C1509  O1537   1.289   .     A
C1509  C1520   1.455   .     S
C1509  O1539   1.298   .     A
C1510  O1538   1.292   .     A
C1510  C1519   1.447   .     S
C1510  O1540   1.291   .     A
C1511  O1543   1.289   .     A
C1511  O1541   1.287   .     A
C1511  C1513   1.434   .     S
C1512  O1542   1.287   .     A
C1512  O1544   1.289   .     A
C1512  C1514   1.434   .     S
C1514  C1397   1.335   1_655 S
C1514  H1412   1.087   1_655 S
C1515  C1520   1.401   .     A
C1515  H1529   1.083   .     S
C1516  H1530   1.084   .     S
C1516  C1519   1.396   .     A
C1516  C1170   1.383   1_565 S
C1517  C1519   1.410   .     A
C1517  O1545   1.385   .     S
C1517  C1167   1.389   1_565 S
C1518  C1520   1.413   .     A
C1518  O1556   1.384   .     S
C1521  N1536   1.367   .     A
C1521  H1531   1.082   .     S
C1522  N1535   1.367   .     A
C1522  H1532   1.082   .     S
C1522  C480    1.417   1_556 S
C1523  N1535   1.367   .     A
C1523  H1533   1.082   .     S
C1523  C477    1.418   1_556 S
C1524  N1536   1.367   .     A
C1524  H1534   1.080   .     S
Cu1525 O1544   1.959   .     S
Cu1525 O1537   1.966   .     S
Cu1525 Cu1526  2.682   .     S
Cu1525 O1541   1.957   .     S
Cu1525 N1535   2.015   .     S
Cu1525 O1540   1.962   .     S
Cu1526 N1536   2.015   .     S
Cu1526 O1542   1.957   .     S
Cu1526 O1538   1.966   .     S
Cu1526 O1543   1.959   .     S
Cu1526 O1539   1.962   .     S
H1527  C1397   1.087   1_655 S
O1545  C1546   1.421   .     S
C1546  H1548   1.112   .     S
C1546  H1547   1.110   .     S
C1546  C1549   1.539   .     S
C1549  H1551   1.111   .     S
C1549  H1202   1.109   1_565 S
C1549  C1436   1.525   1_655 S
C1552  H1555   1.111   .     S
C1552  H1553   1.111   .     S
C1552  H1554   1.109   .     S
O1556  C1557   1.420   .     S
C1557  C1560   1.535   .     S
C1557  H1558   1.110   .     S
C1557  H1559   1.117   .     S
C1560  C519    1.524   1_556 S
H1561  C1212   1.112   1_565 S
H1562  C1212   1.109   1_565 S
C1563  H1566   1.110   .     S
H1564  C519    1.111   1_556 S
H1565  C1215   1.109   1_565 S
