data_str_m2_o10_o18_pcu_sym.167
_audit_creation_date              2020-01-03
_audit_creation_method            'Materials Studio'
_symmetry_space_group_name_H-M    'P1'
_symmetry_Int_Tables_number       1
_symmetry_cell_setting            triclinic
loop_
_symmetry_equiv_pos_as_xyz
  x,y,z
_cell_length_a                    22.4848
_cell_length_b                    26.0653
_cell_length_c                    31.4503
_cell_angle_alpha                 95.1810
_cell_angle_beta                  75.3754
_cell_angle_gamma                 103.5509
loop_
_atom_site_label
_atom_site_type_symbol
_atom_site_fract_x
_atom_site_fract_y
_atom_site_fract_z
_atom_site_U_iso_or_equiv
_atom_site_adp_type
_atom_site_occupancy
C1     C     0.18175   0.26672   0.25138   0.00000  Uiso   1.00
C2     C     0.15157   0.06662   0.24863   0.00000  Uiso   1.00
C3     C     0.10450   0.10398   0.03252   0.00000  Uiso   1.00
C4     C     0.24616   0.18181   0.45662   0.00000  Uiso   1.00
C5     C     0.06291   0.08949   0.00515   0.00000  Uiso   1.00
C6     C     0.28927   0.19044   0.48302   0.00000  Uiso   1.00
C7     C     0.19004   0.32284   0.25213   0.00000  Uiso   1.00
C8     C     0.14329   0.01050   0.24789   0.00000  Uiso   1.00
C9     C     0.12820   0.16189   0.33301   0.00000  Uiso   1.00
C10    C     0.20506   0.17021   0.16682   0.00000  Uiso   1.00
C11    C     0.10478   0.14976   0.37965   0.00000  Uiso   1.00
C12    C     0.22852   0.17199   0.11880   0.00000  Uiso   1.00
C13    C     0.03504   0.09311   0.43658   0.00000  Uiso   1.00
C14    C     0.31329   0.19259   0.05385   0.00000  Uiso   1.00
C15    C     0.05032   0.11087   0.39394   0.00000  Uiso   1.00
C16    C     0.29300   0.18724   0.09922   0.00000  Uiso   1.00
C17    C     0.14362   0.17035   0.40822   0.00000  Uiso   1.00
C18    C     0.18532   0.15897   0.09224   0.00000  Uiso   1.00
C19    C     0.13479   0.14704   0.44868   0.00000  Uiso   1.00
C20    C     0.20538   0.15888   0.04619   0.00000  Uiso   1.00
C21    C     0.07712   0.11042   0.46383   0.00000  Uiso   1.00
C22    C     0.26956   0.18031   0.02751   0.00000  Uiso   1.00
C23    C     0.18112   0.15824   0.47421   0.00000  Uiso   1.00
C24    C     0.16278   0.14106   0.01850   0.00000  Uiso   1.00
Cu25   Cu    0.10737   0.16108   0.24517   0.00000  Uiso   1.00
Cu26   Cu    0.22596   0.17225   0.25484   0.00000  Uiso   1.00
H27    H     0.01948   0.06042   0.01614   0.00000  Uiso   1.00
H28    H     0.00529   0.20676   0.46859   0.00000  Uiso   1.00
H29    H     0.13573   0.15161   0.10797   0.00000  Uiso   1.00
H30    H     0.18021   0.20467   0.39775   0.00000  Uiso   1.00
H31    H     0.32738   0.19726   0.11903   0.00000  Uiso   1.00
H32    H     0.02017   0.09376   0.37200   0.00000  Uiso   1.00
H33    H     0.32508   0.06396   0.44755   0.00000  Uiso   1.00
H34    H     0.02966   0.20717   0.03942   0.00000  Uiso   1.00
H35    H     0.23489   0.01363   0.25620   0.00000  Uiso   1.00
H36    H     0.09846   0.31972   0.24380   0.00000  Uiso   1.00
N37    N     0.31506   0.18068   0.26212   0.00000  Uiso   1.00
N38    N     0.01827   0.15265   0.23788   0.00000  Uiso   1.00
O39    O     0.12815   0.23809   0.24686   0.00000  Uiso   1.00
O40    O     0.20518   0.09524   0.25314   0.00000  Uiso   1.00
O41    O     0.22829   0.24753   0.25503   0.00000  Uiso   1.00
O42    O     0.10504   0.08580   0.24498   0.00000  Uiso   1.00
O43    O     0.08851   0.15930   0.30855   0.00000  Uiso   1.00
O44    O     0.24482   0.17403   0.19146   0.00000  Uiso   1.00
O45    O     0.18866   0.16874   0.31671   0.00000  Uiso   1.00
O46    O     0.14468   0.16460   0.18329   0.00000  Uiso   1.00
N47    N     0.09036   0.07530   0.07198   0.00000  Uiso   1.00
H48    H     0.08628   0.03513   0.06342   0.00000  Uiso   1.00
H49    H     0.04667   0.08040   0.09118   0.00000  Uiso   1.00
N50    N     0.27100   0.19320   0.41110   0.00000  Uiso   1.00
H51    H     0.30414   0.17060   0.39754   0.00000  Uiso   1.00
H52    H     0.29401   0.23303   0.40869   0.00000  Uiso   1.00
N53    N     0.00560   0.21348   0.29384   0.00000  Uiso   1.00
H54    H     0.00240   0.25163   0.28858   0.00000  Uiso   1.00
H55    H     0.30820   0.20253   0.32404   0.00000  Uiso   1.00
N56    N     0.32835   0.12093   0.20536   0.00000  Uiso   1.00
H57    H     0.02527   0.13341   0.17527   0.00000  Uiso   1.00
H58    H     0.33251   0.08268   0.20935   0.00000  Uiso   1.00
C59    C     0.51509   0.26672   0.25138   0.00000  Uiso   1.00
C60    C     0.48491   0.06662   0.24863   0.00000  Uiso   1.00
C61    C     0.43784   0.10398   0.03252   0.00000  Uiso   1.00
C62    C     0.57949   0.18181   0.45662   0.00000  Uiso   1.00
C63    C     0.39624   0.08949   0.00515   0.00000  Uiso   1.00
C64    C     0.62260   0.19044   0.48302   0.00000  Uiso   1.00
C65    C     0.52337   0.32284   0.25213   0.00000  Uiso   1.00
C66    C     0.47663   0.01050   0.24789   0.00000  Uiso   1.00
C67    C     0.46153   0.16189   0.33301   0.00000  Uiso   1.00
C68    C     0.53839   0.17021   0.16682   0.00000  Uiso   1.00
C69    C     0.43811   0.14976   0.37965   0.00000  Uiso   1.00
C70    C     0.56185   0.17199   0.11880   0.00000  Uiso   1.00
C71    C     0.36837   0.09311   0.43658   0.00000  Uiso   1.00
C72    C     0.64662   0.19259   0.05385   0.00000  Uiso   1.00
C73    C     0.38366   0.11087   0.39394   0.00000  Uiso   1.00
C74    C     0.62634   0.18724   0.09922   0.00000  Uiso   1.00
C75    C     0.47695   0.17035   0.40822   0.00000  Uiso   1.00
C76    C     0.51865   0.15897   0.09224   0.00000  Uiso   1.00
C77    C     0.46812   0.14704   0.44868   0.00000  Uiso   1.00
C78    C     0.53871   0.15888   0.04619   0.00000  Uiso   1.00
C79    C     0.41046   0.11042   0.46383   0.00000  Uiso   1.00
C80    C     0.60290   0.18031   0.02751   0.00000  Uiso   1.00
C81    C     0.51446   0.15824   0.47421   0.00000  Uiso   1.00
C82    C     0.49611   0.14106   0.01850   0.00000  Uiso   1.00
Cu83   Cu    0.44071   0.16108   0.24517   0.00000  Uiso   1.00
Cu84   Cu    0.55929   0.17225   0.25484   0.00000  Uiso   1.00
H85    H     0.35281   0.06042   0.01614   0.00000  Uiso   1.00
H86    H     0.33862   0.20676   0.46859   0.00000  Uiso   1.00
H87    H     0.46906   0.15161   0.10797   0.00000  Uiso   1.00
H88    H     0.51354   0.20467   0.39775   0.00000  Uiso   1.00
H89    H     0.66071   0.19726   0.11903   0.00000  Uiso   1.00
H90    H     0.35350   0.09376   0.37200   0.00000  Uiso   1.00
H91    H     0.65841   0.06396   0.44755   0.00000  Uiso   1.00
H92    H     0.36300   0.20717   0.03942   0.00000  Uiso   1.00
H93    H     0.56822   0.01363   0.25620   0.00000  Uiso   1.00
H94    H     0.43179   0.31972   0.24380   0.00000  Uiso   1.00
N95    N     0.64839   0.18068   0.26212   0.00000  Uiso   1.00
N96    N     0.35161   0.15265   0.23788   0.00000  Uiso   1.00
O97    O     0.46148   0.23809   0.24686   0.00000  Uiso   1.00
O98    O     0.53852   0.09524   0.25314   0.00000  Uiso   1.00
O99    O     0.56163   0.24753   0.25503   0.00000  Uiso   1.00
O100   O     0.43837   0.08580   0.24498   0.00000  Uiso   1.00
O101   O     0.42185   0.15930   0.30855   0.00000  Uiso   1.00
O102   O     0.57815   0.17403   0.19146   0.00000  Uiso   1.00
O103   O     0.52199   0.16874   0.31671   0.00000  Uiso   1.00
O104   O     0.47801   0.16460   0.18329   0.00000  Uiso   1.00
N105   N     0.42370   0.07530   0.07198   0.00000  Uiso   1.00
H106   H     0.41962   0.03513   0.06342   0.00000  Uiso   1.00
H107   H     0.38000   0.08040   0.09118   0.00000  Uiso   1.00
N108   N     0.60433   0.19320   0.41110   0.00000  Uiso   1.00
H109   H     0.63747   0.17060   0.39754   0.00000  Uiso   1.00
H110   H     0.62734   0.23303   0.40869   0.00000  Uiso   1.00
N111   N     0.33893   0.21348   0.29384   0.00000  Uiso   1.00
H112   H     0.33573   0.25163   0.28858   0.00000  Uiso   1.00
H113   H     0.64154   0.20253   0.32404   0.00000  Uiso   1.00
N114   N     0.66168   0.12093   0.20536   0.00000  Uiso   1.00
H115   H     0.35860   0.13341   0.17527   0.00000  Uiso   1.00
H116   H     0.66584   0.08268   0.20935   0.00000  Uiso   1.00
C117   C     0.84842   0.26672   0.25138   0.00000  Uiso   1.00
C118   C     0.81824   0.06662   0.24863   0.00000  Uiso   1.00
C119   C     0.77117   0.10398   0.03252   0.00000  Uiso   1.00
C120   C     0.91283   0.18181   0.45662   0.00000  Uiso   1.00
C121   C     0.72957   0.08949   0.00515   0.00000  Uiso   1.00
C122   C     0.95593   0.19044   0.48302   0.00000  Uiso   1.00
C123   C     0.85670   0.32284   0.25213   0.00000  Uiso   1.00
C124   C     0.80996   0.01050   0.24789   0.00000  Uiso   1.00
C125   C     0.79486   0.16189   0.33301   0.00000  Uiso   1.00
C126   C     0.87173   0.17021   0.16682   0.00000  Uiso   1.00
C127   C     0.77144   0.14976   0.37965   0.00000  Uiso   1.00
C128   C     0.89518   0.17199   0.11880   0.00000  Uiso   1.00
C129   C     0.70170   0.09311   0.43658   0.00000  Uiso   1.00
C130   C     0.97996   0.19259   0.05385   0.00000  Uiso   1.00
C131   C     0.71699   0.11087   0.39394   0.00000  Uiso   1.00
C132   C     0.95967   0.18724   0.09922   0.00000  Uiso   1.00
C133   C     0.81029   0.17035   0.40822   0.00000  Uiso   1.00
C134   C     0.85199   0.15897   0.09224   0.00000  Uiso   1.00
C135   C     0.80146   0.14704   0.44868   0.00000  Uiso   1.00
C136   C     0.87204   0.15888   0.04619   0.00000  Uiso   1.00
C137   C     0.74379   0.11042   0.46383   0.00000  Uiso   1.00
C138   C     0.93623   0.18031   0.02751   0.00000  Uiso   1.00
C139   C     0.84779   0.15824   0.47421   0.00000  Uiso   1.00
C140   C     0.82944   0.14106   0.01850   0.00000  Uiso   1.00
Cu141  Cu    0.77404   0.16108   0.24517   0.00000  Uiso   1.00
Cu142  Cu    0.89263   0.17225   0.25484   0.00000  Uiso   1.00
H143   H     0.68614   0.06042   0.01614   0.00000  Uiso   1.00
H144   H     0.67195   0.20676   0.46859   0.00000  Uiso   1.00
H145   H     0.80240   0.15161   0.10797   0.00000  Uiso   1.00
H146   H     0.84688   0.20467   0.39775   0.00000  Uiso   1.00
H147   H     0.99405   0.19726   0.11903   0.00000  Uiso   1.00
H148   H     0.68684   0.09376   0.37200   0.00000  Uiso   1.00
H149   H     0.99175   0.06396   0.44755   0.00000  Uiso   1.00
H150   H     0.69633   0.20717   0.03942   0.00000  Uiso   1.00
H151   H     0.90156   0.01363   0.25620   0.00000  Uiso   1.00
H152   H     0.76512   0.31972   0.24380   0.00000  Uiso   1.00
N153   N     0.98173   0.18068   0.26212   0.00000  Uiso   1.00
N154   N     0.68494   0.15265   0.23788   0.00000  Uiso   1.00
O155   O     0.79482   0.23809   0.24686   0.00000  Uiso   1.00
O156   O     0.87185   0.09524   0.25314   0.00000  Uiso   1.00
O157   O     0.89496   0.24753   0.25503   0.00000  Uiso   1.00
O158   O     0.77171   0.08580   0.24498   0.00000  Uiso   1.00
O159   O     0.75518   0.15930   0.30855   0.00000  Uiso   1.00
O160   O     0.91149   0.17403   0.19146   0.00000  Uiso   1.00
O161   O     0.85532   0.16874   0.31671   0.00000  Uiso   1.00
O162   O     0.81134   0.16460   0.18329   0.00000  Uiso   1.00
N163   N     0.75703   0.07530   0.07198   0.00000  Uiso   1.00
H164   H     0.75295   0.03513   0.06342   0.00000  Uiso   1.00
H165   H     0.71334   0.08040   0.09118   0.00000  Uiso   1.00
N166   N     0.93766   0.19320   0.41110   0.00000  Uiso   1.00
H167   H     0.97080   0.17060   0.39754   0.00000  Uiso   1.00
H168   H     0.96067   0.23303   0.40869   0.00000  Uiso   1.00
N169   N     0.67226   0.21348   0.29384   0.00000  Uiso   1.00
H170   H     0.66906   0.25163   0.28858   0.00000  Uiso   1.00
H171   H     0.97487   0.20253   0.32404   0.00000  Uiso   1.00
N172   N     0.99502   0.12093   0.20536   0.00000  Uiso   1.00
H173   H     0.69194   0.13341   0.17527   0.00000  Uiso   1.00
H174   H     0.99917   0.08268   0.20935   0.00000  Uiso   1.00
C175   C     0.18175   0.60005   0.25138   0.00000  Uiso   1.00
C176   C     0.15157   0.39995   0.24863   0.00000  Uiso   1.00
C177   C     0.10450   0.43731   0.03252   0.00000  Uiso   1.00
C178   C     0.24616   0.51514   0.45662   0.00000  Uiso   1.00
C179   C     0.06291   0.42282   0.00515   0.00000  Uiso   1.00
C180   C     0.28927   0.52377   0.48302   0.00000  Uiso   1.00
C181   C     0.19004   0.65617   0.25213   0.00000  Uiso   1.00
C182   C     0.14329   0.34383   0.24789   0.00000  Uiso   1.00
C183   C     0.12820   0.49522   0.33301   0.00000  Uiso   1.00
C184   C     0.20506   0.50355   0.16682   0.00000  Uiso   1.00
C185   C     0.10478   0.48309   0.37965   0.00000  Uiso   1.00
C186   C     0.22852   0.50532   0.11880   0.00000  Uiso   1.00
C187   C     0.03504   0.42645   0.43658   0.00000  Uiso   1.00
C188   C     0.31329   0.52592   0.05385   0.00000  Uiso   1.00
C189   C     0.05032   0.44421   0.39394   0.00000  Uiso   1.00
C190   C     0.29300   0.52057   0.09922   0.00000  Uiso   1.00
C191   C     0.14362   0.50368   0.40822   0.00000  Uiso   1.00
C192   C     0.18532   0.49230   0.09224   0.00000  Uiso   1.00
C193   C     0.13479   0.48038   0.44868   0.00000  Uiso   1.00
C194   C     0.20538   0.49221   0.04619   0.00000  Uiso   1.00
C195   C     0.07712   0.44375   0.46383   0.00000  Uiso   1.00
C196   C     0.26956   0.51365   0.02751   0.00000  Uiso   1.00
C197   C     0.18112   0.49157   0.47421   0.00000  Uiso   1.00
C198   C     0.16278   0.47440   0.01850   0.00000  Uiso   1.00
Cu199  Cu    0.10737   0.49441   0.24517   0.00000  Uiso   1.00
Cu200  Cu    0.22596   0.50559   0.25484   0.00000  Uiso   1.00
H201   H     0.01948   0.39376   0.01614   0.00000  Uiso   1.00
H202   H     0.00529   0.54009   0.46859   0.00000  Uiso   1.00
H203   H     0.13573   0.48494   0.10797   0.00000  Uiso   1.00
H204   H     0.18021   0.53801   0.39775   0.00000  Uiso   1.00
H205   H     0.32738   0.53060   0.11903   0.00000  Uiso   1.00
H206   H     0.02017   0.42710   0.37200   0.00000  Uiso   1.00
H207   H     0.32508   0.39730   0.44755   0.00000  Uiso   1.00
H208   H     0.02966   0.54051   0.03942   0.00000  Uiso   1.00
H209   H     0.23489   0.34696   0.25620   0.00000  Uiso   1.00
H210   H     0.09846   0.65305   0.24380   0.00000  Uiso   1.00
N211   N     0.31506   0.51401   0.26212   0.00000  Uiso   1.00
N212   N     0.01827   0.48599   0.23788   0.00000  Uiso   1.00
O213   O     0.12815   0.57142   0.24686   0.00000  Uiso   1.00
O214   O     0.20518   0.42858   0.25314   0.00000  Uiso   1.00
O215   O     0.22829   0.58086   0.25503   0.00000  Uiso   1.00
O216   O     0.10504   0.41914   0.24498   0.00000  Uiso   1.00
O217   O     0.08851   0.49263   0.30855   0.00000  Uiso   1.00
O218   O     0.24482   0.50737   0.19146   0.00000  Uiso   1.00
O219   O     0.18866   0.50207   0.31671   0.00000  Uiso   1.00
O220   O     0.14468   0.49793   0.18329   0.00000  Uiso   1.00
N221   N     0.09036   0.40864   0.07198   0.00000  Uiso   1.00
H222   H     0.08628   0.36846   0.06342   0.00000  Uiso   1.00
H223   H     0.04667   0.41374   0.09118   0.00000  Uiso   1.00
N224   N     0.27100   0.52653   0.41110   0.00000  Uiso   1.00
H225   H     0.30414   0.50393   0.39754   0.00000  Uiso   1.00
H226   H     0.29401   0.56637   0.40869   0.00000  Uiso   1.00
N227   N     0.00560   0.54681   0.29384   0.00000  Uiso   1.00
H228   H     0.00240   0.58496   0.28858   0.00000  Uiso   1.00
H229   H     0.30820   0.53586   0.32404   0.00000  Uiso   1.00
N230   N     0.32835   0.45426   0.20536   0.00000  Uiso   1.00
H231   H     0.02527   0.46674   0.17527   0.00000  Uiso   1.00
H232   H     0.33251   0.41601   0.20935   0.00000  Uiso   1.00
C233   C     0.51509   0.60005   0.25138   0.00000  Uiso   1.00
C234   C     0.48491   0.39995   0.24863   0.00000  Uiso   1.00
C235   C     0.43784   0.43731   0.03252   0.00000  Uiso   1.00
C236   C     0.57949   0.51514   0.45662   0.00000  Uiso   1.00
C237   C     0.39624   0.42282   0.00515   0.00000  Uiso   1.00
C238   C     0.62260   0.52377   0.48302   0.00000  Uiso   1.00
C239   C     0.52337   0.65617   0.25213   0.00000  Uiso   1.00
C240   C     0.47663   0.34383   0.24789   0.00000  Uiso   1.00
C241   C     0.46153   0.49522   0.33301   0.00000  Uiso   1.00
C242   C     0.53839   0.50355   0.16682   0.00000  Uiso   1.00
C243   C     0.43811   0.48309   0.37965   0.00000  Uiso   1.00
C244   C     0.56185   0.50532   0.11880   0.00000  Uiso   1.00
C245   C     0.36837   0.42645   0.43658   0.00000  Uiso   1.00
C246   C     0.64662   0.52592   0.05385   0.00000  Uiso   1.00
C247   C     0.38366   0.44421   0.39394   0.00000  Uiso   1.00
C248   C     0.62634   0.52057   0.09922   0.00000  Uiso   1.00
C249   C     0.47695   0.50368   0.40822   0.00000  Uiso   1.00
C250   C     0.51865   0.49230   0.09224   0.00000  Uiso   1.00
C251   C     0.46812   0.48038   0.44868   0.00000  Uiso   1.00
C252   C     0.53871   0.49221   0.04619   0.00000  Uiso   1.00
C253   C     0.41046   0.44375   0.46383   0.00000  Uiso   1.00
C254   C     0.60290   0.51365   0.02751   0.00000  Uiso   1.00
C255   C     0.51446   0.49157   0.47421   0.00000  Uiso   1.00
C256   C     0.49611   0.47440   0.01850   0.00000  Uiso   1.00
Cu257  Cu    0.44071   0.49441   0.24517   0.00000  Uiso   1.00
Cu258  Cu    0.55929   0.50559   0.25484   0.00000  Uiso   1.00
H259   H     0.35281   0.39376   0.01614   0.00000  Uiso   1.00
H260   H     0.33862   0.54009   0.46859   0.00000  Uiso   1.00
H261   H     0.46906   0.48494   0.10797   0.00000  Uiso   1.00
H262   H     0.51354   0.53801   0.39775   0.00000  Uiso   1.00
H263   H     0.66071   0.53060   0.11903   0.00000  Uiso   1.00
H264   H     0.35350   0.42710   0.37200   0.00000  Uiso   1.00
H265   H     0.65841   0.39730   0.44755   0.00000  Uiso   1.00
H266   H     0.36300   0.54051   0.03942   0.00000  Uiso   1.00
H267   H     0.56822   0.34696   0.25620   0.00000  Uiso   1.00
H268   H     0.43179   0.65305   0.24380   0.00000  Uiso   1.00
N269   N     0.64839   0.51401   0.26212   0.00000  Uiso   1.00
N270   N     0.35161   0.48599   0.23788   0.00000  Uiso   1.00
O271   O     0.46148   0.57142   0.24686   0.00000  Uiso   1.00
O272   O     0.53852   0.42858   0.25314   0.00000  Uiso   1.00
O273   O     0.56163   0.58086   0.25503   0.00000  Uiso   1.00
O274   O     0.43837   0.41914   0.24498   0.00000  Uiso   1.00
O275   O     0.42185   0.49263   0.30855   0.00000  Uiso   1.00
O276   O     0.57815   0.50737   0.19146   0.00000  Uiso   1.00
O277   O     0.52199   0.50207   0.31671   0.00000  Uiso   1.00
O278   O     0.47801   0.49793   0.18329   0.00000  Uiso   1.00
N279   N     0.42370   0.40864   0.07198   0.00000  Uiso   1.00
H280   H     0.41962   0.36846   0.06342   0.00000  Uiso   1.00
H281   H     0.38000   0.41374   0.09118   0.00000  Uiso   1.00
N282   N     0.60433   0.52653   0.41110   0.00000  Uiso   1.00
H283   H     0.63747   0.50393   0.39754   0.00000  Uiso   1.00
H284   H     0.62734   0.56637   0.40869   0.00000  Uiso   1.00
N285   N     0.33893   0.54681   0.29384   0.00000  Uiso   1.00
H286   H     0.33573   0.58496   0.28858   0.00000  Uiso   1.00
H287   H     0.64154   0.53586   0.32404   0.00000  Uiso   1.00
N288   N     0.66168   0.45426   0.20536   0.00000  Uiso   1.00
H289   H     0.35860   0.46674   0.17527   0.00000  Uiso   1.00
H290   H     0.66584   0.41601   0.20935   0.00000  Uiso   1.00
C291   C     0.84842   0.60005   0.25138   0.00000  Uiso   1.00
C292   C     0.81824   0.39995   0.24863   0.00000  Uiso   1.00
C293   C     0.77117   0.43731   0.03252   0.00000  Uiso   1.00
C294   C     0.91283   0.51514   0.45662   0.00000  Uiso   1.00
C295   C     0.72957   0.42282   0.00515   0.00000  Uiso   1.00
C296   C     0.95593   0.52377   0.48302   0.00000  Uiso   1.00
C297   C     0.85670   0.65617   0.25213   0.00000  Uiso   1.00
C298   C     0.80996   0.34383   0.24789   0.00000  Uiso   1.00
C299   C     0.79486   0.49522   0.33301   0.00000  Uiso   1.00
C300   C     0.87173   0.50355   0.16682   0.00000  Uiso   1.00
C301   C     0.77144   0.48309   0.37965   0.00000  Uiso   1.00
C302   C     0.89518   0.50532   0.11880   0.00000  Uiso   1.00
C303   C     0.70170   0.42645   0.43658   0.00000  Uiso   1.00
C304   C     0.97996   0.52592   0.05385   0.00000  Uiso   1.00
C305   C     0.71699   0.44421   0.39394   0.00000  Uiso   1.00
C306   C     0.95967   0.52057   0.09922   0.00000  Uiso   1.00
C307   C     0.81029   0.50368   0.40822   0.00000  Uiso   1.00
C308   C     0.85199   0.49230   0.09224   0.00000  Uiso   1.00
C309   C     0.80146   0.48038   0.44868   0.00000  Uiso   1.00
C310   C     0.87204   0.49221   0.04619   0.00000  Uiso   1.00
C311   C     0.74379   0.44375   0.46383   0.00000  Uiso   1.00
C312   C     0.93623   0.51365   0.02751   0.00000  Uiso   1.00
C313   C     0.84779   0.49157   0.47421   0.00000  Uiso   1.00
C314   C     0.82944   0.47440   0.01850   0.00000  Uiso   1.00
Cu315  Cu    0.77404   0.49441   0.24517   0.00000  Uiso   1.00
Cu316  Cu    0.89263   0.50559   0.25484   0.00000  Uiso   1.00
H317   H     0.68614   0.39376   0.01614   0.00000  Uiso   1.00
H318   H     0.67195   0.54009   0.46859   0.00000  Uiso   1.00
H319   H     0.80240   0.48494   0.10797   0.00000  Uiso   1.00
H320   H     0.84688   0.53801   0.39775   0.00000  Uiso   1.00
H321   H     0.99405   0.53060   0.11903   0.00000  Uiso   1.00
H322   H     0.68684   0.42710   0.37200   0.00000  Uiso   1.00
H323   H     0.99175   0.39730   0.44755   0.00000  Uiso   1.00
H324   H     0.69633   0.54051   0.03942   0.00000  Uiso   1.00
H325   H     0.90156   0.34696   0.25620   0.00000  Uiso   1.00
H326   H     0.76512   0.65305   0.24380   0.00000  Uiso   1.00
N327   N     0.98173   0.51401   0.26212   0.00000  Uiso   1.00
N328   N     0.68494   0.48599   0.23788   0.00000  Uiso   1.00
O329   O     0.79482   0.57142   0.24686   0.00000  Uiso   1.00
O330   O     0.87185   0.42858   0.25314   0.00000  Uiso   1.00
O331   O     0.89496   0.58086   0.25503   0.00000  Uiso   1.00
O332   O     0.77171   0.41914   0.24498   0.00000  Uiso   1.00
O333   O     0.75518   0.49263   0.30855   0.00000  Uiso   1.00
O334   O     0.91149   0.50737   0.19146   0.00000  Uiso   1.00
O335   O     0.85532   0.50207   0.31671   0.00000  Uiso   1.00
O336   O     0.81134   0.49793   0.18329   0.00000  Uiso   1.00
N337   N     0.75703   0.40864   0.07198   0.00000  Uiso   1.00
H338   H     0.75295   0.36846   0.06342   0.00000  Uiso   1.00
H339   H     0.71334   0.41374   0.09118   0.00000  Uiso   1.00
N340   N     0.93766   0.52653   0.41110   0.00000  Uiso   1.00
H341   H     0.97080   0.50393   0.39754   0.00000  Uiso   1.00
H342   H     0.96067   0.56637   0.40869   0.00000  Uiso   1.00
N343   N     0.67226   0.54681   0.29384   0.00000  Uiso   1.00
H344   H     0.66906   0.58496   0.28858   0.00000  Uiso   1.00
H345   H     0.97487   0.53586   0.32404   0.00000  Uiso   1.00
N346   N     0.99502   0.45426   0.20536   0.00000  Uiso   1.00
H347   H     0.69194   0.46674   0.17527   0.00000  Uiso   1.00
H348   H     0.99917   0.41601   0.20935   0.00000  Uiso   1.00
C349   C     0.18175   0.93338   0.25138   0.00000  Uiso   1.00
C350   C     0.15157   0.73328   0.24863   0.00000  Uiso   1.00
C351   C     0.10450   0.77064   0.03252   0.00000  Uiso   1.00
C352   C     0.24616   0.84848   0.45662   0.00000  Uiso   1.00
C353   C     0.06291   0.75615   0.00515   0.00000  Uiso   1.00
C354   C     0.28927   0.85711   0.48302   0.00000  Uiso   1.00
C355   C     0.19004   0.98951   0.25213   0.00000  Uiso   1.00
C356   C     0.14329   0.67717   0.24789   0.00000  Uiso   1.00
C357   C     0.12820   0.82856   0.33301   0.00000  Uiso   1.00
C358   C     0.20506   0.83688   0.16682   0.00000  Uiso   1.00
C359   C     0.10478   0.81642   0.37965   0.00000  Uiso   1.00
C360   C     0.22852   0.83866   0.11880   0.00000  Uiso   1.00
C361   C     0.03504   0.75978   0.43658   0.00000  Uiso   1.00
C362   C     0.31329   0.85926   0.05385   0.00000  Uiso   1.00
C363   C     0.05032   0.77754   0.39394   0.00000  Uiso   1.00
C364   C     0.29300   0.85391   0.09922   0.00000  Uiso   1.00
C365   C     0.14362   0.83701   0.40822   0.00000  Uiso   1.00
C366   C     0.18532   0.82564   0.09224   0.00000  Uiso   1.00
C367   C     0.13479   0.81371   0.44868   0.00000  Uiso   1.00
C368   C     0.20538   0.82554   0.04619   0.00000  Uiso   1.00
C369   C     0.07712   0.77708   0.46383   0.00000  Uiso   1.00
C370   C     0.26956   0.84698   0.02751   0.00000  Uiso   1.00
C371   C     0.18112   0.82491   0.47421   0.00000  Uiso   1.00
C372   C     0.16278   0.80773   0.01850   0.00000  Uiso   1.00
Cu373  Cu    0.10737   0.82775   0.24517   0.00000  Uiso   1.00
Cu374  Cu    0.22596   0.83892   0.25484   0.00000  Uiso   1.00
H375   H     0.01948   0.72709   0.01614   0.00000  Uiso   1.00
H376   H     0.00529   0.87343   0.46859   0.00000  Uiso   1.00
H377   H     0.13573   0.81827   0.10797   0.00000  Uiso   1.00
H378   H     0.18021   0.87134   0.39775   0.00000  Uiso   1.00
H379   H     0.32738   0.86393   0.11903   0.00000  Uiso   1.00
H380   H     0.02017   0.76043   0.37200   0.00000  Uiso   1.00
H381   H     0.32508   0.73063   0.44755   0.00000  Uiso   1.00
H382   H     0.02966   0.87384   0.03942   0.00000  Uiso   1.00
H383   H     0.23489   0.68029   0.25620   0.00000  Uiso   1.00
H384   H     0.09846   0.98639   0.24380   0.00000  Uiso   1.00
N385   N     0.31506   0.84735   0.26212   0.00000  Uiso   1.00
N386   N     0.01827   0.81932   0.23788   0.00000  Uiso   1.00
O387   O     0.12815   0.90476   0.24686   0.00000  Uiso   1.00
O388   O     0.20518   0.76191   0.25314   0.00000  Uiso   1.00
O389   O     0.22829   0.91420   0.25503   0.00000  Uiso   1.00
O390   O     0.10504   0.75247   0.24498   0.00000  Uiso   1.00
O391   O     0.08851   0.82597   0.30855   0.00000  Uiso   1.00
O392   O     0.24482   0.84070   0.19146   0.00000  Uiso   1.00
O393   O     0.18866   0.83540   0.31671   0.00000  Uiso   1.00
O394   O     0.14468   0.83126   0.18329   0.00000  Uiso   1.00
N395   N     0.09036   0.74197   0.07198   0.00000  Uiso   1.00
H396   H     0.08628   0.70180   0.06342   0.00000  Uiso   1.00
H397   H     0.04667   0.74707   0.09118   0.00000  Uiso   1.00
N398   N     0.27100   0.85986   0.41110   0.00000  Uiso   1.00
H399   H     0.30414   0.83727   0.39754   0.00000  Uiso   1.00
H400   H     0.29401   0.89970   0.40869   0.00000  Uiso   1.00
N401   N     0.00560   0.88014   0.29384   0.00000  Uiso   1.00
H402   H     0.00240   0.91829   0.28858   0.00000  Uiso   1.00
H403   H     0.30820   0.86920   0.32404   0.00000  Uiso   1.00
N404   N     0.32835   0.78759   0.20536   0.00000  Uiso   1.00
H405   H     0.02527   0.80007   0.17527   0.00000  Uiso   1.00
H406   H     0.33251   0.74934   0.20935   0.00000  Uiso   1.00
C407   C     0.51509   0.93338   0.25138   0.00000  Uiso   1.00
C408   C     0.48491   0.73328   0.24863   0.00000  Uiso   1.00
C409   C     0.43784   0.77064   0.03252   0.00000  Uiso   1.00
C410   C     0.57949   0.84848   0.45662   0.00000  Uiso   1.00
C411   C     0.39624   0.75615   0.00515   0.00000  Uiso   1.00
C412   C     0.62260   0.85711   0.48302   0.00000  Uiso   1.00
C413   C     0.52337   0.98951   0.25213   0.00000  Uiso   1.00
C414   C     0.47663   0.67717   0.24789   0.00000  Uiso   1.00
C415   C     0.46153   0.82856   0.33301   0.00000  Uiso   1.00
C416   C     0.53839   0.83688   0.16682   0.00000  Uiso   1.00
C417   C     0.43811   0.81642   0.37965   0.00000  Uiso   1.00
C418   C     0.56185   0.83866   0.11880   0.00000  Uiso   1.00
C419   C     0.36837   0.75978   0.43658   0.00000  Uiso   1.00
C420   C     0.64662   0.85926   0.05385   0.00000  Uiso   1.00
C421   C     0.38366   0.77754   0.39394   0.00000  Uiso   1.00
C422   C     0.62634   0.85391   0.09922   0.00000  Uiso   1.00
C423   C     0.47695   0.83701   0.40822   0.00000  Uiso   1.00
C424   C     0.51865   0.82564   0.09224   0.00000  Uiso   1.00
C425   C     0.46812   0.81371   0.44868   0.00000  Uiso   1.00
C426   C     0.53871   0.82554   0.04619   0.00000  Uiso   1.00
C427   C     0.41046   0.77708   0.46383   0.00000  Uiso   1.00
C428   C     0.60290   0.84698   0.02751   0.00000  Uiso   1.00
C429   C     0.51446   0.82491   0.47421   0.00000  Uiso   1.00
C430   C     0.49611   0.80773   0.01850   0.00000  Uiso   1.00
Cu431  Cu    0.44071   0.82775   0.24517   0.00000  Uiso   1.00
Cu432  Cu    0.55929   0.83892   0.25484   0.00000  Uiso   1.00
H433   H     0.35281   0.72709   0.01614   0.00000  Uiso   1.00
H434   H     0.33862   0.87343   0.46859   0.00000  Uiso   1.00
H435   H     0.46906   0.81827   0.10797   0.00000  Uiso   1.00
H436   H     0.51354   0.87134   0.39775   0.00000  Uiso   1.00
H437   H     0.66071   0.86393   0.11903   0.00000  Uiso   1.00
H438   H     0.35350   0.76043   0.37200   0.00000  Uiso   1.00
H439   H     0.65841   0.73063   0.44755   0.00000  Uiso   1.00
H440   H     0.36300   0.87384   0.03942   0.00000  Uiso   1.00
H441   H     0.56822   0.68029   0.25620   0.00000  Uiso   1.00
H442   H     0.43179   0.98639   0.24380   0.00000  Uiso   1.00
N443   N     0.64839   0.84735   0.26212   0.00000  Uiso   1.00
N444   N     0.35161   0.81932   0.23788   0.00000  Uiso   1.00
O445   O     0.46148   0.90476   0.24686   0.00000  Uiso   1.00
O446   O     0.53852   0.76191   0.25314   0.00000  Uiso   1.00
O447   O     0.56163   0.91420   0.25503   0.00000  Uiso   1.00
O448   O     0.43837   0.75247   0.24498   0.00000  Uiso   1.00
O449   O     0.42185   0.82597   0.30855   0.00000  Uiso   1.00
O450   O     0.57815   0.84070   0.19146   0.00000  Uiso   1.00
O451   O     0.52199   0.83540   0.31671   0.00000  Uiso   1.00
O452   O     0.47801   0.83126   0.18329   0.00000  Uiso   1.00
N453   N     0.42370   0.74197   0.07198   0.00000  Uiso   1.00
H454   H     0.41962   0.70180   0.06342   0.00000  Uiso   1.00
H455   H     0.38000   0.74707   0.09118   0.00000  Uiso   1.00
N456   N     0.60433   0.85986   0.41110   0.00000  Uiso   1.00
H457   H     0.63747   0.83727   0.39754   0.00000  Uiso   1.00
H458   H     0.62734   0.89970   0.40869   0.00000  Uiso   1.00
N459   N     0.33893   0.88014   0.29384   0.00000  Uiso   1.00
H460   H     0.33573   0.91829   0.28858   0.00000  Uiso   1.00
H461   H     0.64154   0.86920   0.32404   0.00000  Uiso   1.00
N462   N     0.66168   0.78759   0.20536   0.00000  Uiso   1.00
H463   H     0.35860   0.80007   0.17527   0.00000  Uiso   1.00
H464   H     0.66584   0.74934   0.20935   0.00000  Uiso   1.00
C465   C     0.84842   0.93338   0.25138   0.00000  Uiso   1.00
C466   C     0.81824   0.73328   0.24863   0.00000  Uiso   1.00
C467   C     0.77117   0.77064   0.03252   0.00000  Uiso   1.00
C468   C     0.91283   0.84848   0.45662   0.00000  Uiso   1.00
C469   C     0.72957   0.75615   0.00515   0.00000  Uiso   1.00
C470   C     0.95593   0.85711   0.48302   0.00000  Uiso   1.00
C471   C     0.85670   0.98951   0.25213   0.00000  Uiso   1.00
C472   C     0.80996   0.67717   0.24789   0.00000  Uiso   1.00
C473   C     0.79486   0.82856   0.33301   0.00000  Uiso   1.00
C474   C     0.87173   0.83688   0.16682   0.00000  Uiso   1.00
C475   C     0.77144   0.81642   0.37965   0.00000  Uiso   1.00
C476   C     0.89518   0.83866   0.11880   0.00000  Uiso   1.00
C477   C     0.70170   0.75978   0.43658   0.00000  Uiso   1.00
C478   C     0.97996   0.85926   0.05385   0.00000  Uiso   1.00
C479   C     0.71699   0.77754   0.39394   0.00000  Uiso   1.00
C480   C     0.95967   0.85391   0.09922   0.00000  Uiso   1.00
C481   C     0.81029   0.83701   0.40822   0.00000  Uiso   1.00
C482   C     0.85199   0.82564   0.09224   0.00000  Uiso   1.00
C483   C     0.80146   0.81371   0.44868   0.00000  Uiso   1.00
C484   C     0.87204   0.82554   0.04619   0.00000  Uiso   1.00
C485   C     0.74379   0.77708   0.46383   0.00000  Uiso   1.00
C486   C     0.93623   0.84698   0.02751   0.00000  Uiso   1.00
C487   C     0.84779   0.82491   0.47421   0.00000  Uiso   1.00
C488   C     0.82944   0.80773   0.01850   0.00000  Uiso   1.00
Cu489  Cu    0.77404   0.82775   0.24517   0.00000  Uiso   1.00
Cu490  Cu    0.89263   0.83892   0.25484   0.00000  Uiso   1.00
H491   H     0.68614   0.72709   0.01614   0.00000  Uiso   1.00
H492   H     0.67195   0.87343   0.46859   0.00000  Uiso   1.00
H493   H     0.80240   0.81827   0.10797   0.00000  Uiso   1.00
H494   H     0.84688   0.87134   0.39775   0.00000  Uiso   1.00
H495   H     0.99405   0.86393   0.11903   0.00000  Uiso   1.00
H496   H     0.68684   0.76043   0.37200   0.00000  Uiso   1.00
H497   H     0.99175   0.73063   0.44755   0.00000  Uiso   1.00
H498   H     0.69633   0.87384   0.03942   0.00000  Uiso   1.00
H499   H     0.90156   0.68029   0.25620   0.00000  Uiso   1.00
H500   H     0.76512   0.98639   0.24380   0.00000  Uiso   1.00
N501   N     0.98173   0.84735   0.26212   0.00000  Uiso   1.00
N502   N     0.68494   0.81932   0.23788   0.00000  Uiso   1.00
O503   O     0.79482   0.90476   0.24686   0.00000  Uiso   1.00
O504   O     0.87185   0.76191   0.25314   0.00000  Uiso   1.00
O505   O     0.89496   0.91420   0.25503   0.00000  Uiso   1.00
O506   O     0.77171   0.75247   0.24498   0.00000  Uiso   1.00
O507   O     0.75518   0.82597   0.30855   0.00000  Uiso   1.00
O508   O     0.91149   0.84070   0.19146   0.00000  Uiso   1.00
O509   O     0.85532   0.83540   0.31671   0.00000  Uiso   1.00
O510   O     0.81134   0.83126   0.18329   0.00000  Uiso   1.00
N511   N     0.75703   0.74197   0.07198   0.00000  Uiso   1.00
H512   H     0.75295   0.70180   0.06342   0.00000  Uiso   1.00
H513   H     0.71334   0.74707   0.09118   0.00000  Uiso   1.00
N514   N     0.93766   0.85986   0.41110   0.00000  Uiso   1.00
H515   H     0.97080   0.83727   0.39754   0.00000  Uiso   1.00
H516   H     0.96067   0.89970   0.40869   0.00000  Uiso   1.00
N517   N     0.67226   0.88014   0.29384   0.00000  Uiso   1.00
H518   H     0.66906   0.91829   0.28858   0.00000  Uiso   1.00
H519   H     0.97487   0.86920   0.32404   0.00000  Uiso   1.00
N520   N     0.99502   0.78759   0.20536   0.00000  Uiso   1.00
H521   H     0.69194   0.80007   0.17527   0.00000  Uiso   1.00
H522   H     0.99917   0.74934   0.20935   0.00000  Uiso   1.00
C523   C     0.18175   0.26672   0.75138   0.00000  Uiso   1.00
C524   C     0.15157   0.06662   0.74863   0.00000  Uiso   1.00
C525   C     0.10450   0.10398   0.53252   0.00000  Uiso   1.00
C526   C     0.24616   0.18181   0.95662   0.00000  Uiso   1.00
C527   C     0.06291   0.08949   0.50515   0.00000  Uiso   1.00
C528   C     0.28927   0.19044   0.98302   0.00000  Uiso   1.00
C529   C     0.19004   0.32284   0.75213   0.00000  Uiso   1.00
C530   C     0.14329   0.01050   0.74789   0.00000  Uiso   1.00
C531   C     0.12820   0.16189   0.83301   0.00000  Uiso   1.00
C532   C     0.20506   0.17021   0.66682   0.00000  Uiso   1.00
C533   C     0.10478   0.14976   0.87965   0.00000  Uiso   1.00
C534   C     0.22852   0.17199   0.61880   0.00000  Uiso   1.00
C535   C     0.03504   0.09311   0.93658   0.00000  Uiso   1.00
C536   C     0.31329   0.19259   0.55385   0.00000  Uiso   1.00
C537   C     0.05032   0.11087   0.89394   0.00000  Uiso   1.00
C538   C     0.29300   0.18724   0.59922   0.00000  Uiso   1.00
C539   C     0.14362   0.17035   0.90822   0.00000  Uiso   1.00
C540   C     0.18532   0.15897   0.59224   0.00000  Uiso   1.00
C541   C     0.13479   0.14704   0.94868   0.00000  Uiso   1.00
C542   C     0.20538   0.15888   0.54619   0.00000  Uiso   1.00
C543   C     0.07712   0.11042   0.96383   0.00000  Uiso   1.00
C544   C     0.26956   0.18031   0.52751   0.00000  Uiso   1.00
C545   C     0.18112   0.15824   0.97421   0.00000  Uiso   1.00
C546   C     0.16278   0.14106   0.51850   0.00000  Uiso   1.00
Cu547  Cu    0.10737   0.16108   0.74517   0.00000  Uiso   1.00
Cu548  Cu    0.22596   0.17225   0.75484   0.00000  Uiso   1.00
H549   H     0.01948   0.06042   0.51614   0.00000  Uiso   1.00
H550   H     0.00529   0.20676   0.96859   0.00000  Uiso   1.00
H551   H     0.13573   0.15161   0.60797   0.00000  Uiso   1.00
H552   H     0.18021   0.20467   0.89775   0.00000  Uiso   1.00
H553   H     0.32738   0.19726   0.61903   0.00000  Uiso   1.00
H554   H     0.02017   0.09376   0.87200   0.00000  Uiso   1.00
H555   H     0.32508   0.06396   0.94755   0.00000  Uiso   1.00
H556   H     0.02966   0.20717   0.53942   0.00000  Uiso   1.00
H557   H     0.23489   0.01363   0.75620   0.00000  Uiso   1.00
H558   H     0.09846   0.31972   0.74380   0.00000  Uiso   1.00
N559   N     0.31506   0.18068   0.76212   0.00000  Uiso   1.00
N560   N     0.01827   0.15265   0.73788   0.00000  Uiso   1.00
O561   O     0.12815   0.23809   0.74686   0.00000  Uiso   1.00
O562   O     0.20518   0.09524   0.75314   0.00000  Uiso   1.00
O563   O     0.22829   0.24753   0.75503   0.00000  Uiso   1.00
O564   O     0.10504   0.08580   0.74498   0.00000  Uiso   1.00
O565   O     0.08851   0.15930   0.80855   0.00000  Uiso   1.00
O566   O     0.24482   0.17403   0.69146   0.00000  Uiso   1.00
O567   O     0.18866   0.16874   0.81671   0.00000  Uiso   1.00
O568   O     0.14468   0.16460   0.68329   0.00000  Uiso   1.00
N569   N     0.09036   0.07530   0.57198   0.00000  Uiso   1.00
H570   H     0.08628   0.03513   0.56342   0.00000  Uiso   1.00
H571   H     0.04667   0.08040   0.59118   0.00000  Uiso   1.00
N572   N     0.27100   0.19320   0.91110   0.00000  Uiso   1.00
H573   H     0.30414   0.17060   0.89754   0.00000  Uiso   1.00
H574   H     0.29401   0.23303   0.90869   0.00000  Uiso   1.00
N575   N     0.00560   0.21348   0.79384   0.00000  Uiso   1.00
H576   H     0.00240   0.25163   0.78858   0.00000  Uiso   1.00
H577   H     0.30820   0.20253   0.82404   0.00000  Uiso   1.00
N578   N     0.32835   0.12093   0.70536   0.00000  Uiso   1.00
H579   H     0.02527   0.13341   0.67527   0.00000  Uiso   1.00
H580   H     0.33251   0.08268   0.70935   0.00000  Uiso   1.00
C581   C     0.51509   0.26672   0.75138   0.00000  Uiso   1.00
C582   C     0.48491   0.06662   0.74863   0.00000  Uiso   1.00
C583   C     0.43784   0.10398   0.53252   0.00000  Uiso   1.00
C584   C     0.57949   0.18181   0.95662   0.00000  Uiso   1.00
C585   C     0.39624   0.08949   0.50515   0.00000  Uiso   1.00
C586   C     0.62260   0.19044   0.98302   0.00000  Uiso   1.00
C587   C     0.52337   0.32284   0.75213   0.00000  Uiso   1.00
C588   C     0.47663   0.01050   0.74789   0.00000  Uiso   1.00
C589   C     0.46153   0.16189   0.83301   0.00000  Uiso   1.00
C590   C     0.53839   0.17021   0.66682   0.00000  Uiso   1.00
C591   C     0.43811   0.14976   0.87965   0.00000  Uiso   1.00
C592   C     0.56185   0.17199   0.61880   0.00000  Uiso   1.00
C593   C     0.36837   0.09311   0.93658   0.00000  Uiso   1.00
C594   C     0.64662   0.19259   0.55385   0.00000  Uiso   1.00
C595   C     0.38366   0.11087   0.89394   0.00000  Uiso   1.00
C596   C     0.62634   0.18724   0.59922   0.00000  Uiso   1.00
C597   C     0.47695   0.17035   0.90822   0.00000  Uiso   1.00
C598   C     0.51865   0.15897   0.59224   0.00000  Uiso   1.00
C599   C     0.46812   0.14704   0.94868   0.00000  Uiso   1.00
C600   C     0.53871   0.15888   0.54619   0.00000  Uiso   1.00
C601   C     0.41046   0.11042   0.96383   0.00000  Uiso   1.00
C602   C     0.60290   0.18031   0.52751   0.00000  Uiso   1.00
C603   C     0.51446   0.15824   0.97421   0.00000  Uiso   1.00
C604   C     0.49611   0.14106   0.51850   0.00000  Uiso   1.00
Cu605  Cu    0.44071   0.16108   0.74517   0.00000  Uiso   1.00
Cu606  Cu    0.55929   0.17225   0.75484   0.00000  Uiso   1.00
H607   H     0.35281   0.06042   0.51614   0.00000  Uiso   1.00
H608   H     0.33862   0.20676   0.96859   0.00000  Uiso   1.00
H609   H     0.46906   0.15161   0.60797   0.00000  Uiso   1.00
H610   H     0.51354   0.20467   0.89775   0.00000  Uiso   1.00
H611   H     0.66071   0.19726   0.61903   0.00000  Uiso   1.00
H612   H     0.35350   0.09376   0.87200   0.00000  Uiso   1.00
H613   H     0.65841   0.06396   0.94755   0.00000  Uiso   1.00
H614   H     0.36300   0.20717   0.53942   0.00000  Uiso   1.00
H615   H     0.56822   0.01363   0.75620   0.00000  Uiso   1.00
H616   H     0.43179   0.31972   0.74380   0.00000  Uiso   1.00
N617   N     0.64839   0.18068   0.76212   0.00000  Uiso   1.00
N618   N     0.35161   0.15265   0.73788   0.00000  Uiso   1.00
O619   O     0.46148   0.23809   0.74686   0.00000  Uiso   1.00
O620   O     0.53852   0.09524   0.75314   0.00000  Uiso   1.00
O621   O     0.56163   0.24753   0.75503   0.00000  Uiso   1.00
O622   O     0.43837   0.08580   0.74498   0.00000  Uiso   1.00
O623   O     0.42185   0.15930   0.80855   0.00000  Uiso   1.00
O624   O     0.57815   0.17403   0.69146   0.00000  Uiso   1.00
O625   O     0.52199   0.16874   0.81671   0.00000  Uiso   1.00
O626   O     0.47801   0.16460   0.68329   0.00000  Uiso   1.00
N627   N     0.42370   0.07530   0.57198   0.00000  Uiso   1.00
H628   H     0.41962   0.03513   0.56342   0.00000  Uiso   1.00
H629   H     0.38000   0.08040   0.59118   0.00000  Uiso   1.00
N630   N     0.60433   0.19320   0.91110   0.00000  Uiso   1.00
H631   H     0.63747   0.17060   0.89754   0.00000  Uiso   1.00
H632   H     0.62734   0.23303   0.90869   0.00000  Uiso   1.00
N633   N     0.33893   0.21348   0.79384   0.00000  Uiso   1.00
H634   H     0.33573   0.25163   0.78858   0.00000  Uiso   1.00
H635   H     0.64154   0.20253   0.82404   0.00000  Uiso   1.00
N636   N     0.66168   0.12093   0.70536   0.00000  Uiso   1.00
H637   H     0.35860   0.13341   0.67527   0.00000  Uiso   1.00
H638   H     0.66584   0.08268   0.70935   0.00000  Uiso   1.00
C639   C     0.84842   0.26672   0.75138   0.00000  Uiso   1.00
C640   C     0.81824   0.06662   0.74863   0.00000  Uiso   1.00
C641   C     0.77117   0.10398   0.53252   0.00000  Uiso   1.00
C642   C     0.91283   0.18181   0.95662   0.00000  Uiso   1.00
C643   C     0.72957   0.08949   0.50515   0.00000  Uiso   1.00
C644   C     0.95593   0.19044   0.98302   0.00000  Uiso   1.00
C645   C     0.85670   0.32284   0.75213   0.00000  Uiso   1.00
C646   C     0.80996   0.01050   0.74789   0.00000  Uiso   1.00
C647   C     0.79486   0.16189   0.83301   0.00000  Uiso   1.00
C648   C     0.87173   0.17021   0.66682   0.00000  Uiso   1.00
C649   C     0.77144   0.14976   0.87965   0.00000  Uiso   1.00
C650   C     0.89518   0.17199   0.61880   0.00000  Uiso   1.00
C651   C     0.70170   0.09311   0.93658   0.00000  Uiso   1.00
C652   C     0.97996   0.19259   0.55385   0.00000  Uiso   1.00
C653   C     0.71699   0.11087   0.89394   0.00000  Uiso   1.00
C654   C     0.95967   0.18724   0.59922   0.00000  Uiso   1.00
C655   C     0.81029   0.17035   0.90822   0.00000  Uiso   1.00
C656   C     0.85199   0.15897   0.59224   0.00000  Uiso   1.00
C657   C     0.80146   0.14704   0.94868   0.00000  Uiso   1.00
C658   C     0.87204   0.15888   0.54619   0.00000  Uiso   1.00
C659   C     0.74379   0.11042   0.96383   0.00000  Uiso   1.00
C660   C     0.93623   0.18031   0.52751   0.00000  Uiso   1.00
C661   C     0.84779   0.15824   0.97421   0.00000  Uiso   1.00
C662   C     0.82944   0.14106   0.51850   0.00000  Uiso   1.00
Cu663  Cu    0.77404   0.16108   0.74517   0.00000  Uiso   1.00
Cu664  Cu    0.89263   0.17225   0.75484   0.00000  Uiso   1.00
H665   H     0.68614   0.06042   0.51614   0.00000  Uiso   1.00
H666   H     0.67195   0.20676   0.96859   0.00000  Uiso   1.00
H667   H     0.80240   0.15161   0.60797   0.00000  Uiso   1.00
H668   H     0.84688   0.20467   0.89775   0.00000  Uiso   1.00
H669   H     0.99405   0.19726   0.61903   0.00000  Uiso   1.00
H670   H     0.68684   0.09376   0.87200   0.00000  Uiso   1.00
H671   H     0.99175   0.06396   0.94755   0.00000  Uiso   1.00
H672   H     0.69633   0.20717   0.53942   0.00000  Uiso   1.00
H673   H     0.90156   0.01363   0.75620   0.00000  Uiso   1.00
H674   H     0.76512   0.31972   0.74380   0.00000  Uiso   1.00
N675   N     0.98173   0.18068   0.76212   0.00000  Uiso   1.00
N676   N     0.68494   0.15265   0.73788   0.00000  Uiso   1.00
O677   O     0.79482   0.23809   0.74686   0.00000  Uiso   1.00
O678   O     0.87185   0.09524   0.75314   0.00000  Uiso   1.00
O679   O     0.89496   0.24753   0.75503   0.00000  Uiso   1.00
O680   O     0.77171   0.08580   0.74498   0.00000  Uiso   1.00
O681   O     0.75518   0.15930   0.80855   0.00000  Uiso   1.00
O682   O     0.91149   0.17403   0.69146   0.00000  Uiso   1.00
O683   O     0.85532   0.16874   0.81671   0.00000  Uiso   1.00
O684   O     0.81134   0.16460   0.68329   0.00000  Uiso   1.00
N685   N     0.75703   0.07530   0.57198   0.00000  Uiso   1.00
H686   H     0.75295   0.03513   0.56342   0.00000  Uiso   1.00
H687   H     0.71334   0.08040   0.59118   0.00000  Uiso   1.00
N688   N     0.93766   0.19320   0.91110   0.00000  Uiso   1.00
H689   H     0.97080   0.17060   0.89754   0.00000  Uiso   1.00
H690   H     0.96067   0.23303   0.90869   0.00000  Uiso   1.00
N691   N     0.67226   0.21348   0.79384   0.00000  Uiso   1.00
H692   H     0.66906   0.25163   0.78858   0.00000  Uiso   1.00
H693   H     0.97487   0.20253   0.82404   0.00000  Uiso   1.00
N694   N     0.99502   0.12093   0.70536   0.00000  Uiso   1.00
H695   H     0.69194   0.13341   0.67527   0.00000  Uiso   1.00
H696   H     0.99917   0.08268   0.70935   0.00000  Uiso   1.00
C697   C     0.18175   0.60005   0.75138   0.00000  Uiso   1.00
C698   C     0.15157   0.39995   0.74863   0.00000  Uiso   1.00
C699   C     0.10450   0.43731   0.53252   0.00000  Uiso   1.00
C700   C     0.24616   0.51514   0.95662   0.00000  Uiso   1.00
C701   C     0.06291   0.42282   0.50515   0.00000  Uiso   1.00
C702   C     0.28927   0.52377   0.98302   0.00000  Uiso   1.00
C703   C     0.19004   0.65617   0.75213   0.00000  Uiso   1.00
C704   C     0.14329   0.34383   0.74789   0.00000  Uiso   1.00
C705   C     0.12820   0.49522   0.83301   0.00000  Uiso   1.00
C706   C     0.20506   0.50355   0.66682   0.00000  Uiso   1.00
C707   C     0.10478   0.48309   0.87965   0.00000  Uiso   1.00
C708   C     0.22852   0.50532   0.61880   0.00000  Uiso   1.00
C709   C     0.03504   0.42645   0.93658   0.00000  Uiso   1.00
C710   C     0.31329   0.52592   0.55385   0.00000  Uiso   1.00
C711   C     0.05032   0.44421   0.89394   0.00000  Uiso   1.00
C712   C     0.29300   0.52057   0.59922   0.00000  Uiso   1.00
C713   C     0.14362   0.50368   0.90822   0.00000  Uiso   1.00
C714   C     0.18532   0.49230   0.59224   0.00000  Uiso   1.00
C715   C     0.13479   0.48038   0.94868   0.00000  Uiso   1.00
C716   C     0.20538   0.49221   0.54619   0.00000  Uiso   1.00
C717   C     0.07712   0.44375   0.96383   0.00000  Uiso   1.00
C718   C     0.26956   0.51365   0.52751   0.00000  Uiso   1.00
C719   C     0.18112   0.49157   0.97421   0.00000  Uiso   1.00
C720   C     0.16278   0.47440   0.51850   0.00000  Uiso   1.00
Cu721  Cu    0.10737   0.49441   0.74517   0.00000  Uiso   1.00
Cu722  Cu    0.22596   0.50559   0.75484   0.00000  Uiso   1.00
H723   H     0.01948   0.39376   0.51614   0.00000  Uiso   1.00
H724   H     0.00529   0.54009   0.96859   0.00000  Uiso   1.00
H725   H     0.13573   0.48494   0.60797   0.00000  Uiso   1.00
H726   H     0.18021   0.53801   0.89775   0.00000  Uiso   1.00
H727   H     0.32738   0.53060   0.61903   0.00000  Uiso   1.00
H728   H     0.02017   0.42710   0.87200   0.00000  Uiso   1.00
H729   H     0.32508   0.39730   0.94755   0.00000  Uiso   1.00
H730   H     0.02966   0.54051   0.53942   0.00000  Uiso   1.00
H731   H     0.23489   0.34696   0.75620   0.00000  Uiso   1.00
H732   H     0.09846   0.65305   0.74380   0.00000  Uiso   1.00
N733   N     0.31506   0.51401   0.76212   0.00000  Uiso   1.00
N734   N     0.01827   0.48599   0.73788   0.00000  Uiso   1.00
O735   O     0.12815   0.57142   0.74686   0.00000  Uiso   1.00
O736   O     0.20518   0.42858   0.75314   0.00000  Uiso   1.00
O737   O     0.22829   0.58086   0.75503   0.00000  Uiso   1.00
O738   O     0.10504   0.41914   0.74498   0.00000  Uiso   1.00
O739   O     0.08851   0.49263   0.80855   0.00000  Uiso   1.00
O740   O     0.24482   0.50737   0.69146   0.00000  Uiso   1.00
O741   O     0.18866   0.50207   0.81671   0.00000  Uiso   1.00
O742   O     0.14468   0.49793   0.68329   0.00000  Uiso   1.00
N743   N     0.09036   0.40864   0.57198   0.00000  Uiso   1.00
H744   H     0.08628   0.36846   0.56342   0.00000  Uiso   1.00
H745   H     0.04667   0.41374   0.59118   0.00000  Uiso   1.00
N746   N     0.27100   0.52653   0.91110   0.00000  Uiso   1.00
H747   H     0.30414   0.50393   0.89754   0.00000  Uiso   1.00
H748   H     0.29401   0.56637   0.90869   0.00000  Uiso   1.00
N749   N     0.00560   0.54681   0.79384   0.00000  Uiso   1.00
H750   H     0.00240   0.58496   0.78858   0.00000  Uiso   1.00
H751   H     0.30820   0.53586   0.82404   0.00000  Uiso   1.00
N752   N     0.32835   0.45426   0.70536   0.00000  Uiso   1.00
H753   H     0.02527   0.46674   0.67527   0.00000  Uiso   1.00
H754   H     0.33251   0.41601   0.70935   0.00000  Uiso   1.00
C755   C     0.51509   0.60005   0.75138   0.00000  Uiso   1.00
C756   C     0.48491   0.39995   0.74863   0.00000  Uiso   1.00
C757   C     0.43784   0.43731   0.53252   0.00000  Uiso   1.00
C758   C     0.57949   0.51514   0.95662   0.00000  Uiso   1.00
C759   C     0.39624   0.42282   0.50515   0.00000  Uiso   1.00
C760   C     0.62260   0.52377   0.98302   0.00000  Uiso   1.00
C761   C     0.52337   0.65617   0.75213   0.00000  Uiso   1.00
C762   C     0.47663   0.34383   0.74789   0.00000  Uiso   1.00
C763   C     0.46153   0.49522   0.83301   0.00000  Uiso   1.00
C764   C     0.53839   0.50355   0.66682   0.00000  Uiso   1.00
C765   C     0.43811   0.48309   0.87965   0.00000  Uiso   1.00
C766   C     0.56185   0.50532   0.61880   0.00000  Uiso   1.00
C767   C     0.36837   0.42645   0.93658   0.00000  Uiso   1.00
C768   C     0.64662   0.52592   0.55385   0.00000  Uiso   1.00
C769   C     0.38366   0.44421   0.89394   0.00000  Uiso   1.00
C770   C     0.62634   0.52057   0.59922   0.00000  Uiso   1.00
C771   C     0.47695   0.50368   0.90822   0.00000  Uiso   1.00
C772   C     0.51865   0.49230   0.59224   0.00000  Uiso   1.00
C773   C     0.46812   0.48038   0.94868   0.00000  Uiso   1.00
C774   C     0.53871   0.49221   0.54619   0.00000  Uiso   1.00
C775   C     0.41046   0.44375   0.96383   0.00000  Uiso   1.00
C776   C     0.60290   0.51365   0.52751   0.00000  Uiso   1.00
C777   C     0.51446   0.49157   0.97421   0.00000  Uiso   1.00
C778   C     0.49611   0.47440   0.51850   0.00000  Uiso   1.00
Cu779  Cu    0.44071   0.49441   0.74517   0.00000  Uiso   1.00
Cu780  Cu    0.55929   0.50559   0.75484   0.00000  Uiso   1.00
H781   H     0.35281   0.39376   0.51614   0.00000  Uiso   1.00
H782   H     0.33862   0.54009   0.96859   0.00000  Uiso   1.00
H783   H     0.46906   0.48494   0.60797   0.00000  Uiso   1.00
H784   H     0.51354   0.53801   0.89775   0.00000  Uiso   1.00
H785   H     0.66071   0.53060   0.61903   0.00000  Uiso   1.00
H786   H     0.35350   0.42710   0.87200   0.00000  Uiso   1.00
H787   H     0.65841   0.39730   0.94755   0.00000  Uiso   1.00
H788   H     0.36300   0.54051   0.53942   0.00000  Uiso   1.00
H789   H     0.56822   0.34696   0.75620   0.00000  Uiso   1.00
H790   H     0.43179   0.65305   0.74380   0.00000  Uiso   1.00
N791   N     0.64839   0.51401   0.76212   0.00000  Uiso   1.00
N792   N     0.35161   0.48599   0.73788   0.00000  Uiso   1.00
O793   O     0.46148   0.57142   0.74686   0.00000  Uiso   1.00
O794   O     0.53852   0.42858   0.75314   0.00000  Uiso   1.00
O795   O     0.56163   0.58086   0.75503   0.00000  Uiso   1.00
O796   O     0.43837   0.41914   0.74498   0.00000  Uiso   1.00
O797   O     0.42185   0.49263   0.80855   0.00000  Uiso   1.00
O798   O     0.57815   0.50737   0.69146   0.00000  Uiso   1.00
O799   O     0.52199   0.50207   0.81671   0.00000  Uiso   1.00
O800   O     0.47801   0.49793   0.68329   0.00000  Uiso   1.00
N801   N     0.42370   0.40864   0.57198   0.00000  Uiso   1.00
H802   H     0.41962   0.36846   0.56342   0.00000  Uiso   1.00
H803   H     0.38000   0.41374   0.59118   0.00000  Uiso   1.00
N804   N     0.60433   0.52653   0.91110   0.00000  Uiso   1.00
H805   H     0.63747   0.50393   0.89754   0.00000  Uiso   1.00
H806   H     0.62734   0.56637   0.90869   0.00000  Uiso   1.00
N807   N     0.33893   0.54681   0.79384   0.00000  Uiso   1.00
H808   H     0.33573   0.58496   0.78858   0.00000  Uiso   1.00
H809   H     0.64154   0.53586   0.82404   0.00000  Uiso   1.00
N810   N     0.66168   0.45426   0.70536   0.00000  Uiso   1.00
H811   H     0.35860   0.46674   0.67527   0.00000  Uiso   1.00
H812   H     0.66584   0.41601   0.70935   0.00000  Uiso   1.00
C813   C     0.84842   0.60005   0.75138   0.00000  Uiso   1.00
C814   C     0.81824   0.39995   0.74863   0.00000  Uiso   1.00
C815   C     0.77117   0.43731   0.53252   0.00000  Uiso   1.00
C816   C     0.91283   0.51514   0.95662   0.00000  Uiso   1.00
C817   C     0.72957   0.42282   0.50515   0.00000  Uiso   1.00
C818   C     0.95593   0.52377   0.98302   0.00000  Uiso   1.00
C819   C     0.85670   0.65617   0.75213   0.00000  Uiso   1.00
C820   C     0.80996   0.34383   0.74789   0.00000  Uiso   1.00
C821   C     0.79486   0.49522   0.83301   0.00000  Uiso   1.00
C822   C     0.87173   0.50355   0.66682   0.00000  Uiso   1.00
C823   C     0.77144   0.48309   0.87965   0.00000  Uiso   1.00
C824   C     0.89518   0.50532   0.61880   0.00000  Uiso   1.00
C825   C     0.70170   0.42645   0.93658   0.00000  Uiso   1.00
C826   C     0.97996   0.52592   0.55385   0.00000  Uiso   1.00
C827   C     0.71699   0.44421   0.89394   0.00000  Uiso   1.00
C828   C     0.95967   0.52057   0.59922   0.00000  Uiso   1.00
C829   C     0.81029   0.50368   0.90822   0.00000  Uiso   1.00
C830   C     0.85199   0.49230   0.59224   0.00000  Uiso   1.00
C831   C     0.80146   0.48038   0.94868   0.00000  Uiso   1.00
C832   C     0.87204   0.49221   0.54619   0.00000  Uiso   1.00
C833   C     0.74379   0.44375   0.96383   0.00000  Uiso   1.00
C834   C     0.93623   0.51365   0.52751   0.00000  Uiso   1.00
C835   C     0.84779   0.49157   0.97421   0.00000  Uiso   1.00
C836   C     0.82944   0.47440   0.51850   0.00000  Uiso   1.00
Cu837  Cu    0.77404   0.49441   0.74517   0.00000  Uiso   1.00
Cu838  Cu    0.89263   0.50559   0.75484   0.00000  Uiso   1.00
H839   H     0.68614   0.39376   0.51614   0.00000  Uiso   1.00
H840   H     0.67195   0.54009   0.96859   0.00000  Uiso   1.00
H841   H     0.80240   0.48494   0.60797   0.00000  Uiso   1.00
H842   H     0.84688   0.53801   0.89775   0.00000  Uiso   1.00
H843   H     0.99405   0.53060   0.61903   0.00000  Uiso   1.00
H844   H     0.68684   0.42710   0.87200   0.00000  Uiso   1.00
H845   H     0.99175   0.39730   0.94755   0.00000  Uiso   1.00
H846   H     0.69633   0.54051   0.53942   0.00000  Uiso   1.00
H847   H     0.90156   0.34696   0.75620   0.00000  Uiso   1.00
H848   H     0.76512   0.65305   0.74380   0.00000  Uiso   1.00
N849   N     0.98173   0.51401   0.76212   0.00000  Uiso   1.00
N850   N     0.68494   0.48599   0.73788   0.00000  Uiso   1.00
O851   O     0.79482   0.57142   0.74686   0.00000  Uiso   1.00
O852   O     0.87185   0.42858   0.75314   0.00000  Uiso   1.00
O853   O     0.89496   0.58086   0.75503   0.00000  Uiso   1.00
O854   O     0.77171   0.41914   0.74498   0.00000  Uiso   1.00
O855   O     0.75518   0.49263   0.80855   0.00000  Uiso   1.00
O856   O     0.91149   0.50737   0.69146   0.00000  Uiso   1.00
O857   O     0.85532   0.50207   0.81671   0.00000  Uiso   1.00
O858   O     0.81134   0.49793   0.68329   0.00000  Uiso   1.00
N859   N     0.75703   0.40864   0.57198   0.00000  Uiso   1.00
H860   H     0.75295   0.36846   0.56342   0.00000  Uiso   1.00
H861   H     0.71334   0.41374   0.59118   0.00000  Uiso   1.00
N862   N     0.93766   0.52653   0.91110   0.00000  Uiso   1.00
H863   H     0.97080   0.50393   0.89754   0.00000  Uiso   1.00
H864   H     0.96067   0.56637   0.90869   0.00000  Uiso   1.00
N865   N     0.67226   0.54681   0.79384   0.00000  Uiso   1.00
H866   H     0.66906   0.58496   0.78858   0.00000  Uiso   1.00
H867   H     0.97487   0.53586   0.82404   0.00000  Uiso   1.00
N868   N     0.99502   0.45426   0.70536   0.00000  Uiso   1.00
H869   H     0.69194   0.46674   0.67527   0.00000  Uiso   1.00
H870   H     0.99917   0.41601   0.70935   0.00000  Uiso   1.00
C871   C     0.18175   0.93338   0.75138   0.00000  Uiso   1.00
C872   C     0.15157   0.73328   0.74863   0.00000  Uiso   1.00
C873   C     0.10450   0.77064   0.53252   0.00000  Uiso   1.00
C874   C     0.24616   0.84848   0.95662   0.00000  Uiso   1.00
C875   C     0.06291   0.75615   0.50515   0.00000  Uiso   1.00
C876   C     0.28927   0.85711   0.98302   0.00000  Uiso   1.00
C877   C     0.19004   0.98951   0.75213   0.00000  Uiso   1.00
C878   C     0.14329   0.67717   0.74789   0.00000  Uiso   1.00
C879   C     0.12820   0.82856   0.83301   0.00000  Uiso   1.00
C880   C     0.20506   0.83688   0.66682   0.00000  Uiso   1.00
C881   C     0.10478   0.81642   0.87965   0.00000  Uiso   1.00
C882   C     0.22852   0.83866   0.61880   0.00000  Uiso   1.00
C883   C     0.03504   0.75978   0.93658   0.00000  Uiso   1.00
C884   C     0.31329   0.85926   0.55385   0.00000  Uiso   1.00
C885   C     0.05032   0.77754   0.89394   0.00000  Uiso   1.00
C886   C     0.29300   0.85391   0.59922   0.00000  Uiso   1.00
C887   C     0.14362   0.83701   0.90822   0.00000  Uiso   1.00
C888   C     0.18532   0.82564   0.59224   0.00000  Uiso   1.00
C889   C     0.13479   0.81371   0.94868   0.00000  Uiso   1.00
C890   C     0.20538   0.82554   0.54619   0.00000  Uiso   1.00
C891   C     0.07712   0.77708   0.96383   0.00000  Uiso   1.00
C892   C     0.26956   0.84698   0.52751   0.00000  Uiso   1.00
C893   C     0.18112   0.82491   0.97421   0.00000  Uiso   1.00
C894   C     0.16278   0.80773   0.51850   0.00000  Uiso   1.00
Cu895  Cu    0.10737   0.82775   0.74517   0.00000  Uiso   1.00
Cu896  Cu    0.22596   0.83892   0.75484   0.00000  Uiso   1.00
H897   H     0.01948   0.72709   0.51614   0.00000  Uiso   1.00
H898   H     0.00529   0.87343   0.96859   0.00000  Uiso   1.00
H899   H     0.13573   0.81827   0.60797   0.00000  Uiso   1.00
H900   H     0.18021   0.87134   0.89775   0.00000  Uiso   1.00
H901   H     0.32738   0.86393   0.61903   0.00000  Uiso   1.00
H902   H     0.02017   0.76043   0.87200   0.00000  Uiso   1.00
H903   H     0.32508   0.73063   0.94755   0.00000  Uiso   1.00
H904   H     0.02966   0.87384   0.53942   0.00000  Uiso   1.00
H905   H     0.23489   0.68029   0.75620   0.00000  Uiso   1.00
H906   H     0.09846   0.98639   0.74380   0.00000  Uiso   1.00
N907   N     0.31506   0.84735   0.76212   0.00000  Uiso   1.00
N908   N     0.01827   0.81932   0.73788   0.00000  Uiso   1.00
O909   O     0.12815   0.90476   0.74686   0.00000  Uiso   1.00
O910   O     0.20518   0.76191   0.75314   0.00000  Uiso   1.00
O911   O     0.22829   0.91420   0.75503   0.00000  Uiso   1.00
O912   O     0.10504   0.75247   0.74498   0.00000  Uiso   1.00
O913   O     0.08851   0.82597   0.80855   0.00000  Uiso   1.00
O914   O     0.24482   0.84070   0.69146   0.00000  Uiso   1.00
O915   O     0.18866   0.83540   0.81671   0.00000  Uiso   1.00
O916   O     0.14468   0.83126   0.68329   0.00000  Uiso   1.00
N917   N     0.09036   0.74197   0.57198   0.00000  Uiso   1.00
H918   H     0.08628   0.70180   0.56342   0.00000  Uiso   1.00
H919   H     0.04667   0.74707   0.59118   0.00000  Uiso   1.00
N920   N     0.27100   0.85986   0.91110   0.00000  Uiso   1.00
H921   H     0.30414   0.83727   0.89754   0.00000  Uiso   1.00
H922   H     0.29401   0.89970   0.90869   0.00000  Uiso   1.00
N923   N     0.00560   0.88014   0.79384   0.00000  Uiso   1.00
H924   H     0.00240   0.91829   0.78858   0.00000  Uiso   1.00
H925   H     0.30820   0.86920   0.82404   0.00000  Uiso   1.00
N926   N     0.32835   0.78759   0.70536   0.00000  Uiso   1.00
H927   H     0.02527   0.80007   0.67527   0.00000  Uiso   1.00
H928   H     0.33251   0.74934   0.70935   0.00000  Uiso   1.00
C929   C     0.51509   0.93338   0.75138   0.00000  Uiso   1.00
C930   C     0.48491   0.73328   0.74863   0.00000  Uiso   1.00
C931   C     0.43784   0.77064   0.53252   0.00000  Uiso   1.00
C932   C     0.57949   0.84848   0.95662   0.00000  Uiso   1.00
C933   C     0.39624   0.75615   0.50515   0.00000  Uiso   1.00
C934   C     0.62260   0.85711   0.98302   0.00000  Uiso   1.00
C935   C     0.52337   0.98951   0.75213   0.00000  Uiso   1.00
C936   C     0.47663   0.67717   0.74789   0.00000  Uiso   1.00
C937   C     0.46153   0.82856   0.83301   0.00000  Uiso   1.00
C938   C     0.53839   0.83688   0.66682   0.00000  Uiso   1.00
C939   C     0.43811   0.81642   0.87965   0.00000  Uiso   1.00
C940   C     0.56185   0.83866   0.61880   0.00000  Uiso   1.00
C941   C     0.36837   0.75978   0.93658   0.00000  Uiso   1.00
C942   C     0.64662   0.85926   0.55385   0.00000  Uiso   1.00
C943   C     0.38366   0.77754   0.89394   0.00000  Uiso   1.00
C944   C     0.62634   0.85391   0.59922   0.00000  Uiso   1.00
C945   C     0.47695   0.83701   0.90822   0.00000  Uiso   1.00
C946   C     0.51865   0.82564   0.59224   0.00000  Uiso   1.00
C947   C     0.46812   0.81371   0.94868   0.00000  Uiso   1.00
C948   C     0.53871   0.82554   0.54619   0.00000  Uiso   1.00
C949   C     0.41046   0.77708   0.96383   0.00000  Uiso   1.00
C950   C     0.60290   0.84698   0.52751   0.00000  Uiso   1.00
C951   C     0.51446   0.82491   0.97421   0.00000  Uiso   1.00
C952   C     0.49611   0.80773   0.51850   0.00000  Uiso   1.00
Cu953  Cu    0.44071   0.82775   0.74517   0.00000  Uiso   1.00
Cu954  Cu    0.55929   0.83892   0.75484   0.00000  Uiso   1.00
H955   H     0.35281   0.72709   0.51614   0.00000  Uiso   1.00
H956   H     0.33862   0.87343   0.96859   0.00000  Uiso   1.00
H957   H     0.46906   0.81827   0.60797   0.00000  Uiso   1.00
H958   H     0.51354   0.87134   0.89775   0.00000  Uiso   1.00
H959   H     0.66071   0.86393   0.61903   0.00000  Uiso   1.00
H960   H     0.35350   0.76043   0.87200   0.00000  Uiso   1.00
H961   H     0.65841   0.73063   0.94755   0.00000  Uiso   1.00
H962   H     0.36300   0.87384   0.53942   0.00000  Uiso   1.00
H963   H     0.56822   0.68029   0.75620   0.00000  Uiso   1.00
H964   H     0.43179   0.98639   0.74380   0.00000  Uiso   1.00
N965   N     0.64839   0.84735   0.76212   0.00000  Uiso   1.00
N966   N     0.35161   0.81932   0.73788   0.00000  Uiso   1.00
O967   O     0.46148   0.90476   0.74686   0.00000  Uiso   1.00
O968   O     0.53852   0.76191   0.75314   0.00000  Uiso   1.00
O969   O     0.56163   0.91420   0.75503   0.00000  Uiso   1.00
O970   O     0.43837   0.75247   0.74498   0.00000  Uiso   1.00
O971   O     0.42185   0.82597   0.80855   0.00000  Uiso   1.00
O972   O     0.57815   0.84070   0.69146   0.00000  Uiso   1.00
O973   O     0.52199   0.83540   0.81671   0.00000  Uiso   1.00
O974   O     0.47801   0.83126   0.68329   0.00000  Uiso   1.00
N975   N     0.42370   0.74197   0.57198   0.00000  Uiso   1.00
H976   H     0.41962   0.70180   0.56342   0.00000  Uiso   1.00
H977   H     0.38000   0.74707   0.59118   0.00000  Uiso   1.00
N978   N     0.60433   0.85986   0.91110   0.00000  Uiso   1.00
H979   H     0.63747   0.83727   0.89754   0.00000  Uiso   1.00
H980   H     0.62734   0.89970   0.90869   0.00000  Uiso   1.00
N981   N     0.33893   0.88014   0.79384   0.00000  Uiso   1.00
H982   H     0.33573   0.91829   0.78858   0.00000  Uiso   1.00
H983   H     0.64154   0.86920   0.82404   0.00000  Uiso   1.00
N984   N     0.66168   0.78759   0.70536   0.00000  Uiso   1.00
H985   H     0.35860   0.80007   0.67527   0.00000  Uiso   1.00
H986   H     0.66584   0.74934   0.70935   0.00000  Uiso   1.00
C987   C     0.84842   0.93338   0.75138   0.00000  Uiso   1.00
C988   C     0.81824   0.73328   0.74863   0.00000  Uiso   1.00
C989   C     0.77117   0.77064   0.53252   0.00000  Uiso   1.00
C990   C     0.91283   0.84848   0.95662   0.00000  Uiso   1.00
C991   C     0.72957   0.75615   0.50515   0.00000  Uiso   1.00
C992   C     0.95593   0.85711   0.98302   0.00000  Uiso   1.00
C993   C     0.85670   0.98951   0.75213   0.00000  Uiso   1.00
C994   C     0.80996   0.67717   0.74789   0.00000  Uiso   1.00
C995   C     0.79486   0.82856   0.83301   0.00000  Uiso   1.00
C996   C     0.87173   0.83688   0.66682   0.00000  Uiso   1.00
C997   C     0.77144   0.81642   0.87965   0.00000  Uiso   1.00
C998   C     0.89518   0.83866   0.61880   0.00000  Uiso   1.00
C999   C     0.70170   0.75978   0.93658   0.00000  Uiso   1.00
C1000  C     0.97996   0.85926   0.55385   0.00000  Uiso   1.00
C1001  C     0.71699   0.77754   0.89394   0.00000  Uiso   1.00
C1002  C     0.95967   0.85391   0.59922   0.00000  Uiso   1.00
C1003  C     0.81029   0.83701   0.90822   0.00000  Uiso   1.00
C1004  C     0.85199   0.82564   0.59224   0.00000  Uiso   1.00
C1005  C     0.80146   0.81371   0.94868   0.00000  Uiso   1.00
C1006  C     0.87204   0.82554   0.54619   0.00000  Uiso   1.00
C1007  C     0.74379   0.77708   0.96383   0.00000  Uiso   1.00
C1008  C     0.93623   0.84698   0.52751   0.00000  Uiso   1.00
C1009  C     0.84779   0.82491   0.97421   0.00000  Uiso   1.00
C1010  C     0.82944   0.80773   0.51850   0.00000  Uiso   1.00
Cu1011 Cu    0.77404   0.82775   0.74517   0.00000  Uiso   1.00
Cu1012 Cu    0.89263   0.83892   0.75484   0.00000  Uiso   1.00
H1013  H     0.68614   0.72709   0.51614   0.00000  Uiso   1.00
H1014  H     0.67195   0.87343   0.96859   0.00000  Uiso   1.00
H1015  H     0.80240   0.81827   0.60797   0.00000  Uiso   1.00
H1016  H     0.84688   0.87134   0.89775   0.00000  Uiso   1.00
H1017  H     0.99405   0.86393   0.61903   0.00000  Uiso   1.00
H1018  H     0.68684   0.76043   0.87200   0.00000  Uiso   1.00
H1019  H     0.99175   0.73063   0.94755   0.00000  Uiso   1.00
H1020  H     0.69633   0.87384   0.53942   0.00000  Uiso   1.00
H1021  H     0.90156   0.68029   0.75620   0.00000  Uiso   1.00
H1022  H     0.76512   0.98639   0.74380   0.00000  Uiso   1.00
N1023  N     0.98173   0.84735   0.76212   0.00000  Uiso   1.00
N1024  N     0.68494   0.81932   0.73788   0.00000  Uiso   1.00
O1025  O     0.79482   0.90476   0.74686   0.00000  Uiso   1.00
O1026  O     0.87185   0.76191   0.75314   0.00000  Uiso   1.00
O1027  O     0.89496   0.91420   0.75503   0.00000  Uiso   1.00
O1028  O     0.77171   0.75247   0.74498   0.00000  Uiso   1.00
O1029  O     0.75518   0.82597   0.80855   0.00000  Uiso   1.00
O1030  O     0.91149   0.84070   0.69146   0.00000  Uiso   1.00
O1031  O     0.85532   0.83540   0.81671   0.00000  Uiso   1.00
O1032  O     0.81134   0.83126   0.68329   0.00000  Uiso   1.00
N1033  N     0.75703   0.74197   0.57198   0.00000  Uiso   1.00
H1034  H     0.75295   0.70180   0.56342   0.00000  Uiso   1.00
H1035  H     0.71334   0.74707   0.59118   0.00000  Uiso   1.00
N1036  N     0.93766   0.85986   0.91110   0.00000  Uiso   1.00
H1037  H     0.97080   0.83727   0.89754   0.00000  Uiso   1.00
H1038  H     0.96067   0.89970   0.90869   0.00000  Uiso   1.00
N1039  N     0.67226   0.88014   0.79384   0.00000  Uiso   1.00
H1040  H     0.66906   0.91829   0.78858   0.00000  Uiso   1.00
H1041  H     0.97487   0.86920   0.82404   0.00000  Uiso   1.00
N1042  N     0.99502   0.78759   0.70536   0.00000  Uiso   1.00
H1043  H     0.69194   0.80007   0.67527   0.00000  Uiso   1.00
H1044  H     0.99917   0.74934   0.70935   0.00000  Uiso   1.00
loop_
_geom_bond_atom_site_label_1
_geom_bond_atom_site_label_2
_geom_bond_distance
_geom_bond_site_symmetry_2
_ccdc_geom_bond_type
C1     C7      1.430   .     S
C1     O41     1.294   .     A
C1     O39     1.294   .     A
C2     O42     1.294   .     A
C2     O40     1.294   .     A
C2     C8      1.429   .     S
C3     C24     1.427   .     A
C3     N47     1.434   .     S
C3     C5      1.393   .     A
C4     N50     1.430   .     S
C4     C6      1.397   .     A
C4     C23     1.433   .     A
C5     H27     1.085   .     S
C5     C543    1.388   1_554 S
C6     C544    1.386   .     S
C6     H86     1.085   .     S
C7     C182    1.332   .     S
C7     H209    1.087   .     S
C8     C355    1.332   1_545 S
C8     H384    1.087   1_545 S
C9     O45     1.301   .     A
C9     C11     1.464   .     S
C9     O43     1.304   .     A
C10    O44     1.305   .     A
C10    C12     1.470   .     S
C10    O46     1.303   .     A
C11    C17     1.396   .     A
C11    C15     1.397   .     A
C12    C16     1.401   .     A
C12    C18     1.400   .     A
C13    C15     1.391   .     A
C13    C21     1.405   .     A
C13    H149    1.084   1_455 S
C14    C22     1.404   .     A
C14    C16     1.393   .     A
C14    H92     1.084   .     S
C15    H32     1.083   .     S
C16    H31     1.083   .     S
C17    H30     1.076   .     S
C17    C19     1.408   .     A
C18    H29     1.078   .     S
C18    C20     1.404   .     A
C19    C23     1.433   .     A
C19    C21     1.418   .     A
C20    C24     1.425   .     A
C20    C22     1.412   .     A
C21    C527    1.388   .     S
C22    C528    1.386   1_554 S
C23    C546    1.431   .     S
C24    C545    1.431   1_554 S
Cu25   O42     1.950   .     S
Cu25   N38     2.032   .     S
Cu25   O43     1.933   .     S
Cu25   O39     1.950   .     S
Cu25   Cu26    2.705   .     S
Cu25   O46     1.916   .     S
Cu26   N37     2.032   .     S
Cu26   O40     1.950   .     S
Cu26   O44     1.933   .     S
Cu26   O45     1.916   .     S
Cu26   O41     1.950   .     S
H28    C122    1.085   1_455 S
H33    C71     1.084   .     S
H34    C130    1.084   1_455 S
H35    C355    1.087   1_545 S
H36    C182    1.087   .     S
N37    N96     1.286   .     S
N37    N111    1.384   .     S
N38    N153    1.286   1_455 S
N38    N172    1.385   1_455 S
N47    H48     1.046   .     S
N47    H49     1.046   .     S
N50    H52     1.046   .     S
N50    H51     1.041   .     S
N53    H54     1.044   .     S
N53    N153    1.384   1_455 S
N53    H171    1.042   1_455 S
H55    N111    1.042   .     S
N56    H58     1.044   .     S
N56    N96     1.385   .     S
N56    H115    1.044   .     S
H57    N172    1.044   1_455 S
C59    C65     1.430   .     S
C59    O99     1.294   .     A
C59    O97     1.294   .     A
C60    O100    1.294   .     A
C60    O98     1.294   .     A
C60    C66     1.429   .     S
C61    C82     1.427   .     A
C61    N105    1.434   .     S
C61    C63     1.393   .     A
C62    N108    1.430   .     S
C62    C64     1.397   .     A
C62    C81     1.433   .     A
C63    H85     1.085   .     S
C63    C601    1.388   1_554 S
C64    C602    1.386   .     S
C64    H144    1.085   .     S
C65    C240    1.332   .     S
C65    H267    1.087   .     S
C66    C413    1.332   1_545 S
C66    H442    1.087   1_545 S
C67    O103    1.301   .     A
C67    C69     1.464   .     S
C67    O101    1.304   .     A
C68    O102    1.305   .     A
C68    C70     1.470   .     S
C68    O104    1.303   .     A
C69    C75     1.396   .     A
C69    C73     1.397   .     A
C70    C74     1.401   .     A
C70    C76     1.400   .     A
C71    C73     1.391   .     A
C71    C79     1.405   .     A
C72    C80     1.404   .     A
C72    C74     1.393   .     A
C72    H150    1.084   .     S
C73    H90     1.083   .     S
C74    H89     1.083   .     S
C75    H88     1.076   .     S
C75    C77     1.408   .     A
C76    H87     1.078   .     S
C76    C78     1.404   .     A
C77    C81     1.433   .     A
C77    C79     1.418   .     A
C78    C82     1.425   .     A
C78    C80     1.412   .     A
C79    C585    1.388   .     S
C80    C586    1.386   1_554 S
C81    C604    1.431   .     S
C82    C603    1.431   1_554 S
Cu83   O100    1.950   .     S
Cu83   N96     2.032   .     S
Cu83   O101    1.933   .     S
Cu83   O97     1.950   .     S
Cu83   Cu84    2.705   .     S
Cu83   O104    1.916   .     S
Cu84   N95     2.032   .     S
Cu84   O98     1.950   .     S
Cu84   O102    1.933   .     S
Cu84   O103    1.916   .     S
Cu84   O99     1.950   .     S
H91    C129    1.084   .     S
H93    C413    1.087   1_545 S
H94    C240    1.087   .     S
N95    N154    1.286   .     S
N95    N169    1.384   .     S
N105   H106    1.046   .     S
N105   H107    1.046   .     S
N108   H110    1.046   .     S
N108   H109    1.041   .     S
N111   H112    1.044   .     S
H113   N169    1.042   .     S
N114   H116    1.044   .     S
N114   N154    1.385   .     S
N114   H173    1.044   .     S
C117   C123    1.430   .     S
C117   O157    1.294   .     A
C117   O155    1.294   .     A
C118   O158    1.294   .     A
C118   O156    1.294   .     A
C118   C124    1.429   .     S
C119   C140    1.427   .     A
C119   N163    1.434   .     S
C119   C121    1.393   .     A
C120   N166    1.430   .     S
C120   C122    1.397   .     A
C120   C139    1.433   .     A
C121   H143    1.085   .     S
C121   C659    1.388   1_554 S
C122   C660    1.386   .     S
C122   H28     1.085   1_655 S
C123   C298    1.332   .     S
C123   H325    1.087   .     S
C124   C471    1.332   1_545 S
C124   H500    1.087   1_545 S
C125   O161    1.301   .     A
C125   C127    1.464   .     S
C125   O159    1.304   .     A
C126   O160    1.305   .     A
C126   C128    1.470   .     S
C126   O162    1.303   .     A
C127   C133    1.396   .     A
C127   C131    1.397   .     A
C128   C132    1.401   .     A
C128   C134    1.400   .     A
C129   C131    1.391   .     A
C129   C137    1.405   .     A
C130   C138    1.404   .     A
C130   C132    1.393   .     A
C130   H34     1.084   1_655 S
C131   H148    1.083   .     S
C132   H147    1.083   .     S
C133   H146    1.076   .     S
C133   C135    1.408   .     A
C134   H145    1.078   .     S
C134   C136    1.404   .     A
C135   C139    1.433   .     A
C135   C137    1.418   .     A
C136   C140    1.425   .     A
C136   C138    1.412   .     A
C137   C643    1.388   .     S
C138   C644    1.386   1_554 S
C139   C662    1.431   .     S
C140   C661    1.431   1_554 S
Cu141  O158    1.950   .     S
Cu141  N154    2.032   .     S
Cu141  O159    1.933   .     S
Cu141  O155    1.950   .     S
Cu141  Cu142   2.705   .     S
Cu141  O162    1.916   .     S
Cu142  N153    2.032   .     S
Cu142  O156    1.950   .     S
Cu142  O160    1.933   .     S
Cu142  O161    1.916   .     S
Cu142  O157    1.950   .     S
H149   C13     1.084   1_655 S
H151   C471    1.087   1_545 S
H152   C298    1.087   .     S
N153   N38     1.286   1_655 S
N153   N53     1.384   1_655 S
N163   H164    1.046   .     S
N163   H165    1.046   .     S
N166   H168    1.046   .     S
N166   H167    1.041   .     S
N169   H170    1.044   .     S
H171   N53     1.042   1_655 S
N172   H174    1.044   .     S
N172   N38     1.385   1_655 S
N172   H57     1.044   1_655 S
C175   C181    1.430   .     S
C175   O215    1.294   .     A
C175   O213    1.294   .     A
C176   O216    1.294   .     A
C176   O214    1.294   .     A
C176   C182    1.429   .     S
C177   C198    1.427   .     A
C177   N221    1.434   .     S
C177   C179    1.393   .     A
C178   N224    1.430   .     S
C178   C180    1.397   .     A
C178   C197    1.433   .     A
C179   H201    1.085   .     S
C179   C717    1.388   1_554 S
C180   C718    1.386   .     S
C180   H260    1.085   .     S
C181   C356    1.332   .     S
C181   H383    1.087   .     S
C183   O219    1.301   .     A
C183   C185    1.464   .     S
C183   O217    1.304   .     A
C184   O218    1.305   .     A
C184   C186    1.470   .     S
C184   O220    1.303   .     A
C185   C191    1.396   .     A
C185   C189    1.397   .     A
C186   C190    1.401   .     A
C186   C192    1.400   .     A
C187   C189    1.391   .     A
C187   C195    1.405   .     A
C187   H323    1.084   1_455 S
C188   C196    1.404   .     A
C188   C190    1.393   .     A
C188   H266    1.084   .     S
C189   H206    1.083   .     S
C190   H205    1.083   .     S
C191   H204    1.076   .     S
C191   C193    1.408   .     A
C192   H203    1.078   .     S
C192   C194    1.404   .     A
C193   C197    1.433   .     A
C193   C195    1.418   .     A
C194   C198    1.425   .     A
C194   C196    1.412   .     A
C195   C701    1.388   .     S
C196   C702    1.386   1_554 S
C197   C720    1.431   .     S
C198   C719    1.431   1_554 S
Cu199  O216    1.950   .     S
Cu199  N212    2.032   .     S
Cu199  O217    1.933   .     S
Cu199  O213    1.950   .     S
Cu199  Cu200   2.705   .     S
Cu199  O220    1.916   .     S
Cu200  N211    2.032   .     S
Cu200  O214    1.950   .     S
Cu200  O218    1.933   .     S
Cu200  O219    1.916   .     S
Cu200  O215    1.950   .     S
H202   C296    1.085   1_455 S
H207   C245    1.084   .     S
H208   C304    1.084   1_455 S
H210   C356    1.087   .     S
N211   N270    1.286   .     S
N211   N285    1.384   .     S
N212   N327    1.286   1_455 S
N212   N346    1.385   1_455 S
N221   H222    1.046   .     S
N221   H223    1.046   .     S
N224   H226    1.046   .     S
N224   H225    1.041   .     S
N227   H228    1.044   .     S
N227   N327    1.384   1_455 S
N227   H345    1.042   1_455 S
H229   N285    1.042   .     S
N230   H232    1.044   .     S
N230   N270    1.385   .     S
N230   H289    1.044   .     S
H231   N346    1.044   1_455 S
C233   C239    1.430   .     S
C233   O273    1.294   .     A
C233   O271    1.294   .     A
C234   O274    1.294   .     A
C234   O272    1.294   .     A
C234   C240    1.429   .     S
C235   C256    1.427   .     A
C235   N279    1.434   .     S
C235   C237    1.393   .     A
C236   N282    1.430   .     S
C236   C238    1.397   .     A
C236   C255    1.433   .     A
C237   H259    1.085   .     S
C237   C775    1.388   1_554 S
C238   C776    1.386   .     S
C238   H318    1.085   .     S
C239   C414    1.332   .     S
C239   H441    1.087   .     S
C241   O277    1.301   .     A
C241   C243    1.464   .     S
C241   O275    1.304   .     A
C242   O276    1.305   .     A
C242   C244    1.470   .     S
C242   O278    1.303   .     A
C243   C249    1.396   .     A
C243   C247    1.397   .     A
C244   C248    1.401   .     A
C244   C250    1.400   .     A
C245   C247    1.391   .     A
C245   C253    1.405   .     A
C246   C254    1.404   .     A
C246   C248    1.393   .     A
C246   H324    1.084   .     S
C247   H264    1.083   .     S
C248   H263    1.083   .     S
C249   H262    1.076   .     S
C249   C251    1.408   .     A
C250   H261    1.078   .     S
C250   C252    1.404   .     A
C251   C255    1.433   .     A
C251   C253    1.418   .     A
C252   C256    1.425   .     A
C252   C254    1.412   .     A
C253   C759    1.388   .     S
C254   C760    1.386   1_554 S
C255   C778    1.431   .     S
C256   C777    1.431   1_554 S
Cu257  O274    1.950   .     S
Cu257  N270    2.032   .     S
Cu257  O275    1.933   .     S
Cu257  O271    1.950   .     S
Cu257  Cu258   2.705   .     S
Cu257  O278    1.916   .     S
Cu258  N269    2.032   .     S
Cu258  O272    1.950   .     S
Cu258  O276    1.933   .     S
Cu258  O277    1.916   .     S
Cu258  O273    1.950   .     S
H265   C303    1.084   .     S
H268   C414    1.087   .     S
N269   N328    1.286   .     S
N269   N343    1.384   .     S
N279   H280    1.046   .     S
N279   H281    1.046   .     S
N282   H284    1.046   .     S
N282   H283    1.041   .     S
N285   H286    1.044   .     S
H287   N343    1.042   .     S
N288   H290    1.044   .     S
N288   N328    1.385   .     S
N288   H347    1.044   .     S
C291   C297    1.430   .     S
C291   O331    1.294   .     A
C291   O329    1.294   .     A
C292   O332    1.294   .     A
C292   O330    1.294   .     A
C292   C298    1.429   .     S
C293   C314    1.427   .     A
C293   N337    1.434   .     S
C293   C295    1.393   .     A
C294   N340    1.430   .     S
C294   C296    1.397   .     A
C294   C313    1.433   .     A
C295   H317    1.085   .     S
C295   C833    1.388   1_554 S
C296   C834    1.386   .     S
C296   H202    1.085   1_655 S
C297   C472    1.332   .     S
C297   H499    1.087   .     S
C299   O335    1.301   .     A
C299   C301    1.464   .     S
C299   O333    1.304   .     A
C300   O334    1.305   .     A
C300   C302    1.470   .     S
C300   O336    1.303   .     A
C301   C307    1.396   .     A
C301   C305    1.397   .     A
C302   C306    1.401   .     A
C302   C308    1.400   .     A
C303   C305    1.391   .     A
C303   C311    1.405   .     A
C304   C312    1.404   .     A
C304   C306    1.393   .     A
C304   H208    1.084   1_655 S
C305   H322    1.083   .     S
C306   H321    1.083   .     S
C307   H320    1.076   .     S
C307   C309    1.408   .     A
C308   H319    1.078   .     S
C308   C310    1.404   .     A
C309   C313    1.433   .     A
C309   C311    1.418   .     A
C310   C314    1.425   .     A
C310   C312    1.412   .     A
C311   C817    1.388   .     S
C312   C818    1.386   1_554 S
C313   C836    1.431   .     S
C314   C835    1.431   1_554 S
Cu315  O332    1.950   .     S
Cu315  N328    2.032   .     S
Cu315  O333    1.933   .     S
Cu315  O329    1.950   .     S
Cu315  Cu316   2.705   .     S
Cu315  O336    1.916   .     S
Cu316  N327    2.032   .     S
Cu316  O330    1.950   .     S
Cu316  O334    1.933   .     S
Cu316  O335    1.916   .     S
Cu316  O331    1.950   .     S
H323   C187    1.084   1_655 S
H326   C472    1.087   .     S
N327   N212    1.286   1_655 S
N327   N227    1.384   1_655 S
N337   H338    1.046   .     S
N337   H339    1.046   .     S
N340   H342    1.046   .     S
N340   H341    1.041   .     S
N343   H344    1.044   .     S
H345   N227    1.042   1_655 S
N346   H348    1.044   .     S
N346   N212    1.385   1_655 S
N346   H231    1.044   1_655 S
C349   C355    1.430   .     S
C349   O389    1.294   .     A
C349   O387    1.294   .     A
C350   O390    1.294   .     A
C350   O388    1.294   .     A
C350   C356    1.429   .     S
C351   C372    1.427   .     A
C351   N395    1.434   .     S
C351   C353    1.393   .     A
C352   N398    1.430   .     S
C352   C354    1.397   .     A
C352   C371    1.433   .     A
C353   H375    1.085   .     S
C353   C891    1.388   1_554 S
C354   C892    1.386   .     S
C354   H434    1.085   .     S
C355   C8      1.332   1_565 S
C355   H35     1.087   1_565 S
C357   O393    1.301   .     A
C357   C359    1.464   .     S
C357   O391    1.304   .     A
C358   O392    1.305   .     A
C358   C360    1.470   .     S
C358   O394    1.303   .     A
C359   C365    1.396   .     A
C359   C363    1.397   .     A
C360   C364    1.401   .     A
C360   C366    1.400   .     A
C361   C363    1.391   .     A
C361   C369    1.405   .     A
C361   H497    1.084   1_455 S
C362   C370    1.404   .     A
C362   C364    1.393   .     A
C362   H440    1.084   .     S
C363   H380    1.083   .     S
C364   H379    1.083   .     S
C365   H378    1.076   .     S
C365   C367    1.408   .     A
C366   H377    1.078   .     S
C366   C368    1.404   .     A
C367   C371    1.433   .     A
C367   C369    1.418   .     A
C368   C372    1.425   .     A
C368   C370    1.412   .     A
C369   C875    1.388   .     S
C370   C876    1.386   1_554 S
C371   C894    1.431   .     S
C372   C893    1.431   1_554 S
Cu373  O390    1.950   .     S
Cu373  N386    2.032   .     S
Cu373  O391    1.933   .     S
Cu373  O387    1.950   .     S
Cu373  Cu374   2.705   .     S
Cu373  O394    1.916   .     S
Cu374  N385    2.032   .     S
Cu374  O388    1.950   .     S
Cu374  O392    1.933   .     S
Cu374  O393    1.916   .     S
Cu374  O389    1.950   .     S
H376   C470    1.085   1_455 S
H381   C419    1.084   .     S
H382   C478    1.084   1_455 S
H384   C8      1.087   1_565 S
N385   N444    1.286   .     S
N385   N459    1.384   .     S
N386   N501    1.286   1_455 S
N386   N520    1.385   1_455 S
N395   H396    1.046   .     S
N395   H397    1.046   .     S
N398   H400    1.046   .     S
N398   H399    1.041   .     S
N401   H402    1.044   .     S
N401   N501    1.384   1_455 S
N401   H519    1.042   1_455 S
H403   N459    1.042   .     S
N404   H406    1.044   .     S
N404   N444    1.385   .     S
N404   H463    1.044   .     S
H405   N520    1.044   1_455 S
C407   C413    1.430   .     S
C407   O447    1.294   .     A
C407   O445    1.294   .     A
C408   O448    1.294   .     A
C408   O446    1.294   .     A
C408   C414    1.429   .     S
C409   C430    1.427   .     A
C409   N453    1.434   .     S
C409   C411    1.393   .     A
C410   N456    1.430   .     S
C410   C412    1.397   .     A
C410   C429    1.433   .     A
C411   H433    1.085   .     S
C411   C949    1.388   1_554 S
C412   C950    1.386   .     S
C412   H492    1.085   .     S
C413   C66     1.332   1_565 S
C413   H93     1.087   1_565 S
C415   O451    1.301   .     A
C415   C417    1.464   .     S
C415   O449    1.304   .     A
C416   O450    1.305   .     A
C416   C418    1.470   .     S
C416   O452    1.303   .     A
C417   C423    1.396   .     A
C417   C421    1.397   .     A
C418   C422    1.401   .     A
C418   C424    1.400   .     A
C419   C421    1.391   .     A
C419   C427    1.405   .     A
C420   C428    1.404   .     A
C420   C422    1.393   .     A
C420   H498    1.084   .     S
C421   H438    1.083   .     S
C422   H437    1.083   .     S
C423   H436    1.076   .     S
C423   C425    1.408   .     A
C424   H435    1.078   .     S
C424   C426    1.404   .     A
C425   C429    1.433   .     A
C425   C427    1.418   .     A
C426   C430    1.425   .     A
C426   C428    1.412   .     A
C427   C933    1.388   .     S
C428   C934    1.386   1_554 S
C429   C952    1.431   .     S
C430   C951    1.431   1_554 S
Cu431  O448    1.950   .     S
Cu431  N444    2.032   .     S
Cu431  O449    1.933   .     S
Cu431  O445    1.950   .     S
Cu431  Cu432   2.705   .     S
Cu431  O452    1.916   .     S
Cu432  N443    2.032   .     S
Cu432  O446    1.950   .     S
Cu432  O450    1.933   .     S
Cu432  O451    1.916   .     S
Cu432  O447    1.950   .     S
H439   C477    1.084   .     S
H442   C66     1.087   1_565 S
N443   N502    1.286   .     S
N443   N517    1.384   .     S
N453   H454    1.046   .     S
N453   H455    1.046   .     S
N456   H458    1.046   .     S
N456   H457    1.041   .     S
N459   H460    1.044   .     S
H461   N517    1.042   .     S
N462   H464    1.044   .     S
N462   N502    1.385   .     S
N462   H521    1.044   .     S
C465   C471    1.430   .     S
C465   O505    1.294   .     A
C465   O503    1.294   .     A
C466   O506    1.294   .     A
C466   O504    1.294   .     A
C466   C472    1.429   .     S
C467   C488    1.427   .     A
C467   N511    1.434   .     S
C467   C469    1.393   .     A
C468   N514    1.430   .     S
C468   C470    1.397   .     A
C468   C487    1.433   .     A
C469   H491    1.085   .     S
C469   C1007   1.388   1_554 S
C470   C1008   1.386   .     S
C470   H376    1.085   1_655 S
C471   C124    1.332   1_565 S
C471   H151    1.087   1_565 S
C473   O509    1.301   .     A
C473   C475    1.464   .     S
C473   O507    1.304   .     A
C474   O508    1.305   .     A
C474   C476    1.470   .     S
C474   O510    1.303   .     A
C475   C481    1.396   .     A
C475   C479    1.397   .     A
C476   C480    1.401   .     A
C476   C482    1.400   .     A
C477   C479    1.391   .     A
C477   C485    1.405   .     A
C478   C486    1.404   .     A
C478   C480    1.393   .     A
C478   H382    1.084   1_655 S
C479   H496    1.083   .     S
C480   H495    1.083   .     S
C481   H494    1.076   .     S
C481   C483    1.408   .     A
C482   H493    1.078   .     S
C482   C484    1.404   .     A
C483   C487    1.433   .     A
C483   C485    1.418   .     A
C484   C488    1.425   .     A
C484   C486    1.412   .     A
C485   C991    1.388   .     S
C486   C992    1.386   1_554 S
C487   C1010   1.431   .     S
C488   C1009   1.431   1_554 S
Cu489  O506    1.950   .     S
Cu489  N502    2.032   .     S
Cu489  O507    1.933   .     S
Cu489  O503    1.950   .     S
Cu489  Cu490   2.705   .     S
Cu489  O510    1.916   .     S
Cu490  N501    2.032   .     S
Cu490  O504    1.950   .     S
Cu490  O508    1.933   .     S
Cu490  O509    1.916   .     S
Cu490  O505    1.950   .     S
H497   C361    1.084   1_655 S
H500   C124    1.087   1_565 S
N501   N386    1.286   1_655 S
N501   N401    1.384   1_655 S
N511   H512    1.046   .     S
N511   H513    1.046   .     S
N514   H516    1.046   .     S
N514   H515    1.041   .     S
N517   H518    1.044   .     S
H519   N401    1.042   1_655 S
N520   H522    1.044   .     S
N520   N386    1.385   1_655 S
N520   H405    1.044   1_655 S
C523   C529    1.430   .     S
C523   O563    1.294   .     A
C523   O561    1.294   .     A
C524   O564    1.294   .     A
C524   O562    1.294   .     A
C524   C530    1.429   .     S
C525   C546    1.427   .     A
C525   N569    1.434   .     S
C525   C527    1.393   .     A
C526   N572    1.430   .     S
C526   C528    1.397   .     A
C526   C545    1.433   .     A
C527   H549    1.085   .     S
C528   C22     1.386   1_556 S
C528   H608    1.085   .     S
C529   C704    1.332   .     S
C529   H731    1.087   .     S
C530   C877    1.332   1_545 S
C530   H906    1.087   1_545 S
C531   O567    1.301   .     A
C531   C533    1.464   .     S
C531   O565    1.304   .     A
C532   O566    1.305   .     A
C532   C534    1.470   .     S
C532   O568    1.303   .     A
C533   C539    1.396   .     A
C533   C537    1.397   .     A
C534   C538    1.401   .     A
C534   C540    1.400   .     A
C535   C537    1.391   .     A
C535   C543    1.405   .     A
C535   H671    1.084   1_455 S
C536   C544    1.404   .     A
C536   C538    1.393   .     A
C536   H614    1.084   .     S
C537   H554    1.083   .     S
C538   H553    1.083   .     S
C539   H552    1.076   .     S
C539   C541    1.408   .     A
C540   H551    1.078   .     S
C540   C542    1.404   .     A
C541   C545    1.433   .     A
C541   C543    1.418   .     A
C542   C546    1.425   .     A
C542   C544    1.412   .     A
C543   C5      1.388   1_556 S
C545   C24     1.431   1_556 S
Cu547  O564    1.950   .     S
Cu547  N560    2.032   .     S
Cu547  O565    1.933   .     S
Cu547  O561    1.950   .     S
Cu547  Cu548   2.705   .     S
Cu547  O568    1.916   .     S
Cu548  N559    2.032   .     S
Cu548  O562    1.950   .     S
Cu548  O566    1.933   .     S
Cu548  O567    1.916   .     S
Cu548  O563    1.950   .     S
H550   C644    1.085   1_455 S
H555   C593    1.084   .     S
H556   C652    1.084   1_455 S
H557   C877    1.087   1_545 S
H558   C704    1.087   .     S
N559   N618    1.286   .     S
N559   N633    1.384   .     S
N560   N675    1.286   1_455 S
N560   N694    1.385   1_455 S
N569   H570    1.046   .     S
N569   H571    1.046   .     S
N572   H574    1.046   .     S
N572   H573    1.041   .     S
N575   H576    1.044   .     S
N575   N675    1.384   1_455 S
N575   H693    1.042   1_455 S
H577   N633    1.042   .     S
N578   H580    1.044   .     S
N578   N618    1.385   .     S
N578   H637    1.044   .     S
H579   N694    1.044   1_455 S
C581   C587    1.430   .     S
C581   O621    1.294   .     A
C581   O619    1.294   .     A
C582   O622    1.294   .     A
C582   O620    1.294   .     A
C582   C588    1.429   .     S
C583   C604    1.427   .     A
C583   N627    1.434   .     S
C583   C585    1.393   .     A
C584   N630    1.430   .     S
C584   C586    1.397   .     A
C584   C603    1.433   .     A
C585   H607    1.085   .     S
C586   C80     1.386   1_556 S
C586   H666    1.085   .     S
C587   C762    1.332   .     S
C587   H789    1.087   .     S
C588   C935    1.332   1_545 S
C588   H964    1.087   1_545 S
C589   O625    1.301   .     A
C589   C591    1.464   .     S
C589   O623    1.304   .     A
C590   O624    1.305   .     A
C590   C592    1.470   .     S
C590   O626    1.303   .     A
C591   C597    1.396   .     A
C591   C595    1.397   .     A
C592   C596    1.401   .     A
C592   C598    1.400   .     A
C593   C595    1.391   .     A
C593   C601    1.405   .     A
C594   C602    1.404   .     A
C594   C596    1.393   .     A
C594   H672    1.084   .     S
C595   H612    1.083   .     S
C596   H611    1.083   .     S
C597   H610    1.076   .     S
C597   C599    1.408   .     A
C598   H609    1.078   .     S
C598   C600    1.404   .     A
C599   C603    1.433   .     A
C599   C601    1.418   .     A
C600   C604    1.425   .     A
C600   C602    1.412   .     A
C601   C63     1.388   1_556 S
C603   C82     1.431   1_556 S
Cu605  O622    1.950   .     S
Cu605  N618    2.032   .     S
Cu605  O623    1.933   .     S
Cu605  O619    1.950   .     S
Cu605  Cu606   2.705   .     S
Cu605  O626    1.916   .     S
Cu606  N617    2.032   .     S
Cu606  O620    1.950   .     S
Cu606  O624    1.933   .     S
Cu606  O625    1.916   .     S
Cu606  O621    1.950   .     S
H613   C651    1.084   .     S
H615   C935    1.087   1_545 S
H616   C762    1.087   .     S
N617   N676    1.286   .     S
N617   N691    1.384   .     S
N627   H628    1.046   .     S
N627   H629    1.046   .     S
N630   H632    1.046   .     S
N630   H631    1.041   .     S
N633   H634    1.044   .     S
H635   N691    1.042   .     S
N636   H638    1.044   .     S
N636   N676    1.385   .     S
N636   H695    1.044   .     S
C639   C645    1.430   .     S
C639   O679    1.294   .     A
C639   O677    1.294   .     A
C640   O680    1.294   .     A
C640   O678    1.294   .     A
C640   C646    1.429   .     S
C641   C662    1.427   .     A
C641   N685    1.434   .     S
C641   C643    1.393   .     A
C642   N688    1.430   .     S
C642   C644    1.397   .     A
C642   C661    1.433   .     A
C643   H665    1.085   .     S
C644   C138    1.386   1_556 S
C644   H550    1.085   1_655 S
C645   C820    1.332   .     S
C645   H847    1.087   .     S
C646   C993    1.332   1_545 S
C646   H1022   1.087   1_545 S
C647   O683    1.301   .     A
C647   C649    1.464   .     S
C647   O681    1.304   .     A
C648   O682    1.305   .     A
C648   C650    1.470   .     S
C648   O684    1.303   .     A
C649   C655    1.396   .     A
C649   C653    1.397   .     A
C650   C654    1.401   .     A
C650   C656    1.400   .     A
C651   C653    1.391   .     A
C651   C659    1.405   .     A
C652   C660    1.404   .     A
C652   C654    1.393   .     A
C652   H556    1.084   1_655 S
C653   H670    1.083   .     S
C654   H669    1.083   .     S
C655   H668    1.076   .     S
C655   C657    1.408   .     A
C656   H667    1.078   .     S
C656   C658    1.404   .     A
C657   C661    1.433   .     A
C657   C659    1.418   .     A
C658   C662    1.425   .     A
C658   C660    1.412   .     A
C659   C121    1.388   1_556 S
C661   C140    1.431   1_556 S
Cu663  O680    1.950   .     S
Cu663  N676    2.032   .     S
Cu663  O681    1.933   .     S
Cu663  O677    1.950   .     S
Cu663  Cu664   2.705   .     S
Cu663  O684    1.916   .     S
Cu664  N675    2.032   .     S
Cu664  O678    1.950   .     S
Cu664  O682    1.933   .     S
Cu664  O683    1.916   .     S
Cu664  O679    1.950   .     S
H671   C535    1.084   1_655 S
H673   C993    1.087   1_545 S
H674   C820    1.087   .     S
N675   N560    1.286   1_655 S
N675   N575    1.384   1_655 S
N685   H686    1.046   .     S
N685   H687    1.046   .     S
N688   H690    1.046   .     S
N688   H689    1.041   .     S
N691   H692    1.044   .     S
H693   N575    1.042   1_655 S
N694   H696    1.044   .     S
N694   N560    1.385   1_655 S
N694   H579    1.044   1_655 S
C697   C703    1.430   .     S
C697   O737    1.294   .     A
C697   O735    1.294   .     A
C698   O738    1.294   .     A
C698   O736    1.294   .     A
C698   C704    1.429   .     S
C699   C720    1.427   .     A
C699   N743    1.434   .     S
C699   C701    1.393   .     A
C700   N746    1.430   .     S
C700   C702    1.397   .     A
C700   C719    1.433   .     A
C701   H723    1.085   .     S
C702   C196    1.386   1_556 S
C702   H782    1.085   .     S
C703   C878    1.332   .     S
C703   H905    1.087   .     S
C705   O741    1.301   .     A
C705   C707    1.464   .     S
C705   O739    1.304   .     A
C706   O740    1.305   .     A
C706   C708    1.470   .     S
C706   O742    1.303   .     A
C707   C713    1.396   .     A
C707   C711    1.397   .     A
C708   C712    1.401   .     A
C708   C714    1.400   .     A
C709   C711    1.391   .     A
C709   C717    1.405   .     A
C709   H845    1.084   1_455 S
C710   C718    1.404   .     A
C710   C712    1.393   .     A
C710   H788    1.084   .     S
C711   H728    1.083   .     S
C712   H727    1.083   .     S
C713   H726    1.076   .     S
C713   C715    1.408   .     A
C714   H725    1.078   .     S
C714   C716    1.404   .     A
C715   C719    1.433   .     A
C715   C717    1.418   .     A
C716   C720    1.425   .     A
C716   C718    1.412   .     A
C717   C179    1.388   1_556 S
C719   C198    1.431   1_556 S
Cu721  O738    1.950   .     S
Cu721  N734    2.032   .     S
Cu721  O739    1.933   .     S
Cu721  O735    1.950   .     S
Cu721  Cu722   2.705   .     S
Cu721  O742    1.916   .     S
Cu722  N733    2.032   .     S
Cu722  O736    1.950   .     S
Cu722  O740    1.933   .     S
Cu722  O741    1.916   .     S
Cu722  O737    1.950   .     S
H724   C818    1.085   1_455 S
H729   C767    1.084   .     S
H730   C826    1.084   1_455 S
H732   C878    1.087   .     S
N733   N792    1.286   .     S
N733   N807    1.384   .     S
N734   N849    1.286   1_455 S
N734   N868    1.385   1_455 S
N743   H744    1.046   .     S
N743   H745    1.046   .     S
N746   H748    1.046   .     S
N746   H747    1.041   .     S
N749   H750    1.044   .     S
N749   N849    1.384   1_455 S
N749   H867    1.042   1_455 S
H751   N807    1.042   .     S
N752   H754    1.044   .     S
N752   N792    1.385   .     S
N752   H811    1.044   .     S
H753   N868    1.044   1_455 S
C755   C761    1.430   .     S
C755   O795    1.294   .     A
C755   O793    1.294   .     A
C756   O796    1.294   .     A
C756   O794    1.294   .     A
C756   C762    1.429   .     S
C757   C778    1.427   .     A
C757   N801    1.434   .     S
C757   C759    1.393   .     A
C758   N804    1.430   .     S
C758   C760    1.397   .     A
C758   C777    1.433   .     A
C759   H781    1.085   .     S
C760   C254    1.386   1_556 S
C760   H840    1.085   .     S
C761   C936    1.332   .     S
C761   H963    1.087   .     S
C763   O799    1.301   .     A
C763   C765    1.464   .     S
C763   O797    1.304   .     A
C764   O798    1.305   .     A
C764   C766    1.470   .     S
C764   O800    1.303   .     A
C765   C771    1.396   .     A
C765   C769    1.397   .     A
C766   C770    1.401   .     A
C766   C772    1.400   .     A
C767   C769    1.391   .     A
C767   C775    1.405   .     A
C768   C776    1.404   .     A
C768   C770    1.393   .     A
C768   H846    1.084   .     S
C769   H786    1.083   .     S
C770   H785    1.083   .     S
C771   H784    1.076   .     S
C771   C773    1.408   .     A
C772   H783    1.078   .     S
C772   C774    1.404   .     A
C773   C777    1.433   .     A
C773   C775    1.418   .     A
C774   C778    1.425   .     A
C774   C776    1.412   .     A
C775   C237    1.388   1_556 S
C777   C256    1.431   1_556 S
Cu779  O796    1.950   .     S
Cu779  N792    2.032   .     S
Cu779  O797    1.933   .     S
Cu779  O793    1.950   .     S
Cu779  Cu780   2.705   .     S
Cu779  O800    1.916   .     S
Cu780  N791    2.032   .     S
Cu780  O794    1.950   .     S
Cu780  O798    1.933   .     S
Cu780  O799    1.916   .     S
Cu780  O795    1.950   .     S
H787   C825    1.084   .     S
H790   C936    1.087   .     S
N791   N850    1.286   .     S
N791   N865    1.384   .     S
N801   H802    1.046   .     S
N801   H803    1.046   .     S
N804   H806    1.046   .     S
N804   H805    1.041   .     S
N807   H808    1.044   .     S
H809   N865    1.042   .     S
N810   H812    1.044   .     S
N810   N850    1.385   .     S
N810   H869    1.044   .     S
C813   C819    1.430   .     S
C813   O853    1.294   .     A
C813   O851    1.294   .     A
C814   O854    1.294   .     A
C814   O852    1.294   .     A
C814   C820    1.429   .     S
C815   C836    1.427   .     A
C815   N859    1.434   .     S
C815   C817    1.393   .     A
C816   N862    1.430   .     S
C816   C818    1.397   .     A
C816   C835    1.433   .     A
C817   H839    1.085   .     S
C818   C312    1.386   1_556 S
C818   H724    1.085   1_655 S
C819   C994    1.332   .     S
C819   H1021   1.087   .     S
C821   O857    1.301   .     A
C821   C823    1.464   .     S
C821   O855    1.304   .     A
C822   O856    1.305   .     A
C822   C824    1.470   .     S
C822   O858    1.303   .     A
C823   C829    1.396   .     A
C823   C827    1.397   .     A
C824   C828    1.401   .     A
C824   C830    1.400   .     A
C825   C827    1.391   .     A
C825   C833    1.405   .     A
C826   C834    1.404   .     A
C826   C828    1.393   .     A
C826   H730    1.084   1_655 S
C827   H844    1.083   .     S
C828   H843    1.083   .     S
C829   H842    1.076   .     S
C829   C831    1.408   .     A
C830   H841    1.078   .     S
C830   C832    1.404   .     A
C831   C835    1.433   .     A
C831   C833    1.418   .     A
C832   C836    1.425   .     A
C832   C834    1.412   .     A
C833   C295    1.388   1_556 S
C835   C314    1.431   1_556 S
Cu837  O854    1.950   .     S
Cu837  N850    2.032   .     S
Cu837  O855    1.933   .     S
Cu837  O851    1.950   .     S
Cu837  Cu838   2.705   .     S
Cu837  O858    1.916   .     S
Cu838  N849    2.032   .     S
Cu838  O852    1.950   .     S
Cu838  O856    1.933   .     S
Cu838  O857    1.916   .     S
Cu838  O853    1.950   .     S
H845   C709    1.084   1_655 S
H848   C994    1.087   .     S
N849   N734    1.286   1_655 S
N849   N749    1.384   1_655 S
N859   H860    1.046   .     S
N859   H861    1.046   .     S
N862   H864    1.046   .     S
N862   H863    1.041   .     S
N865   H866    1.044   .     S
H867   N749    1.042   1_655 S
N868   H870    1.044   .     S
N868   N734    1.385   1_655 S
N868   H753    1.044   1_655 S
C871   C877    1.430   .     S
C871   O911    1.294   .     A
C871   O909    1.294   .     A
C872   O912    1.294   .     A
C872   O910    1.294   .     A
C872   C878    1.429   .     S
C873   C894    1.427   .     A
C873   N917    1.434   .     S
C873   C875    1.393   .     A
C874   N920    1.430   .     S
C874   C876    1.397   .     A
C874   C893    1.433   .     A
C875   H897    1.085   .     S
C876   C370    1.386   1_556 S
C876   H956    1.085   .     S
C877   C530    1.332   1_565 S
C877   H557    1.087   1_565 S
C879   O915    1.301   .     A
C879   C881    1.464   .     S
C879   O913    1.304   .     A
C880   O914    1.305   .     A
C880   C882    1.470   .     S
C880   O916    1.303   .     A
C881   C887    1.396   .     A
C881   C885    1.397   .     A
C882   C886    1.401   .     A
C882   C888    1.400   .     A
C883   C885    1.391   .     A
C883   C891    1.405   .     A
C883   H1019   1.084   1_455 S
C884   C892    1.404   .     A
C884   C886    1.393   .     A
C884   H962    1.084   .     S
C885   H902    1.083   .     S
C886   H901    1.083   .     S
C887   H900    1.076   .     S
C887   C889    1.408   .     A
C888   H899    1.078   .     S
C888   C890    1.404   .     A
C889   C893    1.433   .     A
C889   C891    1.418   .     A
C890   C894    1.425   .     A
C890   C892    1.412   .     A
C891   C353    1.388   1_556 S
C893   C372    1.431   1_556 S
Cu895  O912    1.950   .     S
Cu895  N908    2.032   .     S
Cu895  O913    1.933   .     S
Cu895  O909    1.950   .     S
Cu895  Cu896   2.705   .     S
Cu895  O916    1.916   .     S
Cu896  N907    2.032   .     S
Cu896  O910    1.950   .     S
Cu896  O914    1.933   .     S
Cu896  O915    1.916   .     S
Cu896  O911    1.950   .     S
H898   C992    1.085   1_455 S
H903   C941    1.084   .     S
H904   C1000   1.084   1_455 S
H906   C530    1.087   1_565 S
N907   N966    1.286   .     S
N907   N981    1.384   .     S
N908   N1023   1.286   1_455 S
N908   N1042   1.385   1_455 S
N917   H918    1.046   .     S
N917   H919    1.046   .     S
N920   H922    1.046   .     S
N920   H921    1.041   .     S
N923   H924    1.044   .     S
N923   N1023   1.384   1_455 S
N923   H1041   1.042   1_455 S
H925   N981    1.042   .     S
N926   H928    1.044   .     S
N926   N966    1.385   .     S
N926   H985    1.044   .     S
H927   N1042   1.044   1_455 S
C929   C935    1.430   .     S
C929   O969    1.294   .     A
C929   O967    1.294   .     A
C930   O970    1.294   .     A
C930   O968    1.294   .     A
C930   C936    1.429   .     S
C931   C952    1.427   .     A
C931   N975    1.434   .     S
C931   C933    1.393   .     A
C932   N978    1.430   .     S
C932   C934    1.397   .     A
C932   C951    1.433   .     A
C933   H955    1.085   .     S
C934   C428    1.386   1_556 S
C934   H1014   1.085   .     S
C935   C588    1.332   1_565 S
C935   H615    1.087   1_565 S
C937   O973    1.301   .     A
C937   C939    1.464   .     S
C937   O971    1.304   .     A
C938   O972    1.305   .     A
C938   C940    1.470   .     S
C938   O974    1.303   .     A
C939   C945    1.396   .     A
C939   C943    1.397   .     A
C940   C944    1.401   .     A
C940   C946    1.400   .     A
C941   C943    1.391   .     A
C941   C949    1.405   .     A
C942   C950    1.404   .     A
C942   C944    1.393   .     A
C942   H1020   1.084   .     S
C943   H960    1.083   .     S
C944   H959    1.083   .     S
C945   H958    1.076   .     S
C945   C947    1.408   .     A
C946   H957    1.078   .     S
C946   C948    1.404   .     A
C947   C951    1.433   .     A
C947   C949    1.418   .     A
C948   C952    1.425   .     A
C948   C950    1.412   .     A
C949   C411    1.388   1_556 S
C951   C430    1.431   1_556 S
Cu953  O970    1.950   .     S
Cu953  N966    2.032   .     S
Cu953  O971    1.933   .     S
Cu953  O967    1.950   .     S
Cu953  Cu954   2.705   .     S
Cu953  O974    1.916   .     S
Cu954  N965    2.032   .     S
Cu954  O968    1.950   .     S
Cu954  O972    1.933   .     S
Cu954  O973    1.916   .     S
Cu954  O969    1.950   .     S
H961   C999    1.084   .     S
H964   C588    1.087   1_565 S
N965   N1024   1.286   .     S
N965   N1039   1.384   .     S
N975   H976    1.046   .     S
N975   H977    1.046   .     S
N978   H980    1.046   .     S
N978   H979    1.041   .     S
N981   H982    1.044   .     S
H983   N1039   1.042   .     S
N984   H986    1.044   .     S
N984   N1024   1.385   .     S
N984   H1043   1.044   .     S
C987   C993    1.430   .     S
C987   O1027   1.294   .     A
C987   O1025   1.294   .     A
C988   O1028   1.294   .     A
C988   O1026   1.294   .     A
C988   C994    1.429   .     S
C989   C1010   1.427   .     A
C989   N1033   1.434   .     S
C989   C991    1.393   .     A
C990   N1036   1.430   .     S
C990   C992    1.397   .     A
C990   C1009   1.433   .     A
C991   H1013   1.085   .     S
C992   C486    1.386   1_556 S
C992   H898    1.085   1_655 S
C993   C646    1.332   1_565 S
C993   H673    1.087   1_565 S
C995   O1031   1.301   .     A
C995   C997    1.464   .     S
C995   O1029   1.304   .     A
C996   O1030   1.305   .     A
C996   C998    1.470   .     S
C996   O1032   1.303   .     A
C997   C1003   1.396   .     A
C997   C1001   1.397   .     A
C998   C1002   1.401   .     A
C998   C1004   1.400   .     A
C999   C1001   1.391   .     A
C999   C1007   1.405   .     A
C1000  C1008   1.404   .     A
C1000  C1002   1.393   .     A
C1000  H904    1.084   1_655 S
C1001  H1018   1.083   .     S
C1002  H1017   1.083   .     S
C1003  H1016   1.076   .     S
C1003  C1005   1.408   .     A
C1004  H1015   1.078   .     S
C1004  C1006   1.404   .     A
C1005  C1009   1.433   .     A
C1005  C1007   1.418   .     A
C1006  C1010   1.425   .     A
C1006  C1008   1.412   .     A
C1007  C469    1.388   1_556 S
C1009  C488    1.431   1_556 S
Cu1011 O1028   1.950   .     S
Cu1011 N1024   2.032   .     S
Cu1011 O1029   1.933   .     S
Cu1011 O1025   1.950   .     S
Cu1011 Cu1012  2.705   .     S
Cu1011 O1032   1.916   .     S
Cu1012 N1023   2.032   .     S
Cu1012 O1026   1.950   .     S
Cu1012 O1030   1.933   .     S
Cu1012 O1031   1.916   .     S
Cu1012 O1027   1.950   .     S
H1019  C883    1.084   1_655 S
H1022  C646    1.087   1_565 S
N1023  N908    1.286   1_655 S
N1023  N923    1.384   1_655 S
N1033  H1034   1.046   .     S
N1033  H1035   1.046   .     S
N1036  H1038   1.046   .     S
N1036  H1037   1.041   .     S
N1039  H1040   1.044   .     S
H1041  N923    1.042   1_655 S
N1042  H1044   1.044   .     S
N1042  N908    1.385   1_655 S
N1042  H927    1.044   1_655 S
