data_str_m2_o1_o1_pcu_sym.39
_audit_creation_date              2020-01-03
_audit_creation_method            'Materials Studio'
_symmetry_space_group_name_H-M    'P1'
_symmetry_Int_Tables_number       1
_symmetry_cell_setting            triclinic
loop_
_symmetry_equiv_pos_as_xyz
  x,y,z
_cell_length_a                    30.4407
_cell_length_b                    31.1601
_cell_length_c                    28.5167
_cell_angle_alpha                 89.9582
_cell_angle_beta                  91.3088
_cell_angle_gamma                 90.4790
loop_
_atom_site_label
_atom_site_type_symbol
_atom_site_fract_x
_atom_site_fract_y
_atom_site_fract_z
_atom_site_U_iso_or_equiv
_atom_site_adp_type
_atom_site_occupancy
C1     C     0.05888   0.18996   0.16716   0.00000  Uiso   1.00
C2     C     0.00386   0.28753   0.30860   0.00000  Uiso   1.00
C3     C     0.00377   0.28754   0.02488   0.00000  Uiso   1.00
C4     C     0.49619   0.21246   0.30845   0.00000  Uiso   1.00
C5     C     0.24636   0.46246   0.02474   0.00000  Uiso   1.00
C6     C     0.25338   0.03757   0.30857   0.00000  Uiso   1.00
C7     C     0.25334   0.03758   0.02486   0.00000  Uiso   1.00
C8     C     0.24663   0.46243   0.30847   0.00000  Uiso   1.00
C9     C     0.36673   0.16399   0.14248   0.00000  Uiso   1.00
C10    C     0.13172   0.33786   0.19494   0.00000  Uiso   1.00
C11    C     0.08677   0.37935   0.13836   0.00000  Uiso   1.00
C12    C     0.44093   0.30984   0.16607   0.00000  Uiso   1.00
C13    C     0.41613   0.11810   0.18975   0.00000  Uiso   1.00
C14    C     0.12265   0.15228   0.20553   0.00000  Uiso   1.00
C15    C     0.37681   0.34667   0.12726   0.00000  Uiso   1.00
C16    C     0.40673   0.37291   0.20307   0.00000  Uiso   1.00
C17    C     0.09185   0.12590   0.13032   0.00000  Uiso   1.00
C18    C     0.12003   0.41072   0.13689   0.00000  Uiso   1.00
C19    C     0.38354   0.08590   0.18984   0.00000  Uiso   1.00
C20    C     0.33308   0.13291   0.14532   0.00000  Uiso   1.00
C21    C     0.16465   0.36965   0.19405   0.00000  Uiso   1.00
C22    C     0.37118   0.40086   0.20653   0.00000  Uiso   1.00
C23    C     0.44072   0.19053   0.16634   0.00000  Uiso   1.00
C24    C     0.12552   0.09543   0.12821   0.00000  Uiso   1.00
C25    C     0.15800   0.12405   0.20183   0.00000  Uiso   1.00
C26    C     0.34263   0.37655   0.12957   0.00000  Uiso   1.00
C27    C     0.09276   0.34315   0.16768   0.00000  Uiso   1.00
C28    C     0.40744   0.15680   0.16575   0.00000  Uiso   1.00
C29    C     0.40843   0.34435   0.16464   0.00000  Uiso   1.00
C30    C     0.09124   0.15519   0.16817   0.00000  Uiso   1.00
C31    C     0.34236   0.09348   0.16769   0.00000  Uiso   1.00
C32    C     0.15815   0.40613   0.16551   0.00000  Uiso   1.00
C33    C     0.15828   0.09418   0.16452   0.00000  Uiso   1.00
C34    C     0.05960   0.30924   0.16702   0.00000  Uiso   1.00
C35    C     0.34088   0.40484   0.16825   0.00000  Uiso   1.00
C36    C     0.35996   0.20414   0.11527   0.00000  Uiso   1.00
C37    C     0.13914   0.29781   0.22195   0.00000  Uiso   1.00
C38    C     0.04487   0.38577   0.11124   0.00000  Uiso   1.00
C39    C     0.45972   0.11162   0.21374   0.00000  Uiso   1.00
C40    C     0.11992   0.17983   0.24783   0.00000  Uiso   1.00
C41    C     0.37873   0.31801   0.08557   0.00000  Uiso   1.00
C42    C     0.44397   0.37682   0.23789   0.00000  Uiso   1.00
C43    C     0.05583   0.12599   0.09396   0.00000  Uiso   1.00
C44    C     0.11369   0.45069   0.10929   0.00000  Uiso   1.00
C45    C     0.30869   0.43976   0.16717   0.00000  Uiso   1.00
C46    C     0.39251   0.04378   0.21201   0.00000  Uiso   1.00
C47    C     0.28732   0.14245   0.12840   0.00000  Uiso   1.00
C48    C     0.20648   0.36486   0.22194   0.00000  Uiso   1.00
C49    C     0.36712   0.42678   0.24986   0.00000  Uiso   1.00
C50    C     0.12547   0.06483   0.08806   0.00000  Uiso   1.00
C51    C     0.19657   0.12894   0.23481   0.00000  Uiso   1.00
C52    C     0.30717   0.37687   0.09261   0.00000  Uiso   1.00
C53    C     0.19078   0.05969   0.16605   0.00000  Uiso   1.00
C54    C     0.19106   0.44022   0.16633   0.00000  Uiso   1.00
C55    C     0.30921   0.05957   0.16701   0.00000  Uiso   1.00
C56    C     0.49599   0.21249   0.02473   0.00000  Uiso   1.00
Cu57   Cu    0.00000   0.25000   0.21355   0.00000  Uiso   1.00
Cu58   Cu    0.00000   0.25000   0.11978   0.00000  Uiso   1.00
Cu59   Cu    0.25000   0.00000   0.21355   0.00000  Uiso   1.00
Cu60   Cu    0.25000   0.00000   0.11978   0.00000  Uiso   1.00
H61    H     0.49249   0.18249   0.04336   0.00000  Uiso   1.00
H62    H     0.11618   0.28809   0.24849   0.00000  Uiso   1.00
H63    H     0.04521   0.39574   0.07485   0.00000  Uiso   1.00
H64    H     0.48920   0.12551   0.19910   0.00000  Uiso   1.00
H65    H     0.11760   0.21418   0.24433   0.00000  Uiso   1.00
H66    H     0.40794   0.31715   0.06456   0.00000  Uiso   1.00
H67    H     0.43795   0.38015   0.27501   0.00000  Uiso   1.00
H68    H     0.02186   0.12769   0.10457   0.00000  Uiso   1.00
H69    H     0.12132   0.48129   0.12568   0.00000  Uiso   1.00
H70    H     0.37096   0.03191   0.23881   0.00000  Uiso   1.00
H71    H     0.26607   0.11739   0.11427   0.00000  Uiso   1.00
H72    H     0.00709   0.31756   0.28999   0.00000  Uiso   1.00
H73    H     0.23723   0.37646   0.20793   0.00000  Uiso   1.00
H74    H     0.36693   0.46132   0.24808   0.00000  Uiso   1.00
H75    H     0.15416   0.06158   0.06660   0.00000  Uiso   1.00
H76    H     0.19215   0.13466   0.27185   0.00000  Uiso   1.00
H77    H     0.27301   0.37777   0.10271   0.00000  Uiso   1.00
H78    H     0.00663   0.31763   0.04362   0.00000  Uiso   1.00
H79    H     0.49325   0.18237   0.28970   0.00000  Uiso   1.00
H80    H     0.24311   0.43244   0.04337   0.00000  Uiso   1.00
H81    H     0.25616   0.06765   0.28993   0.00000  Uiso   1.00
H82    H     0.25590   0.06769   0.04358   0.00000  Uiso   1.00
H83    H     0.24410   0.43233   0.28974   0.00000  Uiso   1.00
H84    H     0.37321   0.23424   0.12861   0.00000  Uiso   1.00
N85    N     0.00000   0.25000   0.28402   0.00000  Uiso   1.00
N86    N     0.00000   0.25000   0.04931   0.00000  Uiso   1.00
N87    N     0.25000   0.00000   0.28402   0.00000  Uiso   1.00
N88    N     0.25000   0.00000   0.04931   0.00000  Uiso   1.00
O89    O     0.04509   0.20491   0.20625   0.00000  Uiso   1.00
O90    O     0.20492   0.04509   0.12709   0.00000  Uiso   1.00
O91    O     0.20492   0.04509   0.20625   0.00000  Uiso   1.00
O92    O     0.29509   0.45491   0.12709   0.00000  Uiso   1.00
O93    O     0.20492   0.45491   0.12709   0.00000  Uiso   1.00
O94    O     0.29509   0.04509   0.20625   0.00000  Uiso   1.00
O95    O     0.29509   0.04509   0.12709   0.00000  Uiso   1.00
O96    O     0.20492   0.45491   0.20625   0.00000  Uiso   1.00
O97    O     0.34111   0.20350   0.07701   0.00000  Uiso   1.00
O98    O     0.17109   0.27557   0.21458   0.00000  Uiso   1.00
O99    O     0.00944   0.38048   0.12964   0.00000  Uiso   1.00
O100   O     0.45492   0.29509   0.12709   0.00000  Uiso   1.00
O101   O     0.46294   0.09212   0.25080   0.00000  Uiso   1.00
O102   O     0.11866   0.16387   0.28690   0.00000  Uiso   1.00
O103   O     0.34700   0.29614   0.07351   0.00000  Uiso   1.00
O104   O     0.48193   0.37788   0.22499   0.00000  Uiso   1.00
O105   O     0.06393   0.12590   0.05221   0.00000  Uiso   1.00
O106   O     0.10236   0.44965   0.06797   0.00000  Uiso   1.00
O107   O     0.42377   0.02231   0.20027   0.00000  Uiso   1.00
O108   O     0.27205   0.17837   0.13212   0.00000  Uiso   1.00
O109   O     0.20678   0.34936   0.26129   0.00000  Uiso   1.00
O110   O     0.36285   0.40926   0.28782   0.00000  Uiso   1.00
O111   O     0.45492   0.29509   0.20625   0.00000  Uiso   1.00
O112   O     0.09253   0.04400   0.07763   0.00000  Uiso   1.00
O113   O     0.23398   0.12807   0.22035   0.00000  Uiso   1.00
O114   O     0.31587   0.37790   0.05102   0.00000  Uiso   1.00
O115   O     0.04509   0.20491   0.12709   0.00000  Uiso   1.00
O116   O     0.45492   0.20491   0.12709   0.00000  Uiso   1.00
O117   O     0.04509   0.29509   0.20625   0.00000  Uiso   1.00
O118   O     0.04509   0.29509   0.12709   0.00000  Uiso   1.00
O119   O     0.45492   0.20491   0.20625   0.00000  Uiso   1.00
O120   O     0.29509   0.45491   0.20625   0.00000  Uiso   1.00
C121   C     0.55888   0.18996   0.16716   0.00000  Uiso   1.00
C122   C     0.50386   0.28753   0.30860   0.00000  Uiso   1.00
C123   C     0.50377   0.28754   0.02488   0.00000  Uiso   1.00
C124   C     0.99619   0.21246   0.30845   0.00000  Uiso   1.00
C125   C     0.74636   0.46246   0.02474   0.00000  Uiso   1.00
C126   C     0.75338   0.03757   0.30857   0.00000  Uiso   1.00
C127   C     0.75334   0.03758   0.02486   0.00000  Uiso   1.00
C128   C     0.74663   0.46243   0.30847   0.00000  Uiso   1.00
C129   C     0.86673   0.16399   0.14248   0.00000  Uiso   1.00
C130   C     0.63172   0.33786   0.19494   0.00000  Uiso   1.00
C131   C     0.58677   0.37935   0.13836   0.00000  Uiso   1.00
C132   C     0.94093   0.30984   0.16607   0.00000  Uiso   1.00
C133   C     0.91613   0.11810   0.18975   0.00000  Uiso   1.00
C134   C     0.62265   0.15228   0.20553   0.00000  Uiso   1.00
C135   C     0.87681   0.34667   0.12726   0.00000  Uiso   1.00
C136   C     0.90673   0.37291   0.20307   0.00000  Uiso   1.00
C137   C     0.59185   0.12590   0.13032   0.00000  Uiso   1.00
C138   C     0.62003   0.41072   0.13689   0.00000  Uiso   1.00
C139   C     0.88354   0.08590   0.18984   0.00000  Uiso   1.00
C140   C     0.83308   0.13291   0.14532   0.00000  Uiso   1.00
C141   C     0.66465   0.36965   0.19405   0.00000  Uiso   1.00
C142   C     0.87118   0.40086   0.20653   0.00000  Uiso   1.00
C143   C     0.94072   0.19053   0.16634   0.00000  Uiso   1.00
C144   C     0.62552   0.09543   0.12821   0.00000  Uiso   1.00
C145   C     0.65800   0.12405   0.20183   0.00000  Uiso   1.00
C146   C     0.84263   0.37655   0.12957   0.00000  Uiso   1.00
C147   C     0.59276   0.34315   0.16768   0.00000  Uiso   1.00
C148   C     0.90744   0.15680   0.16575   0.00000  Uiso   1.00
C149   C     0.90843   0.34435   0.16464   0.00000  Uiso   1.00
C150   C     0.59124   0.15519   0.16817   0.00000  Uiso   1.00
C151   C     0.84236   0.09348   0.16769   0.00000  Uiso   1.00
C152   C     0.65815   0.40613   0.16551   0.00000  Uiso   1.00
C153   C     0.65828   0.09418   0.16452   0.00000  Uiso   1.00
C154   C     0.55960   0.30924   0.16702   0.00000  Uiso   1.00
C155   C     0.84088   0.40484   0.16825   0.00000  Uiso   1.00
C156   C     0.85996   0.20414   0.11527   0.00000  Uiso   1.00
C157   C     0.63914   0.29781   0.22195   0.00000  Uiso   1.00
C158   C     0.54487   0.38577   0.11124   0.00000  Uiso   1.00
C159   C     0.95972   0.11162   0.21374   0.00000  Uiso   1.00
C160   C     0.61992   0.17983   0.24783   0.00000  Uiso   1.00
C161   C     0.87873   0.31801   0.08557   0.00000  Uiso   1.00
C162   C     0.94397   0.37682   0.23789   0.00000  Uiso   1.00
C163   C     0.55583   0.12599   0.09396   0.00000  Uiso   1.00
C164   C     0.61369   0.45069   0.10929   0.00000  Uiso   1.00
C165   C     0.80869   0.43976   0.16717   0.00000  Uiso   1.00
C166   C     0.89251   0.04378   0.21201   0.00000  Uiso   1.00
C167   C     0.78732   0.14245   0.12840   0.00000  Uiso   1.00
C168   C     0.70648   0.36486   0.22194   0.00000  Uiso   1.00
C169   C     0.86712   0.42678   0.24986   0.00000  Uiso   1.00
C170   C     0.62547   0.06483   0.08806   0.00000  Uiso   1.00
C171   C     0.69657   0.12894   0.23481   0.00000  Uiso   1.00
C172   C     0.80717   0.37687   0.09261   0.00000  Uiso   1.00
C173   C     0.69078   0.05969   0.16605   0.00000  Uiso   1.00
C174   C     0.69106   0.44022   0.16633   0.00000  Uiso   1.00
C175   C     0.80921   0.05957   0.16701   0.00000  Uiso   1.00
C176   C     0.99599   0.21249   0.02473   0.00000  Uiso   1.00
Cu177  Cu    0.50000   0.25000   0.21355   0.00000  Uiso   1.00
Cu178  Cu    0.50000   0.25000   0.11978   0.00000  Uiso   1.00
Cu179  Cu    0.75000   0.00000   0.21355   0.00000  Uiso   1.00
Cu180  Cu    0.75000   0.00000   0.11978   0.00000  Uiso   1.00
H181   H     0.99249   0.18249   0.04336   0.00000  Uiso   1.00
H182   H     0.61618   0.28809   0.24849   0.00000  Uiso   1.00
H183   H     0.54521   0.39574   0.07485   0.00000  Uiso   1.00
H184   H     0.98920   0.12551   0.19910   0.00000  Uiso   1.00
H185   H     0.61760   0.21418   0.24433   0.00000  Uiso   1.00
H186   H     0.90794   0.31715   0.06456   0.00000  Uiso   1.00
H187   H     0.93795   0.38015   0.27501   0.00000  Uiso   1.00
H188   H     0.52186   0.12769   0.10457   0.00000  Uiso   1.00
H189   H     0.62132   0.48129   0.12568   0.00000  Uiso   1.00
H190   H     0.87096   0.03191   0.23881   0.00000  Uiso   1.00
H191   H     0.76607   0.11739   0.11427   0.00000  Uiso   1.00
H192   H     0.50709   0.31756   0.28999   0.00000  Uiso   1.00
H193   H     0.73723   0.37646   0.20793   0.00000  Uiso   1.00
H194   H     0.86693   0.46132   0.24808   0.00000  Uiso   1.00
H195   H     0.65416   0.06158   0.06660   0.00000  Uiso   1.00
H196   H     0.69215   0.13466   0.27185   0.00000  Uiso   1.00
H197   H     0.77301   0.37777   0.10271   0.00000  Uiso   1.00
H198   H     0.50663   0.31763   0.04362   0.00000  Uiso   1.00
H199   H     0.99325   0.18237   0.28970   0.00000  Uiso   1.00
H200   H     0.74311   0.43244   0.04337   0.00000  Uiso   1.00
H201   H     0.75616   0.06765   0.28993   0.00000  Uiso   1.00
H202   H     0.75590   0.06769   0.04358   0.00000  Uiso   1.00
H203   H     0.74410   0.43233   0.28974   0.00000  Uiso   1.00
H204   H     0.87321   0.23424   0.12861   0.00000  Uiso   1.00
N205   N     0.50000   0.25000   0.28402   0.00000  Uiso   1.00
N206   N     0.50000   0.25000   0.04931   0.00000  Uiso   1.00
N207   N     0.75000   0.00000   0.28402   0.00000  Uiso   1.00
N208   N     0.75000   0.00000   0.04931   0.00000  Uiso   1.00
O209   O     0.54509   0.20491   0.20625   0.00000  Uiso   1.00
O210   O     0.70492   0.04509   0.12709   0.00000  Uiso   1.00
O211   O     0.70492   0.04509   0.20625   0.00000  Uiso   1.00
O212   O     0.79509   0.45491   0.12709   0.00000  Uiso   1.00
O213   O     0.70492   0.45491   0.12709   0.00000  Uiso   1.00
O214   O     0.79509   0.04509   0.20625   0.00000  Uiso   1.00
O215   O     0.79509   0.04509   0.12709   0.00000  Uiso   1.00
O216   O     0.70492   0.45491   0.20625   0.00000  Uiso   1.00
O217   O     0.84111   0.20350   0.07701   0.00000  Uiso   1.00
O218   O     0.67109   0.27557   0.21458   0.00000  Uiso   1.00
O219   O     0.50944   0.38048   0.12964   0.00000  Uiso   1.00
O220   O     0.95492   0.29509   0.12709   0.00000  Uiso   1.00
O221   O     0.96294   0.09212   0.25080   0.00000  Uiso   1.00
O222   O     0.61866   0.16387   0.28690   0.00000  Uiso   1.00
O223   O     0.84700   0.29614   0.07351   0.00000  Uiso   1.00
O224   O     0.98193   0.37788   0.22499   0.00000  Uiso   1.00
O225   O     0.56393   0.12590   0.05221   0.00000  Uiso   1.00
O226   O     0.60236   0.44965   0.06797   0.00000  Uiso   1.00
O227   O     0.92377   0.02231   0.20027   0.00000  Uiso   1.00
O228   O     0.77205   0.17837   0.13212   0.00000  Uiso   1.00
O229   O     0.70678   0.34936   0.26129   0.00000  Uiso   1.00
O230   O     0.86285   0.40926   0.28782   0.00000  Uiso   1.00
O231   O     0.95492   0.29509   0.20625   0.00000  Uiso   1.00
O232   O     0.59253   0.04400   0.07763   0.00000  Uiso   1.00
O233   O     0.73398   0.12807   0.22035   0.00000  Uiso   1.00
O234   O     0.81587   0.37790   0.05102   0.00000  Uiso   1.00
O235   O     0.54509   0.20491   0.12709   0.00000  Uiso   1.00
O236   O     0.95492   0.20491   0.12709   0.00000  Uiso   1.00
O237   O     0.54509   0.29509   0.20625   0.00000  Uiso   1.00
O238   O     0.54509   0.29509   0.12709   0.00000  Uiso   1.00
O239   O     0.95492   0.20491   0.20625   0.00000  Uiso   1.00
O240   O     0.79509   0.45491   0.20625   0.00000  Uiso   1.00
C241   C     0.05888   0.68996   0.16716   0.00000  Uiso   1.00
C242   C     0.00386   0.78753   0.30860   0.00000  Uiso   1.00
C243   C     0.00377   0.78754   0.02488   0.00000  Uiso   1.00
C244   C     0.49619   0.71246   0.30845   0.00000  Uiso   1.00
C245   C     0.24636   0.96246   0.02474   0.00000  Uiso   1.00
C246   C     0.25338   0.53757   0.30857   0.00000  Uiso   1.00
C247   C     0.25334   0.53758   0.02486   0.00000  Uiso   1.00
C248   C     0.24663   0.96243   0.30847   0.00000  Uiso   1.00
C249   C     0.36673   0.66399   0.14248   0.00000  Uiso   1.00
C250   C     0.13172   0.83786   0.19494   0.00000  Uiso   1.00
C251   C     0.08677   0.87935   0.13836   0.00000  Uiso   1.00
C252   C     0.44093   0.80984   0.16607   0.00000  Uiso   1.00
C253   C     0.41613   0.61810   0.18975   0.00000  Uiso   1.00
C254   C     0.12265   0.65228   0.20553   0.00000  Uiso   1.00
C255   C     0.37681   0.84667   0.12726   0.00000  Uiso   1.00
C256   C     0.40673   0.87291   0.20307   0.00000  Uiso   1.00
C257   C     0.09185   0.62590   0.13032   0.00000  Uiso   1.00
C258   C     0.12003   0.91072   0.13689   0.00000  Uiso   1.00
C259   C     0.38354   0.58590   0.18984   0.00000  Uiso   1.00
C260   C     0.33308   0.63291   0.14532   0.00000  Uiso   1.00
C261   C     0.16465   0.86965   0.19405   0.00000  Uiso   1.00
C262   C     0.37118   0.90086   0.20653   0.00000  Uiso   1.00
C263   C     0.44072   0.69053   0.16634   0.00000  Uiso   1.00
C264   C     0.12552   0.59543   0.12821   0.00000  Uiso   1.00
C265   C     0.15800   0.62405   0.20183   0.00000  Uiso   1.00
C266   C     0.34263   0.87655   0.12957   0.00000  Uiso   1.00
C267   C     0.09276   0.84315   0.16768   0.00000  Uiso   1.00
C268   C     0.40744   0.65680   0.16575   0.00000  Uiso   1.00
C269   C     0.40843   0.84435   0.16464   0.00000  Uiso   1.00
C270   C     0.09124   0.65519   0.16817   0.00000  Uiso   1.00
C271   C     0.34236   0.59348   0.16769   0.00000  Uiso   1.00
C272   C     0.15815   0.90613   0.16551   0.00000  Uiso   1.00
C273   C     0.15828   0.59418   0.16452   0.00000  Uiso   1.00
C274   C     0.05960   0.80924   0.16702   0.00000  Uiso   1.00
C275   C     0.34088   0.90484   0.16825   0.00000  Uiso   1.00
C276   C     0.35996   0.70414   0.11527   0.00000  Uiso   1.00
C277   C     0.13914   0.79781   0.22195   0.00000  Uiso   1.00
C278   C     0.04487   0.88577   0.11124   0.00000  Uiso   1.00
C279   C     0.45972   0.61162   0.21374   0.00000  Uiso   1.00
C280   C     0.11992   0.67983   0.24783   0.00000  Uiso   1.00
C281   C     0.37873   0.81801   0.08557   0.00000  Uiso   1.00
C282   C     0.44397   0.87682   0.23789   0.00000  Uiso   1.00
C283   C     0.05583   0.62599   0.09396   0.00000  Uiso   1.00
C284   C     0.11369   0.95069   0.10929   0.00000  Uiso   1.00
C285   C     0.30869   0.93976   0.16717   0.00000  Uiso   1.00
C286   C     0.39251   0.54378   0.21201   0.00000  Uiso   1.00
C287   C     0.28732   0.64245   0.12840   0.00000  Uiso   1.00
C288   C     0.20648   0.86486   0.22194   0.00000  Uiso   1.00
C289   C     0.36712   0.92678   0.24986   0.00000  Uiso   1.00
C290   C     0.12547   0.56483   0.08806   0.00000  Uiso   1.00
C291   C     0.19657   0.62894   0.23481   0.00000  Uiso   1.00
C292   C     0.30717   0.87687   0.09261   0.00000  Uiso   1.00
C293   C     0.19078   0.55969   0.16605   0.00000  Uiso   1.00
C294   C     0.19106   0.94022   0.16633   0.00000  Uiso   1.00
C295   C     0.30921   0.55957   0.16701   0.00000  Uiso   1.00
C296   C     0.49599   0.71249   0.02473   0.00000  Uiso   1.00
Cu297  Cu    0.00000   0.75000   0.21355   0.00000  Uiso   1.00
Cu298  Cu    0.00000   0.75000   0.11978   0.00000  Uiso   1.00
Cu299  Cu    0.25000   0.50000   0.21355   0.00000  Uiso   1.00
Cu300  Cu    0.25000   0.50000   0.11978   0.00000  Uiso   1.00
H301   H     0.49249   0.68249   0.04336   0.00000  Uiso   1.00
H302   H     0.11618   0.78809   0.24849   0.00000  Uiso   1.00
H303   H     0.04521   0.89574   0.07485   0.00000  Uiso   1.00
H304   H     0.48920   0.62551   0.19910   0.00000  Uiso   1.00
H305   H     0.11760   0.71418   0.24433   0.00000  Uiso   1.00
H306   H     0.40794   0.81715   0.06456   0.00000  Uiso   1.00
H307   H     0.43795   0.88015   0.27501   0.00000  Uiso   1.00
H308   H     0.02186   0.62769   0.10457   0.00000  Uiso   1.00
H309   H     0.12132   0.98129   0.12568   0.00000  Uiso   1.00
H310   H     0.37096   0.53191   0.23881   0.00000  Uiso   1.00
H311   H     0.26607   0.61739   0.11427   0.00000  Uiso   1.00
H312   H     0.00709   0.81756   0.28999   0.00000  Uiso   1.00
H313   H     0.23723   0.87646   0.20793   0.00000  Uiso   1.00
H314   H     0.36693   0.96132   0.24808   0.00000  Uiso   1.00
H315   H     0.15416   0.56158   0.06660   0.00000  Uiso   1.00
H316   H     0.19215   0.63466   0.27185   0.00000  Uiso   1.00
H317   H     0.27301   0.87777   0.10271   0.00000  Uiso   1.00
H318   H     0.00663   0.81763   0.04362   0.00000  Uiso   1.00
H319   H     0.49325   0.68237   0.28970   0.00000  Uiso   1.00
H320   H     0.24311   0.93244   0.04337   0.00000  Uiso   1.00
H321   H     0.25616   0.56765   0.28993   0.00000  Uiso   1.00
H322   H     0.25590   0.56769   0.04358   0.00000  Uiso   1.00
H323   H     0.24410   0.93233   0.28974   0.00000  Uiso   1.00
H324   H     0.37321   0.73424   0.12861   0.00000  Uiso   1.00
N325   N     0.00000   0.75000   0.28402   0.00000  Uiso   1.00
N326   N     0.00000   0.75000   0.04931   0.00000  Uiso   1.00
N327   N     0.25000   0.50000   0.28402   0.00000  Uiso   1.00
N328   N     0.25000   0.50000   0.04931   0.00000  Uiso   1.00
O329   O     0.04509   0.70491   0.20625   0.00000  Uiso   1.00
O330   O     0.20492   0.54509   0.12709   0.00000  Uiso   1.00
O331   O     0.20492   0.54509   0.20625   0.00000  Uiso   1.00
O332   O     0.29509   0.95491   0.12709   0.00000  Uiso   1.00
O333   O     0.20492   0.95491   0.12709   0.00000  Uiso   1.00
O334   O     0.29509   0.54509   0.20625   0.00000  Uiso   1.00
O335   O     0.29509   0.54509   0.12709   0.00000  Uiso   1.00
O336   O     0.20492   0.95491   0.20625   0.00000  Uiso   1.00
O337   O     0.34111   0.70350   0.07701   0.00000  Uiso   1.00
O338   O     0.17109   0.77557   0.21458   0.00000  Uiso   1.00
O339   O     0.00944   0.88048   0.12964   0.00000  Uiso   1.00
O340   O     0.45492   0.79509   0.12709   0.00000  Uiso   1.00
O341   O     0.46294   0.59212   0.25080   0.00000  Uiso   1.00
O342   O     0.11866   0.66387   0.28690   0.00000  Uiso   1.00
O343   O     0.34700   0.79614   0.07351   0.00000  Uiso   1.00
O344   O     0.48193   0.87788   0.22499   0.00000  Uiso   1.00
O345   O     0.06393   0.62590   0.05221   0.00000  Uiso   1.00
O346   O     0.10236   0.94965   0.06797   0.00000  Uiso   1.00
O347   O     0.42377   0.52231   0.20027   0.00000  Uiso   1.00
O348   O     0.27205   0.67837   0.13212   0.00000  Uiso   1.00
O349   O     0.20678   0.84936   0.26129   0.00000  Uiso   1.00
O350   O     0.36285   0.90926   0.28782   0.00000  Uiso   1.00
O351   O     0.45492   0.79509   0.20625   0.00000  Uiso   1.00
O352   O     0.09253   0.54400   0.07763   0.00000  Uiso   1.00
O353   O     0.23398   0.62807   0.22035   0.00000  Uiso   1.00
O354   O     0.31587   0.87790   0.05102   0.00000  Uiso   1.00
O355   O     0.04509   0.70491   0.12709   0.00000  Uiso   1.00
O356   O     0.45492   0.70491   0.12709   0.00000  Uiso   1.00
O357   O     0.04509   0.79509   0.20625   0.00000  Uiso   1.00
O358   O     0.04509   0.79509   0.12709   0.00000  Uiso   1.00
O359   O     0.45492   0.70491   0.20625   0.00000  Uiso   1.00
O360   O     0.29509   0.95491   0.20625   0.00000  Uiso   1.00
C361   C     0.55888   0.68996   0.16716   0.00000  Uiso   1.00
C362   C     0.50386   0.78753   0.30860   0.00000  Uiso   1.00
C363   C     0.50377   0.78754   0.02488   0.00000  Uiso   1.00
C364   C     0.99619   0.71246   0.30845   0.00000  Uiso   1.00
C365   C     0.74636   0.96246   0.02474   0.00000  Uiso   1.00
C366   C     0.75338   0.53757   0.30857   0.00000  Uiso   1.00
C367   C     0.75334   0.53758   0.02486   0.00000  Uiso   1.00
C368   C     0.74663   0.96243   0.30847   0.00000  Uiso   1.00
C369   C     0.86673   0.66399   0.14248   0.00000  Uiso   1.00
C370   C     0.63172   0.83786   0.19494   0.00000  Uiso   1.00
C371   C     0.58677   0.87935   0.13836   0.00000  Uiso   1.00
C372   C     0.94093   0.80984   0.16607   0.00000  Uiso   1.00
C373   C     0.91613   0.61810   0.18975   0.00000  Uiso   1.00
C374   C     0.62265   0.65228   0.20553   0.00000  Uiso   1.00
C375   C     0.87681   0.84667   0.12726   0.00000  Uiso   1.00
C376   C     0.90673   0.87291   0.20307   0.00000  Uiso   1.00
C377   C     0.59185   0.62590   0.13032   0.00000  Uiso   1.00
C378   C     0.62003   0.91072   0.13689   0.00000  Uiso   1.00
C379   C     0.88354   0.58590   0.18984   0.00000  Uiso   1.00
C380   C     0.83308   0.63291   0.14532   0.00000  Uiso   1.00
C381   C     0.66465   0.86965   0.19405   0.00000  Uiso   1.00
C382   C     0.87118   0.90086   0.20653   0.00000  Uiso   1.00
C383   C     0.94072   0.69053   0.16634   0.00000  Uiso   1.00
C384   C     0.62552   0.59543   0.12821   0.00000  Uiso   1.00
C385   C     0.65800   0.62405   0.20183   0.00000  Uiso   1.00
C386   C     0.84263   0.87655   0.12957   0.00000  Uiso   1.00
C387   C     0.59276   0.84315   0.16768   0.00000  Uiso   1.00
C388   C     0.90744   0.65680   0.16575   0.00000  Uiso   1.00
C389   C     0.90843   0.84435   0.16464   0.00000  Uiso   1.00
C390   C     0.59124   0.65519   0.16817   0.00000  Uiso   1.00
C391   C     0.84236   0.59348   0.16769   0.00000  Uiso   1.00
C392   C     0.65815   0.90613   0.16551   0.00000  Uiso   1.00
C393   C     0.65828   0.59418   0.16452   0.00000  Uiso   1.00
C394   C     0.55960   0.80924   0.16702   0.00000  Uiso   1.00
C395   C     0.84088   0.90484   0.16825   0.00000  Uiso   1.00
C396   C     0.85996   0.70414   0.11527   0.00000  Uiso   1.00
C397   C     0.63914   0.79781   0.22195   0.00000  Uiso   1.00
C398   C     0.54487   0.88577   0.11124   0.00000  Uiso   1.00
C399   C     0.95972   0.61162   0.21374   0.00000  Uiso   1.00
C400   C     0.61992   0.67983   0.24783   0.00000  Uiso   1.00
C401   C     0.87873   0.81801   0.08557   0.00000  Uiso   1.00
C402   C     0.94397   0.87682   0.23789   0.00000  Uiso   1.00
C403   C     0.55583   0.62599   0.09396   0.00000  Uiso   1.00
C404   C     0.61369   0.95069   0.10929   0.00000  Uiso   1.00
C405   C     0.80869   0.93976   0.16717   0.00000  Uiso   1.00
C406   C     0.89251   0.54378   0.21201   0.00000  Uiso   1.00
C407   C     0.78732   0.64245   0.12840   0.00000  Uiso   1.00
C408   C     0.70648   0.86486   0.22194   0.00000  Uiso   1.00
C409   C     0.86712   0.92678   0.24986   0.00000  Uiso   1.00
C410   C     0.62547   0.56483   0.08806   0.00000  Uiso   1.00
C411   C     0.69657   0.62894   0.23481   0.00000  Uiso   1.00
C412   C     0.80717   0.87687   0.09261   0.00000  Uiso   1.00
C413   C     0.69078   0.55969   0.16605   0.00000  Uiso   1.00
C414   C     0.69106   0.94022   0.16633   0.00000  Uiso   1.00
C415   C     0.80921   0.55957   0.16701   0.00000  Uiso   1.00
C416   C     0.99599   0.71249   0.02473   0.00000  Uiso   1.00
Cu417  Cu    0.50000   0.75000   0.21355   0.00000  Uiso   1.00
Cu418  Cu    0.50000   0.75000   0.11978   0.00000  Uiso   1.00
Cu419  Cu    0.75000   0.50000   0.21355   0.00000  Uiso   1.00
Cu420  Cu    0.75000   0.50000   0.11978   0.00000  Uiso   1.00
H421   H     0.99249   0.68249   0.04336   0.00000  Uiso   1.00
H422   H     0.61618   0.78809   0.24849   0.00000  Uiso   1.00
H423   H     0.54521   0.89574   0.07485   0.00000  Uiso   1.00
H424   H     0.98920   0.62551   0.19910   0.00000  Uiso   1.00
H425   H     0.61760   0.71418   0.24433   0.00000  Uiso   1.00
H426   H     0.90794   0.81715   0.06456   0.00000  Uiso   1.00
H427   H     0.93795   0.88015   0.27501   0.00000  Uiso   1.00
H428   H     0.52186   0.62769   0.10457   0.00000  Uiso   1.00
H429   H     0.62132   0.98129   0.12568   0.00000  Uiso   1.00
H430   H     0.87096   0.53191   0.23881   0.00000  Uiso   1.00
H431   H     0.76607   0.61739   0.11427   0.00000  Uiso   1.00
H432   H     0.50709   0.81756   0.28999   0.00000  Uiso   1.00
H433   H     0.73723   0.87646   0.20793   0.00000  Uiso   1.00
H434   H     0.86693   0.96132   0.24808   0.00000  Uiso   1.00
H435   H     0.65416   0.56158   0.06660   0.00000  Uiso   1.00
H436   H     0.69215   0.63466   0.27185   0.00000  Uiso   1.00
H437   H     0.77301   0.87777   0.10271   0.00000  Uiso   1.00
H438   H     0.50663   0.81763   0.04362   0.00000  Uiso   1.00
H439   H     0.99325   0.68237   0.28970   0.00000  Uiso   1.00
H440   H     0.74311   0.93244   0.04337   0.00000  Uiso   1.00
H441   H     0.75616   0.56765   0.28993   0.00000  Uiso   1.00
H442   H     0.75590   0.56769   0.04358   0.00000  Uiso   1.00
H443   H     0.74410   0.93233   0.28974   0.00000  Uiso   1.00
H444   H     0.87321   0.73424   0.12861   0.00000  Uiso   1.00
N445   N     0.50000   0.75000   0.28402   0.00000  Uiso   1.00
N446   N     0.50000   0.75000   0.04931   0.00000  Uiso   1.00
N447   N     0.75000   0.50000   0.28402   0.00000  Uiso   1.00
N448   N     0.75000   0.50000   0.04931   0.00000  Uiso   1.00
O449   O     0.54509   0.70491   0.20625   0.00000  Uiso   1.00
O450   O     0.70492   0.54509   0.12709   0.00000  Uiso   1.00
O451   O     0.70492   0.54509   0.20625   0.00000  Uiso   1.00
O452   O     0.79509   0.95491   0.12709   0.00000  Uiso   1.00
O453   O     0.70492   0.95491   0.12709   0.00000  Uiso   1.00
O454   O     0.79509   0.54509   0.20625   0.00000  Uiso   1.00
O455   O     0.79509   0.54509   0.12709   0.00000  Uiso   1.00
O456   O     0.70492   0.95491   0.20625   0.00000  Uiso   1.00
O457   O     0.84111   0.70350   0.07701   0.00000  Uiso   1.00
O458   O     0.67109   0.77557   0.21458   0.00000  Uiso   1.00
O459   O     0.50944   0.88048   0.12964   0.00000  Uiso   1.00
O460   O     0.95492   0.79509   0.12709   0.00000  Uiso   1.00
O461   O     0.96294   0.59212   0.25080   0.00000  Uiso   1.00
O462   O     0.61866   0.66387   0.28690   0.00000  Uiso   1.00
O463   O     0.84700   0.79614   0.07351   0.00000  Uiso   1.00
O464   O     0.98193   0.87788   0.22499   0.00000  Uiso   1.00
O465   O     0.56393   0.62590   0.05221   0.00000  Uiso   1.00
O466   O     0.60236   0.94965   0.06797   0.00000  Uiso   1.00
O467   O     0.92377   0.52231   0.20027   0.00000  Uiso   1.00
O468   O     0.77205   0.67837   0.13212   0.00000  Uiso   1.00
O469   O     0.70678   0.84936   0.26129   0.00000  Uiso   1.00
O470   O     0.86285   0.90926   0.28782   0.00000  Uiso   1.00
O471   O     0.95492   0.79509   0.20625   0.00000  Uiso   1.00
O472   O     0.59253   0.54400   0.07763   0.00000  Uiso   1.00
O473   O     0.73398   0.62807   0.22035   0.00000  Uiso   1.00
O474   O     0.81587   0.87790   0.05102   0.00000  Uiso   1.00
O475   O     0.54509   0.70491   0.12709   0.00000  Uiso   1.00
O476   O     0.95492   0.70491   0.12709   0.00000  Uiso   1.00
O477   O     0.54509   0.79509   0.20625   0.00000  Uiso   1.00
O478   O     0.54509   0.79509   0.12709   0.00000  Uiso   1.00
O479   O     0.95492   0.70491   0.20625   0.00000  Uiso   1.00
O480   O     0.79509   0.95491   0.20625   0.00000  Uiso   1.00
C481   C     0.05888   0.18996   0.50049   0.00000  Uiso   1.00
C482   C     0.00386   0.28753   0.64193   0.00000  Uiso   1.00
C483   C     0.00377   0.28754   0.35821   0.00000  Uiso   1.00
C484   C     0.49619   0.21246   0.64178   0.00000  Uiso   1.00
C485   C     0.24636   0.46246   0.35808   0.00000  Uiso   1.00
C486   C     0.25338   0.03757   0.64191   0.00000  Uiso   1.00
C487   C     0.25334   0.03758   0.35820   0.00000  Uiso   1.00
C488   C     0.24663   0.46243   0.64180   0.00000  Uiso   1.00
C489   C     0.36673   0.16399   0.47581   0.00000  Uiso   1.00
C490   C     0.13172   0.33786   0.52827   0.00000  Uiso   1.00
C491   C     0.08677   0.37935   0.47170   0.00000  Uiso   1.00
C492   C     0.44093   0.30984   0.49941   0.00000  Uiso   1.00
C493   C     0.41613   0.11810   0.52308   0.00000  Uiso   1.00
C494   C     0.12265   0.15228   0.53886   0.00000  Uiso   1.00
C495   C     0.37681   0.34667   0.46059   0.00000  Uiso   1.00
C496   C     0.40673   0.37291   0.53641   0.00000  Uiso   1.00
C497   C     0.09185   0.12590   0.46365   0.00000  Uiso   1.00
C498   C     0.12003   0.41072   0.47022   0.00000  Uiso   1.00
C499   C     0.38354   0.08590   0.52317   0.00000  Uiso   1.00
C500   C     0.33308   0.13291   0.47866   0.00000  Uiso   1.00
C501   C     0.16465   0.36965   0.52738   0.00000  Uiso   1.00
C502   C     0.37118   0.40086   0.53986   0.00000  Uiso   1.00
C503   C     0.44072   0.19053   0.49967   0.00000  Uiso   1.00
C504   C     0.12552   0.09543   0.46154   0.00000  Uiso   1.00
C505   C     0.15800   0.12405   0.53517   0.00000  Uiso   1.00
C506   C     0.34263   0.37655   0.46290   0.00000  Uiso   1.00
C507   C     0.09276   0.34315   0.50102   0.00000  Uiso   1.00
C508   C     0.40744   0.15680   0.49908   0.00000  Uiso   1.00
C509   C     0.40843   0.34435   0.49798   0.00000  Uiso   1.00
C510   C     0.09124   0.15519   0.50150   0.00000  Uiso   1.00
C511   C     0.34236   0.09348   0.50102   0.00000  Uiso   1.00
C512   C     0.15815   0.40613   0.49885   0.00000  Uiso   1.00
C513   C     0.15828   0.09418   0.49786   0.00000  Uiso   1.00
C514   C     0.05960   0.30924   0.50035   0.00000  Uiso   1.00
C515   C     0.34088   0.40484   0.50159   0.00000  Uiso   1.00
C516   C     0.35996   0.20414   0.44860   0.00000  Uiso   1.00
C517   C     0.13914   0.29781   0.55528   0.00000  Uiso   1.00
C518   C     0.04487   0.38577   0.44457   0.00000  Uiso   1.00
C519   C     0.45972   0.11162   0.54707   0.00000  Uiso   1.00
C520   C     0.11992   0.17983   0.58117   0.00000  Uiso   1.00
C521   C     0.37873   0.31801   0.41890   0.00000  Uiso   1.00
C522   C     0.44397   0.37682   0.57122   0.00000  Uiso   1.00
C523   C     0.05583   0.12599   0.42730   0.00000  Uiso   1.00
C524   C     0.11369   0.45069   0.44263   0.00000  Uiso   1.00
C525   C     0.30869   0.43976   0.50051   0.00000  Uiso   1.00
C526   C     0.39251   0.04378   0.54535   0.00000  Uiso   1.00
C527   C     0.28732   0.14245   0.46173   0.00000  Uiso   1.00
C528   C     0.20648   0.36486   0.55528   0.00000  Uiso   1.00
C529   C     0.36712   0.42678   0.58320   0.00000  Uiso   1.00
C530   C     0.12547   0.06483   0.42139   0.00000  Uiso   1.00
C531   C     0.19657   0.12894   0.56815   0.00000  Uiso   1.00
C532   C     0.30717   0.37687   0.42594   0.00000  Uiso   1.00
C533   C     0.19078   0.05969   0.49938   0.00000  Uiso   1.00
C534   C     0.19106   0.44022   0.49966   0.00000  Uiso   1.00
C535   C     0.30921   0.05957   0.50034   0.00000  Uiso   1.00
C536   C     0.49599   0.21249   0.35807   0.00000  Uiso   1.00
Cu537  Cu    0.00000   0.25000   0.54689   0.00000  Uiso   1.00
Cu538  Cu    0.00000   0.25000   0.45311   0.00000  Uiso   1.00
Cu539  Cu    0.25000   0.00000   0.54689   0.00000  Uiso   1.00
Cu540  Cu    0.25000   0.00000   0.45311   0.00000  Uiso   1.00
H541   H     0.49249   0.18249   0.37669   0.00000  Uiso   1.00
H542   H     0.11618   0.28809   0.58182   0.00000  Uiso   1.00
H543   H     0.04521   0.39574   0.40819   0.00000  Uiso   1.00
H544   H     0.48920   0.12551   0.53244   0.00000  Uiso   1.00
H545   H     0.11760   0.21418   0.57766   0.00000  Uiso   1.00
H546   H     0.40794   0.31715   0.39789   0.00000  Uiso   1.00
H547   H     0.43795   0.38015   0.60834   0.00000  Uiso   1.00
H548   H     0.02186   0.12769   0.43791   0.00000  Uiso   1.00
H549   H     0.12132   0.48129   0.45901   0.00000  Uiso   1.00
H550   H     0.37096   0.03191   0.57214   0.00000  Uiso   1.00
H551   H     0.26607   0.11739   0.44761   0.00000  Uiso   1.00
H552   H     0.00709   0.31756   0.62332   0.00000  Uiso   1.00
H553   H     0.23723   0.37646   0.54126   0.00000  Uiso   1.00
H554   H     0.36693   0.46132   0.58142   0.00000  Uiso   1.00
H555   H     0.15416   0.06158   0.39993   0.00000  Uiso   1.00
H556   H     0.19215   0.13466   0.60518   0.00000  Uiso   1.00
H557   H     0.27301   0.37777   0.43604   0.00000  Uiso   1.00
H558   H     0.00663   0.31763   0.37695   0.00000  Uiso   1.00
H559   H     0.49325   0.18237   0.62303   0.00000  Uiso   1.00
H560   H     0.24311   0.43244   0.37670   0.00000  Uiso   1.00
H561   H     0.25616   0.06765   0.62326   0.00000  Uiso   1.00
H562   H     0.25590   0.06769   0.37691   0.00000  Uiso   1.00
H563   H     0.24410   0.43233   0.62307   0.00000  Uiso   1.00
H564   H     0.37321   0.23424   0.46195   0.00000  Uiso   1.00
N565   N     0.00000   0.25000   0.61736   0.00000  Uiso   1.00
N566   N     0.00000   0.25000   0.38264   0.00000  Uiso   1.00
N567   N     0.25000   0.00000   0.61736   0.00000  Uiso   1.00
N568   N     0.25000   0.00000   0.38264   0.00000  Uiso   1.00
O569   O     0.04509   0.20491   0.53958   0.00000  Uiso   1.00
O570   O     0.20492   0.04509   0.46042   0.00000  Uiso   1.00
O571   O     0.20492   0.04509   0.53958   0.00000  Uiso   1.00
O572   O     0.29509   0.45491   0.46042   0.00000  Uiso   1.00
O573   O     0.20492   0.45491   0.46042   0.00000  Uiso   1.00
O574   O     0.29509   0.04509   0.53958   0.00000  Uiso   1.00
O575   O     0.29509   0.04509   0.46042   0.00000  Uiso   1.00
O576   O     0.20492   0.45491   0.53958   0.00000  Uiso   1.00
O577   O     0.34111   0.20350   0.41034   0.00000  Uiso   1.00
O578   O     0.17109   0.27557   0.54791   0.00000  Uiso   1.00
O579   O     0.00944   0.38048   0.46297   0.00000  Uiso   1.00
O580   O     0.45492   0.29509   0.46042   0.00000  Uiso   1.00
O581   O     0.46294   0.09212   0.58413   0.00000  Uiso   1.00
O582   O     0.11866   0.16387   0.62024   0.00000  Uiso   1.00
O583   O     0.34700   0.29614   0.40685   0.00000  Uiso   1.00
O584   O     0.48193   0.37788   0.55832   0.00000  Uiso   1.00
O585   O     0.06393   0.12590   0.38554   0.00000  Uiso   1.00
O586   O     0.10236   0.44965   0.40130   0.00000  Uiso   1.00
O587   O     0.42377   0.02231   0.53361   0.00000  Uiso   1.00
O588   O     0.27205   0.17837   0.46545   0.00000  Uiso   1.00
O589   O     0.20678   0.34936   0.59462   0.00000  Uiso   1.00
O590   O     0.36285   0.40926   0.62115   0.00000  Uiso   1.00
O591   O     0.45492   0.29509   0.53958   0.00000  Uiso   1.00
O592   O     0.09253   0.04400   0.41096   0.00000  Uiso   1.00
O593   O     0.23398   0.12807   0.55368   0.00000  Uiso   1.00
O594   O     0.31587   0.37790   0.38436   0.00000  Uiso   1.00
O595   O     0.04509   0.20491   0.46042   0.00000  Uiso   1.00
O596   O     0.45492   0.20491   0.46042   0.00000  Uiso   1.00
O597   O     0.04509   0.29509   0.53958   0.00000  Uiso   1.00
O598   O     0.04509   0.29509   0.46042   0.00000  Uiso   1.00
O599   O     0.45492   0.20491   0.53958   0.00000  Uiso   1.00
O600   O     0.29509   0.45491   0.53958   0.00000  Uiso   1.00
C601   C     0.55888   0.18996   0.50049   0.00000  Uiso   1.00
C602   C     0.50386   0.28753   0.64193   0.00000  Uiso   1.00
C603   C     0.50377   0.28754   0.35821   0.00000  Uiso   1.00
C604   C     0.99619   0.21246   0.64178   0.00000  Uiso   1.00
C605   C     0.74636   0.46246   0.35808   0.00000  Uiso   1.00
C606   C     0.75338   0.03757   0.64191   0.00000  Uiso   1.00
C607   C     0.75334   0.03758   0.35820   0.00000  Uiso   1.00
C608   C     0.74663   0.46243   0.64180   0.00000  Uiso   1.00
C609   C     0.86673   0.16399   0.47581   0.00000  Uiso   1.00
C610   C     0.63172   0.33786   0.52827   0.00000  Uiso   1.00
C611   C     0.58677   0.37935   0.47170   0.00000  Uiso   1.00
C612   C     0.94093   0.30984   0.49941   0.00000  Uiso   1.00
C613   C     0.91613   0.11810   0.52308   0.00000  Uiso   1.00
C614   C     0.62265   0.15228   0.53886   0.00000  Uiso   1.00
C615   C     0.87681   0.34667   0.46059   0.00000  Uiso   1.00
C616   C     0.90673   0.37291   0.53641   0.00000  Uiso   1.00
C617   C     0.59185   0.12590   0.46365   0.00000  Uiso   1.00
C618   C     0.62003   0.41072   0.47022   0.00000  Uiso   1.00
C619   C     0.88354   0.08590   0.52317   0.00000  Uiso   1.00
C620   C     0.83308   0.13291   0.47866   0.00000  Uiso   1.00
C621   C     0.66465   0.36965   0.52738   0.00000  Uiso   1.00
C622   C     0.87118   0.40086   0.53986   0.00000  Uiso   1.00
C623   C     0.94072   0.19053   0.49967   0.00000  Uiso   1.00
C624   C     0.62552   0.09543   0.46154   0.00000  Uiso   1.00
C625   C     0.65800   0.12405   0.53517   0.00000  Uiso   1.00
C626   C     0.84263   0.37655   0.46290   0.00000  Uiso   1.00
C627   C     0.59276   0.34315   0.50102   0.00000  Uiso   1.00
C628   C     0.90744   0.15680   0.49908   0.00000  Uiso   1.00
C629   C     0.90843   0.34435   0.49798   0.00000  Uiso   1.00
C630   C     0.59124   0.15519   0.50150   0.00000  Uiso   1.00
C631   C     0.84236   0.09348   0.50102   0.00000  Uiso   1.00
C632   C     0.65815   0.40613   0.49885   0.00000  Uiso   1.00
C633   C     0.65828   0.09418   0.49786   0.00000  Uiso   1.00
C634   C     0.55960   0.30924   0.50035   0.00000  Uiso   1.00
C635   C     0.84088   0.40484   0.50159   0.00000  Uiso   1.00
C636   C     0.85996   0.20414   0.44860   0.00000  Uiso   1.00
C637   C     0.63914   0.29781   0.55528   0.00000  Uiso   1.00
C638   C     0.54487   0.38577   0.44457   0.00000  Uiso   1.00
C639   C     0.95972   0.11162   0.54707   0.00000  Uiso   1.00
C640   C     0.61992   0.17983   0.58117   0.00000  Uiso   1.00
C641   C     0.87873   0.31801   0.41890   0.00000  Uiso   1.00
C642   C     0.94397   0.37682   0.57122   0.00000  Uiso   1.00
C643   C     0.55583   0.12599   0.42730   0.00000  Uiso   1.00
C644   C     0.61369   0.45069   0.44263   0.00000  Uiso   1.00
C645   C     0.80869   0.43976   0.50051   0.00000  Uiso   1.00
C646   C     0.89251   0.04378   0.54535   0.00000  Uiso   1.00
C647   C     0.78732   0.14245   0.46173   0.00000  Uiso   1.00
C648   C     0.70648   0.36486   0.55528   0.00000  Uiso   1.00
C649   C     0.86712   0.42678   0.58320   0.00000  Uiso   1.00
C650   C     0.62547   0.06483   0.42139   0.00000  Uiso   1.00
C651   C     0.69657   0.12894   0.56815   0.00000  Uiso   1.00
C652   C     0.80717   0.37687   0.42594   0.00000  Uiso   1.00
C653   C     0.69078   0.05969   0.49938   0.00000  Uiso   1.00
C654   C     0.69106   0.44022   0.49966   0.00000  Uiso   1.00
C655   C     0.80921   0.05957   0.50034   0.00000  Uiso   1.00
C656   C     0.99599   0.21249   0.35807   0.00000  Uiso   1.00
Cu657  Cu    0.50000   0.25000   0.54689   0.00000  Uiso   1.00
Cu658  Cu    0.50000   0.25000   0.45311   0.00000  Uiso   1.00
Cu659  Cu    0.75000   0.00000   0.54689   0.00000  Uiso   1.00
Cu660  Cu    0.75000   0.00000   0.45311   0.00000  Uiso   1.00
H661   H     0.99249   0.18249   0.37669   0.00000  Uiso   1.00
H662   H     0.61618   0.28809   0.58182   0.00000  Uiso   1.00
H663   H     0.54521   0.39574   0.40819   0.00000  Uiso   1.00
H664   H     0.98920   0.12551   0.53244   0.00000  Uiso   1.00
H665   H     0.61760   0.21418   0.57766   0.00000  Uiso   1.00
H666   H     0.90794   0.31715   0.39789   0.00000  Uiso   1.00
H667   H     0.93795   0.38015   0.60834   0.00000  Uiso   1.00
H668   H     0.52186   0.12769   0.43791   0.00000  Uiso   1.00
H669   H     0.62132   0.48129   0.45901   0.00000  Uiso   1.00
H670   H     0.87096   0.03191   0.57214   0.00000  Uiso   1.00
H671   H     0.76607   0.11739   0.44761   0.00000  Uiso   1.00
H672   H     0.50709   0.31756   0.62332   0.00000  Uiso   1.00
H673   H     0.73723   0.37646   0.54126   0.00000  Uiso   1.00
H674   H     0.86693   0.46132   0.58142   0.00000  Uiso   1.00
H675   H     0.65416   0.06158   0.39993   0.00000  Uiso   1.00
H676   H     0.69215   0.13466   0.60518   0.00000  Uiso   1.00
H677   H     0.77301   0.37777   0.43604   0.00000  Uiso   1.00
H678   H     0.50663   0.31763   0.37695   0.00000  Uiso   1.00
H679   H     0.99325   0.18237   0.62303   0.00000  Uiso   1.00
H680   H     0.74311   0.43244   0.37670   0.00000  Uiso   1.00
H681   H     0.75616   0.06765   0.62326   0.00000  Uiso   1.00
H682   H     0.75590   0.06769   0.37691   0.00000  Uiso   1.00
H683   H     0.74410   0.43233   0.62307   0.00000  Uiso   1.00
H684   H     0.87321   0.23424   0.46195   0.00000  Uiso   1.00
N685   N     0.50000   0.25000   0.61736   0.00000  Uiso   1.00
N686   N     0.50000   0.25000   0.38264   0.00000  Uiso   1.00
N687   N     0.75000   0.00000   0.61736   0.00000  Uiso   1.00
N688   N     0.75000   0.00000   0.38264   0.00000  Uiso   1.00
O689   O     0.54509   0.20491   0.53958   0.00000  Uiso   1.00
O690   O     0.70492   0.04509   0.46042   0.00000  Uiso   1.00
O691   O     0.70492   0.04509   0.53958   0.00000  Uiso   1.00
O692   O     0.79509   0.45491   0.46042   0.00000  Uiso   1.00
O693   O     0.70492   0.45491   0.46042   0.00000  Uiso   1.00
O694   O     0.79509   0.04509   0.53958   0.00000  Uiso   1.00
O695   O     0.79509   0.04509   0.46042   0.00000  Uiso   1.00
O696   O     0.70492   0.45491   0.53958   0.00000  Uiso   1.00
O697   O     0.84111   0.20350   0.41034   0.00000  Uiso   1.00
O698   O     0.67109   0.27557   0.54791   0.00000  Uiso   1.00
O699   O     0.50944   0.38048   0.46297   0.00000  Uiso   1.00
O700   O     0.95492   0.29509   0.46042   0.00000  Uiso   1.00
O701   O     0.96294   0.09212   0.58413   0.00000  Uiso   1.00
O702   O     0.61866   0.16387   0.62024   0.00000  Uiso   1.00
O703   O     0.84700   0.29614   0.40685   0.00000  Uiso   1.00
O704   O     0.98193   0.37788   0.55832   0.00000  Uiso   1.00
O705   O     0.56393   0.12590   0.38554   0.00000  Uiso   1.00
O706   O     0.60236   0.44965   0.40130   0.00000  Uiso   1.00
O707   O     0.92377   0.02231   0.53361   0.00000  Uiso   1.00
O708   O     0.77205   0.17837   0.46545   0.00000  Uiso   1.00
O709   O     0.70678   0.34936   0.59462   0.00000  Uiso   1.00
O710   O     0.86285   0.40926   0.62115   0.00000  Uiso   1.00
O711   O     0.95492   0.29509   0.53958   0.00000  Uiso   1.00
O712   O     0.59253   0.04400   0.41096   0.00000  Uiso   1.00
O713   O     0.73398   0.12807   0.55368   0.00000  Uiso   1.00
O714   O     0.81587   0.37790   0.38436   0.00000  Uiso   1.00
O715   O     0.54509   0.20491   0.46042   0.00000  Uiso   1.00
O716   O     0.95492   0.20491   0.46042   0.00000  Uiso   1.00
O717   O     0.54509   0.29509   0.53958   0.00000  Uiso   1.00
O718   O     0.54509   0.29509   0.46042   0.00000  Uiso   1.00
O719   O     0.95492   0.20491   0.53958   0.00000  Uiso   1.00
O720   O     0.79509   0.45491   0.53958   0.00000  Uiso   1.00
C721   C     0.05888   0.68996   0.50049   0.00000  Uiso   1.00
C722   C     0.00386   0.78753   0.64193   0.00000  Uiso   1.00
C723   C     0.00377   0.78754   0.35821   0.00000  Uiso   1.00
C724   C     0.49619   0.71246   0.64178   0.00000  Uiso   1.00
C725   C     0.24636   0.96246   0.35808   0.00000  Uiso   1.00
C726   C     0.25338   0.53757   0.64191   0.00000  Uiso   1.00
C727   C     0.25334   0.53758   0.35820   0.00000  Uiso   1.00
C728   C     0.24663   0.96243   0.64180   0.00000  Uiso   1.00
C729   C     0.36673   0.66399   0.47581   0.00000  Uiso   1.00
C730   C     0.13172   0.83786   0.52827   0.00000  Uiso   1.00
C731   C     0.08677   0.87935   0.47170   0.00000  Uiso   1.00
C732   C     0.44093   0.80984   0.49941   0.00000  Uiso   1.00
C733   C     0.41613   0.61810   0.52308   0.00000  Uiso   1.00
C734   C     0.12265   0.65228   0.53886   0.00000  Uiso   1.00
C735   C     0.37681   0.84667   0.46059   0.00000  Uiso   1.00
C736   C     0.40673   0.87291   0.53641   0.00000  Uiso   1.00
C737   C     0.09185   0.62590   0.46365   0.00000  Uiso   1.00
C738   C     0.12003   0.91072   0.47022   0.00000  Uiso   1.00
C739   C     0.38354   0.58590   0.52317   0.00000  Uiso   1.00
C740   C     0.33308   0.63291   0.47866   0.00000  Uiso   1.00
C741   C     0.16465   0.86965   0.52738   0.00000  Uiso   1.00
C742   C     0.37118   0.90086   0.53986   0.00000  Uiso   1.00
C743   C     0.44072   0.69053   0.49967   0.00000  Uiso   1.00
C744   C     0.12552   0.59543   0.46154   0.00000  Uiso   1.00
C745   C     0.15800   0.62405   0.53517   0.00000  Uiso   1.00
C746   C     0.34263   0.87655   0.46290   0.00000  Uiso   1.00
C747   C     0.09276   0.84315   0.50102   0.00000  Uiso   1.00
C748   C     0.40744   0.65680   0.49908   0.00000  Uiso   1.00
C749   C     0.40843   0.84435   0.49798   0.00000  Uiso   1.00
C750   C     0.09124   0.65519   0.50150   0.00000  Uiso   1.00
C751   C     0.34236   0.59348   0.50102   0.00000  Uiso   1.00
C752   C     0.15815   0.90613   0.49885   0.00000  Uiso   1.00
C753   C     0.15828   0.59418   0.49786   0.00000  Uiso   1.00
C754   C     0.05960   0.80924   0.50035   0.00000  Uiso   1.00
C755   C     0.34088   0.90484   0.50159   0.00000  Uiso   1.00
C756   C     0.35996   0.70414   0.44860   0.00000  Uiso   1.00
C757   C     0.13914   0.79781   0.55528   0.00000  Uiso   1.00
C758   C     0.04487   0.88577   0.44457   0.00000  Uiso   1.00
C759   C     0.45972   0.61162   0.54707   0.00000  Uiso   1.00
C760   C     0.11992   0.67983   0.58117   0.00000  Uiso   1.00
C761   C     0.37873   0.81801   0.41890   0.00000  Uiso   1.00
C762   C     0.44397   0.87682   0.57122   0.00000  Uiso   1.00
C763   C     0.05583   0.62599   0.42730   0.00000  Uiso   1.00
C764   C     0.11369   0.95069   0.44263   0.00000  Uiso   1.00
C765   C     0.30869   0.93976   0.50051   0.00000  Uiso   1.00
C766   C     0.39251   0.54378   0.54535   0.00000  Uiso   1.00
C767   C     0.28732   0.64245   0.46173   0.00000  Uiso   1.00
C768   C     0.20648   0.86486   0.55528   0.00000  Uiso   1.00
C769   C     0.36712   0.92678   0.58320   0.00000  Uiso   1.00
C770   C     0.12547   0.56483   0.42139   0.00000  Uiso   1.00
C771   C     0.19657   0.62894   0.56815   0.00000  Uiso   1.00
C772   C     0.30717   0.87687   0.42594   0.00000  Uiso   1.00
C773   C     0.19078   0.55969   0.49938   0.00000  Uiso   1.00
C774   C     0.19106   0.94022   0.49966   0.00000  Uiso   1.00
C775   C     0.30921   0.55957   0.50034   0.00000  Uiso   1.00
C776   C     0.49599   0.71249   0.35807   0.00000  Uiso   1.00
Cu777  Cu    0.00000   0.75000   0.54689   0.00000  Uiso   1.00
Cu778  Cu    0.00000   0.75000   0.45311   0.00000  Uiso   1.00
Cu779  Cu    0.25000   0.50000   0.54689   0.00000  Uiso   1.00
Cu780  Cu    0.25000   0.50000   0.45311   0.00000  Uiso   1.00
H781   H     0.49249   0.68249   0.37669   0.00000  Uiso   1.00
H782   H     0.11618   0.78809   0.58182   0.00000  Uiso   1.00
H783   H     0.04521   0.89574   0.40819   0.00000  Uiso   1.00
H784   H     0.48920   0.62551   0.53244   0.00000  Uiso   1.00
H785   H     0.11760   0.71418   0.57766   0.00000  Uiso   1.00
H786   H     0.40794   0.81715   0.39789   0.00000  Uiso   1.00
H787   H     0.43795   0.88015   0.60834   0.00000  Uiso   1.00
H788   H     0.02186   0.62769   0.43791   0.00000  Uiso   1.00
H789   H     0.12132   0.98129   0.45901   0.00000  Uiso   1.00
H790   H     0.37096   0.53191   0.57214   0.00000  Uiso   1.00
H791   H     0.26607   0.61739   0.44761   0.00000  Uiso   1.00
H792   H     0.00709   0.81756   0.62332   0.00000  Uiso   1.00
H793   H     0.23723   0.87646   0.54126   0.00000  Uiso   1.00
H794   H     0.36693   0.96132   0.58142   0.00000  Uiso   1.00
H795   H     0.15416   0.56158   0.39993   0.00000  Uiso   1.00
H796   H     0.19215   0.63466   0.60518   0.00000  Uiso   1.00
H797   H     0.27301   0.87777   0.43604   0.00000  Uiso   1.00
H798   H     0.00663   0.81763   0.37695   0.00000  Uiso   1.00
H799   H     0.49325   0.68237   0.62303   0.00000  Uiso   1.00
H800   H     0.24311   0.93244   0.37670   0.00000  Uiso   1.00
H801   H     0.25616   0.56765   0.62326   0.00000  Uiso   1.00
H802   H     0.25590   0.56769   0.37691   0.00000  Uiso   1.00
H803   H     0.24410   0.93233   0.62307   0.00000  Uiso   1.00
H804   H     0.37321   0.73424   0.46195   0.00000  Uiso   1.00
N805   N     0.00000   0.75000   0.61736   0.00000  Uiso   1.00
N806   N     0.00000   0.75000   0.38264   0.00000  Uiso   1.00
N807   N     0.25000   0.50000   0.61736   0.00000  Uiso   1.00
N808   N     0.25000   0.50000   0.38264   0.00000  Uiso   1.00
O809   O     0.04509   0.70491   0.53958   0.00000  Uiso   1.00
O810   O     0.20492   0.54509   0.46042   0.00000  Uiso   1.00
O811   O     0.20492   0.54509   0.53958   0.00000  Uiso   1.00
O812   O     0.29509   0.95491   0.46042   0.00000  Uiso   1.00
O813   O     0.20492   0.95491   0.46042   0.00000  Uiso   1.00
O814   O     0.29509   0.54509   0.53958   0.00000  Uiso   1.00
O815   O     0.29509   0.54509   0.46042   0.00000  Uiso   1.00
O816   O     0.20492   0.95491   0.53958   0.00000  Uiso   1.00
O817   O     0.34111   0.70350   0.41034   0.00000  Uiso   1.00
O818   O     0.17109   0.77557   0.54791   0.00000  Uiso   1.00
O819   O     0.00944   0.88048   0.46297   0.00000  Uiso   1.00
O820   O     0.45492   0.79509   0.46042   0.00000  Uiso   1.00
O821   O     0.46294   0.59212   0.58413   0.00000  Uiso   1.00
O822   O     0.11866   0.66387   0.62024   0.00000  Uiso   1.00
O823   O     0.34700   0.79614   0.40685   0.00000  Uiso   1.00
O824   O     0.48193   0.87788   0.55832   0.00000  Uiso   1.00
O825   O     0.06393   0.62590   0.38554   0.00000  Uiso   1.00
O826   O     0.10236   0.94965   0.40130   0.00000  Uiso   1.00
O827   O     0.42377   0.52231   0.53361   0.00000  Uiso   1.00
O828   O     0.27205   0.67837   0.46545   0.00000  Uiso   1.00
O829   O     0.20678   0.84936   0.59462   0.00000  Uiso   1.00
O830   O     0.36285   0.90926   0.62115   0.00000  Uiso   1.00
O831   O     0.45492   0.79509   0.53958   0.00000  Uiso   1.00
O832   O     0.09253   0.54400   0.41096   0.00000  Uiso   1.00
O833   O     0.23398   0.62807   0.55368   0.00000  Uiso   1.00
O834   O     0.31587   0.87790   0.38436   0.00000  Uiso   1.00
O835   O     0.04509   0.70491   0.46042   0.00000  Uiso   1.00
O836   O     0.45492   0.70491   0.46042   0.00000  Uiso   1.00
O837   O     0.04509   0.79509   0.53958   0.00000  Uiso   1.00
O838   O     0.04509   0.79509   0.46042   0.00000  Uiso   1.00
O839   O     0.45492   0.70491   0.53958   0.00000  Uiso   1.00
O840   O     0.29509   0.95491   0.53958   0.00000  Uiso   1.00
C841   C     0.55888   0.68996   0.50049   0.00000  Uiso   1.00
C842   C     0.50386   0.78753   0.64193   0.00000  Uiso   1.00
C843   C     0.50377   0.78754   0.35821   0.00000  Uiso   1.00
C844   C     0.99619   0.71246   0.64178   0.00000  Uiso   1.00
C845   C     0.74636   0.96246   0.35808   0.00000  Uiso   1.00
C846   C     0.75338   0.53757   0.64191   0.00000  Uiso   1.00
C847   C     0.75334   0.53758   0.35820   0.00000  Uiso   1.00
C848   C     0.74663   0.96243   0.64180   0.00000  Uiso   1.00
C849   C     0.86673   0.66399   0.47581   0.00000  Uiso   1.00
C850   C     0.63172   0.83786   0.52827   0.00000  Uiso   1.00
C851   C     0.58677   0.87935   0.47170   0.00000  Uiso   1.00
C852   C     0.94093   0.80984   0.49941   0.00000  Uiso   1.00
C853   C     0.91613   0.61810   0.52308   0.00000  Uiso   1.00
C854   C     0.62265   0.65228   0.53886   0.00000  Uiso   1.00
C855   C     0.87681   0.84667   0.46059   0.00000  Uiso   1.00
C856   C     0.90673   0.87291   0.53641   0.00000  Uiso   1.00
C857   C     0.59185   0.62590   0.46365   0.00000  Uiso   1.00
C858   C     0.62003   0.91072   0.47022   0.00000  Uiso   1.00
C859   C     0.88354   0.58590   0.52317   0.00000  Uiso   1.00
C860   C     0.83308   0.63291   0.47866   0.00000  Uiso   1.00
C861   C     0.66465   0.86965   0.52738   0.00000  Uiso   1.00
C862   C     0.87118   0.90086   0.53986   0.00000  Uiso   1.00
C863   C     0.94072   0.69053   0.49967   0.00000  Uiso   1.00
C864   C     0.62552   0.59543   0.46154   0.00000  Uiso   1.00
C865   C     0.65800   0.62405   0.53517   0.00000  Uiso   1.00
C866   C     0.84263   0.87655   0.46290   0.00000  Uiso   1.00
C867   C     0.59276   0.84315   0.50102   0.00000  Uiso   1.00
C868   C     0.90744   0.65680   0.49908   0.00000  Uiso   1.00
C869   C     0.90843   0.84435   0.49798   0.00000  Uiso   1.00
C870   C     0.59124   0.65519   0.50150   0.00000  Uiso   1.00
C871   C     0.84236   0.59348   0.50102   0.00000  Uiso   1.00
C872   C     0.65815   0.90613   0.49885   0.00000  Uiso   1.00
C873   C     0.65828   0.59418   0.49786   0.00000  Uiso   1.00
C874   C     0.55960   0.80924   0.50035   0.00000  Uiso   1.00
C875   C     0.84088   0.90484   0.50159   0.00000  Uiso   1.00
C876   C     0.85996   0.70414   0.44860   0.00000  Uiso   1.00
C877   C     0.63914   0.79781   0.55528   0.00000  Uiso   1.00
C878   C     0.54487   0.88577   0.44457   0.00000  Uiso   1.00
C879   C     0.95972   0.61162   0.54707   0.00000  Uiso   1.00
C880   C     0.61992   0.67983   0.58117   0.00000  Uiso   1.00
C881   C     0.87873   0.81801   0.41890   0.00000  Uiso   1.00
C882   C     0.94397   0.87682   0.57122   0.00000  Uiso   1.00
C883   C     0.55583   0.62599   0.42730   0.00000  Uiso   1.00
C884   C     0.61369   0.95069   0.44263   0.00000  Uiso   1.00
C885   C     0.80869   0.93976   0.50051   0.00000  Uiso   1.00
C886   C     0.89251   0.54378   0.54535   0.00000  Uiso   1.00
C887   C     0.78732   0.64245   0.46173   0.00000  Uiso   1.00
C888   C     0.70648   0.86486   0.55528   0.00000  Uiso   1.00
C889   C     0.86712   0.92678   0.58320   0.00000  Uiso   1.00
C890   C     0.62547   0.56483   0.42139   0.00000  Uiso   1.00
C891   C     0.69657   0.62894   0.56815   0.00000  Uiso   1.00
C892   C     0.80717   0.87687   0.42594   0.00000  Uiso   1.00
C893   C     0.69078   0.55969   0.49938   0.00000  Uiso   1.00
C894   C     0.69106   0.94022   0.49966   0.00000  Uiso   1.00
C895   C     0.80921   0.55957   0.50034   0.00000  Uiso   1.00
C896   C     0.99599   0.71249   0.35807   0.00000  Uiso   1.00
Cu897  Cu    0.50000   0.75000   0.54689   0.00000  Uiso   1.00
Cu898  Cu    0.50000   0.75000   0.45311   0.00000  Uiso   1.00
Cu899  Cu    0.75000   0.50000   0.54689   0.00000  Uiso   1.00
Cu900  Cu    0.75000   0.50000   0.45311   0.00000  Uiso   1.00
H901   H     0.99249   0.68249   0.37669   0.00000  Uiso   1.00
H902   H     0.61618   0.78809   0.58182   0.00000  Uiso   1.00
H903   H     0.54521   0.89574   0.40819   0.00000  Uiso   1.00
H904   H     0.98920   0.62551   0.53244   0.00000  Uiso   1.00
H905   H     0.61760   0.71418   0.57766   0.00000  Uiso   1.00
H906   H     0.90794   0.81715   0.39789   0.00000  Uiso   1.00
H907   H     0.93795   0.88015   0.60834   0.00000  Uiso   1.00
H908   H     0.52186   0.62769   0.43791   0.00000  Uiso   1.00
H909   H     0.62132   0.98129   0.45901   0.00000  Uiso   1.00
H910   H     0.87096   0.53191   0.57214   0.00000  Uiso   1.00
H911   H     0.76607   0.61739   0.44761   0.00000  Uiso   1.00
H912   H     0.50709   0.81756   0.62332   0.00000  Uiso   1.00
H913   H     0.73723   0.87646   0.54126   0.00000  Uiso   1.00
H914   H     0.86693   0.96132   0.58142   0.00000  Uiso   1.00
H915   H     0.65416   0.56158   0.39993   0.00000  Uiso   1.00
H916   H     0.69215   0.63466   0.60518   0.00000  Uiso   1.00
H917   H     0.77301   0.87777   0.43604   0.00000  Uiso   1.00
H918   H     0.50663   0.81763   0.37695   0.00000  Uiso   1.00
H919   H     0.99325   0.68237   0.62303   0.00000  Uiso   1.00
H920   H     0.74311   0.93244   0.37670   0.00000  Uiso   1.00
H921   H     0.75616   0.56765   0.62326   0.00000  Uiso   1.00
H922   H     0.75590   0.56769   0.37691   0.00000  Uiso   1.00
H923   H     0.74410   0.93233   0.62307   0.00000  Uiso   1.00
H924   H     0.87321   0.73424   0.46195   0.00000  Uiso   1.00
N925   N     0.50000   0.75000   0.61736   0.00000  Uiso   1.00
N926   N     0.50000   0.75000   0.38264   0.00000  Uiso   1.00
N927   N     0.75000   0.50000   0.61736   0.00000  Uiso   1.00
N928   N     0.75000   0.50000   0.38264   0.00000  Uiso   1.00
O929   O     0.54509   0.70491   0.53958   0.00000  Uiso   1.00
O930   O     0.70492   0.54509   0.46042   0.00000  Uiso   1.00
O931   O     0.70492   0.54509   0.53958   0.00000  Uiso   1.00
O932   O     0.79509   0.95491   0.46042   0.00000  Uiso   1.00
O933   O     0.70492   0.95491   0.46042   0.00000  Uiso   1.00
O934   O     0.79509   0.54509   0.53958   0.00000  Uiso   1.00
O935   O     0.79509   0.54509   0.46042   0.00000  Uiso   1.00
O936   O     0.70492   0.95491   0.53958   0.00000  Uiso   1.00
O937   O     0.84111   0.70350   0.41034   0.00000  Uiso   1.00
O938   O     0.67109   0.77557   0.54791   0.00000  Uiso   1.00
O939   O     0.50944   0.88048   0.46297   0.00000  Uiso   1.00
O940   O     0.95492   0.79509   0.46042   0.00000  Uiso   1.00
O941   O     0.96294   0.59212   0.58413   0.00000  Uiso   1.00
O942   O     0.61866   0.66387   0.62024   0.00000  Uiso   1.00
O943   O     0.84700   0.79614   0.40685   0.00000  Uiso   1.00
O944   O     0.98193   0.87788   0.55832   0.00000  Uiso   1.00
O945   O     0.56393   0.62590   0.38554   0.00000  Uiso   1.00
O946   O     0.60236   0.94965   0.40130   0.00000  Uiso   1.00
O947   O     0.92377   0.52231   0.53361   0.00000  Uiso   1.00
O948   O     0.77205   0.67837   0.46545   0.00000  Uiso   1.00
O949   O     0.70678   0.84936   0.59462   0.00000  Uiso   1.00
O950   O     0.86285   0.90926   0.62115   0.00000  Uiso   1.00
O951   O     0.95492   0.79509   0.53958   0.00000  Uiso   1.00
O952   O     0.59253   0.54400   0.41096   0.00000  Uiso   1.00
O953   O     0.73398   0.62807   0.55368   0.00000  Uiso   1.00
O954   O     0.81587   0.87790   0.38436   0.00000  Uiso   1.00
O955   O     0.54509   0.70491   0.46042   0.00000  Uiso   1.00
O956   O     0.95492   0.70491   0.46042   0.00000  Uiso   1.00
O957   O     0.54509   0.79509   0.53958   0.00000  Uiso   1.00
O958   O     0.54509   0.79509   0.46042   0.00000  Uiso   1.00
O959   O     0.95492   0.70491   0.53958   0.00000  Uiso   1.00
O960   O     0.79509   0.95491   0.53958   0.00000  Uiso   1.00
C961   C     0.05888   0.18996   0.83383   0.00000  Uiso   1.00
C962   C     0.00386   0.28753   0.97526   0.00000  Uiso   1.00
C963   C     0.00377   0.28754   0.69155   0.00000  Uiso   1.00
C964   C     0.49619   0.21246   0.97511   0.00000  Uiso   1.00
C965   C     0.24636   0.46246   0.69141   0.00000  Uiso   1.00
C966   C     0.25338   0.03757   0.97524   0.00000  Uiso   1.00
C967   C     0.25334   0.03758   0.69153   0.00000  Uiso   1.00
C968   C     0.24663   0.46243   0.97513   0.00000  Uiso   1.00
C969   C     0.36673   0.16399   0.80915   0.00000  Uiso   1.00
C970   C     0.13172   0.33786   0.86161   0.00000  Uiso   1.00
C971   C     0.08677   0.37935   0.80503   0.00000  Uiso   1.00
C972   C     0.44093   0.30984   0.83274   0.00000  Uiso   1.00
C973   C     0.41613   0.11810   0.85641   0.00000  Uiso   1.00
C974   C     0.12265   0.15228   0.87220   0.00000  Uiso   1.00
C975   C     0.37681   0.34667   0.79393   0.00000  Uiso   1.00
C976   C     0.40673   0.37291   0.86974   0.00000  Uiso   1.00
C977   C     0.09185   0.12590   0.79699   0.00000  Uiso   1.00
C978   C     0.12003   0.41072   0.80356   0.00000  Uiso   1.00
C979   C     0.38354   0.08590   0.85650   0.00000  Uiso   1.00
C980   C     0.33308   0.13291   0.81199   0.00000  Uiso   1.00
C981   C     0.16465   0.36965   0.86071   0.00000  Uiso   1.00
C982   C     0.37118   0.40086   0.87320   0.00000  Uiso   1.00
C983   C     0.44072   0.19053   0.83301   0.00000  Uiso   1.00
C984   C     0.12552   0.09543   0.79487   0.00000  Uiso   1.00
C985   C     0.15800   0.12405   0.86850   0.00000  Uiso   1.00
C986   C     0.34263   0.37655   0.79624   0.00000  Uiso   1.00
C987   C     0.09276   0.34315   0.83435   0.00000  Uiso   1.00
C988   C     0.40744   0.15680   0.83242   0.00000  Uiso   1.00
C989   C     0.40843   0.34435   0.83131   0.00000  Uiso   1.00
C990   C     0.09124   0.15519   0.83483   0.00000  Uiso   1.00
C991   C     0.34236   0.09348   0.83436   0.00000  Uiso   1.00
C992   C     0.15815   0.40613   0.83218   0.00000  Uiso   1.00
C993   C     0.15828   0.09418   0.83119   0.00000  Uiso   1.00
C994   C     0.05960   0.30924   0.83369   0.00000  Uiso   1.00
C995   C     0.34088   0.40484   0.83492   0.00000  Uiso   1.00
C996   C     0.35996   0.20414   0.78194   0.00000  Uiso   1.00
C997   C     0.13914   0.29781   0.88861   0.00000  Uiso   1.00
C998   C     0.04487   0.38577   0.77790   0.00000  Uiso   1.00
C999   C     0.45972   0.11162   0.88041   0.00000  Uiso   1.00
C1000  C     0.11992   0.17983   0.91450   0.00000  Uiso   1.00
C1001  C     0.37873   0.31801   0.75223   0.00000  Uiso   1.00
C1002  C     0.44397   0.37682   0.90456   0.00000  Uiso   1.00
C1003  C     0.05583   0.12599   0.76063   0.00000  Uiso   1.00
C1004  C     0.11369   0.45069   0.77596   0.00000  Uiso   1.00
C1005  C     0.30869   0.43976   0.83384   0.00000  Uiso   1.00
C1006  C     0.39251   0.04378   0.87868   0.00000  Uiso   1.00
C1007  C     0.28732   0.14245   0.79506   0.00000  Uiso   1.00
C1008  C     0.20648   0.36486   0.88861   0.00000  Uiso   1.00
C1009  C     0.36712   0.42678   0.91653   0.00000  Uiso   1.00
C1010  C     0.12547   0.06483   0.75473   0.00000  Uiso   1.00
C1011  C     0.19657   0.12894   0.90148   0.00000  Uiso   1.00
C1012  C     0.30717   0.37687   0.75928   0.00000  Uiso   1.00
C1013  C     0.19078   0.05969   0.83271   0.00000  Uiso   1.00
C1014  C     0.19106   0.44022   0.83300   0.00000  Uiso   1.00
C1015  C     0.30921   0.05957   0.83367   0.00000  Uiso   1.00
C1016  C     0.49599   0.21249   0.69140   0.00000  Uiso   1.00
Cu1017 Cu    0.00000   0.25000   0.88022   0.00000  Uiso   1.00
Cu1018 Cu    0.00000   0.25000   0.78645   0.00000  Uiso   1.00
Cu1019 Cu    0.25000   0.00000   0.88022   0.00000  Uiso   1.00
Cu1020 Cu    0.25000   0.00000   0.78645   0.00000  Uiso   1.00
H1021  H     0.49249   0.18249   0.71002   0.00000  Uiso   1.00
H1022  H     0.11618   0.28809   0.91515   0.00000  Uiso   1.00
H1023  H     0.04521   0.39574   0.74152   0.00000  Uiso   1.00
H1024  H     0.48920   0.12551   0.86577   0.00000  Uiso   1.00
H1025  H     0.11760   0.21418   0.91100   0.00000  Uiso   1.00
H1026  H     0.40794   0.31715   0.73123   0.00000  Uiso   1.00
H1027  H     0.43795   0.38015   0.94167   0.00000  Uiso   1.00
H1028  H     0.02186   0.12769   0.77124   0.00000  Uiso   1.00
H1029  H     0.12132   0.48129   0.79235   0.00000  Uiso   1.00
H1030  H     0.37096   0.03191   0.90547   0.00000  Uiso   1.00
H1031  H     0.26607   0.11739   0.78094   0.00000  Uiso   1.00
H1032  H     0.00709   0.31756   0.95666   0.00000  Uiso   1.00
H1033  H     0.23723   0.37646   0.87459   0.00000  Uiso   1.00
H1034  H     0.36693   0.46132   0.91475   0.00000  Uiso   1.00
H1035  H     0.15416   0.06158   0.73326   0.00000  Uiso   1.00
H1036  H     0.19215   0.13466   0.93851   0.00000  Uiso   1.00
H1037  H     0.27301   0.37777   0.76937   0.00000  Uiso   1.00
H1038  H     0.00663   0.31763   0.71028   0.00000  Uiso   1.00
H1039  H     0.49325   0.18237   0.95637   0.00000  Uiso   1.00
H1040  H     0.24311   0.43244   0.71003   0.00000  Uiso   1.00
H1041  H     0.25616   0.06765   0.95660   0.00000  Uiso   1.00
H1042  H     0.25590   0.06769   0.71025   0.00000  Uiso   1.00
H1043  H     0.24410   0.43233   0.95640   0.00000  Uiso   1.00
H1044  H     0.37321   0.23424   0.79528   0.00000  Uiso   1.00
N1045  N     0.00000   0.25000   0.95069   0.00000  Uiso   1.00
N1046  N     0.00000   0.25000   0.71598   0.00000  Uiso   1.00
N1047  N     0.25000   0.00000   0.95069   0.00000  Uiso   1.00
N1048  N     0.25000   0.00000   0.71598   0.00000  Uiso   1.00
O1049  O     0.04509   0.20491   0.87291   0.00000  Uiso   1.00
O1050  O     0.20492   0.04509   0.79375   0.00000  Uiso   1.00
O1051  O     0.20492   0.04509   0.87291   0.00000  Uiso   1.00
O1052  O     0.29509   0.45491   0.79375   0.00000  Uiso   1.00
O1053  O     0.20492   0.45491   0.79375   0.00000  Uiso   1.00
O1054  O     0.29509   0.04509   0.87291   0.00000  Uiso   1.00
O1055  O     0.29509   0.04509   0.79375   0.00000  Uiso   1.00
O1056  O     0.20492   0.45491   0.87291   0.00000  Uiso   1.00
O1057  O     0.34111   0.20350   0.74367   0.00000  Uiso   1.00
O1058  O     0.17109   0.27557   0.88124   0.00000  Uiso   1.00
O1059  O     0.00944   0.38048   0.79631   0.00000  Uiso   1.00
O1060  O     0.45492   0.29509   0.79375   0.00000  Uiso   1.00
O1061  O     0.46294   0.09212   0.91746   0.00000  Uiso   1.00
O1062  O     0.11866   0.16387   0.95357   0.00000  Uiso   1.00
O1063  O     0.34700   0.29614   0.74018   0.00000  Uiso   1.00
O1064  O     0.48193   0.37788   0.89166   0.00000  Uiso   1.00
O1065  O     0.06393   0.12590   0.71888   0.00000  Uiso   1.00
O1066  O     0.10236   0.44965   0.73464   0.00000  Uiso   1.00
O1067  O     0.42377   0.02231   0.86694   0.00000  Uiso   1.00
O1068  O     0.27205   0.17837   0.79879   0.00000  Uiso   1.00
O1069  O     0.20678   0.34936   0.92795   0.00000  Uiso   1.00
O1070  O     0.36285   0.40926   0.95448   0.00000  Uiso   1.00
O1071  O     0.45492   0.29509   0.87291   0.00000  Uiso   1.00
O1072  O     0.09253   0.04400   0.74429   0.00000  Uiso   1.00
O1073  O     0.23398   0.12807   0.88701   0.00000  Uiso   1.00
O1074  O     0.31587   0.37790   0.71769   0.00000  Uiso   1.00
O1075  O     0.04509   0.20491   0.79375   0.00000  Uiso   1.00
O1076  O     0.45492   0.20491   0.79375   0.00000  Uiso   1.00
O1077  O     0.04509   0.29509   0.87291   0.00000  Uiso   1.00
O1078  O     0.04509   0.29509   0.79375   0.00000  Uiso   1.00
O1079  O     0.45492   0.20491   0.87291   0.00000  Uiso   1.00
O1080  O     0.29509   0.45491   0.87291   0.00000  Uiso   1.00
C1081  C     0.55888   0.18996   0.83383   0.00000  Uiso   1.00
C1082  C     0.50386   0.28753   0.97526   0.00000  Uiso   1.00
C1083  C     0.50377   0.28754   0.69155   0.00000  Uiso   1.00
C1084  C     0.99619   0.21246   0.97511   0.00000  Uiso   1.00
C1085  C     0.74636   0.46246   0.69141   0.00000  Uiso   1.00
C1086  C     0.75338   0.03757   0.97524   0.00000  Uiso   1.00
C1087  C     0.75334   0.03758   0.69153   0.00000  Uiso   1.00
C1088  C     0.74663   0.46243   0.97513   0.00000  Uiso   1.00
C1089  C     0.86673   0.16399   0.80915   0.00000  Uiso   1.00
C1090  C     0.63172   0.33786   0.86161   0.00000  Uiso   1.00
C1091  C     0.58677   0.37935   0.80503   0.00000  Uiso   1.00
C1092  C     0.94093   0.30984   0.83274   0.00000  Uiso   1.00
C1093  C     0.91613   0.11810   0.85641   0.00000  Uiso   1.00
C1094  C     0.62265   0.15228   0.87220   0.00000  Uiso   1.00
C1095  C     0.87681   0.34667   0.79393   0.00000  Uiso   1.00
C1096  C     0.90673   0.37291   0.86974   0.00000  Uiso   1.00
C1097  C     0.59185   0.12590   0.79699   0.00000  Uiso   1.00
C1098  C     0.62003   0.41072   0.80356   0.00000  Uiso   1.00
C1099  C     0.88354   0.08590   0.85650   0.00000  Uiso   1.00
C1100  C     0.83308   0.13291   0.81199   0.00000  Uiso   1.00
C1101  C     0.66465   0.36965   0.86071   0.00000  Uiso   1.00
C1102  C     0.87118   0.40086   0.87320   0.00000  Uiso   1.00
C1103  C     0.94072   0.19053   0.83301   0.00000  Uiso   1.00
C1104  C     0.62552   0.09543   0.79487   0.00000  Uiso   1.00
C1105  C     0.65800   0.12405   0.86850   0.00000  Uiso   1.00
C1106  C     0.84263   0.37655   0.79624   0.00000  Uiso   1.00
C1107  C     0.59276   0.34315   0.83435   0.00000  Uiso   1.00
C1108  C     0.90744   0.15680   0.83242   0.00000  Uiso   1.00
C1109  C     0.90843   0.34435   0.83131   0.00000  Uiso   1.00
C1110  C     0.59124   0.15519   0.83483   0.00000  Uiso   1.00
C1111  C     0.84236   0.09348   0.83436   0.00000  Uiso   1.00
C1112  C     0.65815   0.40613   0.83218   0.00000  Uiso   1.00
C1113  C     0.65828   0.09418   0.83119   0.00000  Uiso   1.00
C1114  C     0.55960   0.30924   0.83369   0.00000  Uiso   1.00
C1115  C     0.84088   0.40484   0.83492   0.00000  Uiso   1.00
C1116  C     0.85996   0.20414   0.78194   0.00000  Uiso   1.00
C1117  C     0.63914   0.29781   0.88861   0.00000  Uiso   1.00
C1118  C     0.54487   0.38577   0.77790   0.00000  Uiso   1.00
C1119  C     0.95972   0.11162   0.88041   0.00000  Uiso   1.00
C1120  C     0.61992   0.17983   0.91450   0.00000  Uiso   1.00
C1121  C     0.87873   0.31801   0.75223   0.00000  Uiso   1.00
C1122  C     0.94397   0.37682   0.90456   0.00000  Uiso   1.00
C1123  C     0.55583   0.12599   0.76063   0.00000  Uiso   1.00
C1124  C     0.61369   0.45069   0.77596   0.00000  Uiso   1.00
C1125  C     0.80869   0.43976   0.83384   0.00000  Uiso   1.00
C1126  C     0.89251   0.04378   0.87868   0.00000  Uiso   1.00
C1127  C     0.78732   0.14245   0.79506   0.00000  Uiso   1.00
C1128  C     0.70648   0.36486   0.88861   0.00000  Uiso   1.00
C1129  C     0.86712   0.42678   0.91653   0.00000  Uiso   1.00
C1130  C     0.62547   0.06483   0.75473   0.00000  Uiso   1.00
C1131  C     0.69657   0.12894   0.90148   0.00000  Uiso   1.00
C1132  C     0.80717   0.37687   0.75928   0.00000  Uiso   1.00
C1133  C     0.69078   0.05969   0.83271   0.00000  Uiso   1.00
C1134  C     0.69106   0.44022   0.83300   0.00000  Uiso   1.00
C1135  C     0.80921   0.05957   0.83367   0.00000  Uiso   1.00
C1136  C     0.99599   0.21249   0.69140   0.00000  Uiso   1.00
Cu1137 Cu    0.50000   0.25000   0.88022   0.00000  Uiso   1.00
Cu1138 Cu    0.50000   0.25000   0.78645   0.00000  Uiso   1.00
Cu1139 Cu    0.75000   0.00000   0.88022   0.00000  Uiso   1.00
Cu1140 Cu    0.75000   0.00000   0.78645   0.00000  Uiso   1.00
H1141  H     0.99249   0.18249   0.71002   0.00000  Uiso   1.00
H1142  H     0.61618   0.28809   0.91515   0.00000  Uiso   1.00
H1143  H     0.54521   0.39574   0.74152   0.00000  Uiso   1.00
H1144  H     0.98920   0.12551   0.86577   0.00000  Uiso   1.00
H1145  H     0.61760   0.21418   0.91100   0.00000  Uiso   1.00
H1146  H     0.90794   0.31715   0.73123   0.00000  Uiso   1.00
H1147  H     0.93795   0.38015   0.94167   0.00000  Uiso   1.00
H1148  H     0.52186   0.12769   0.77124   0.00000  Uiso   1.00
H1149  H     0.62132   0.48129   0.79235   0.00000  Uiso   1.00
H1150  H     0.87096   0.03191   0.90547   0.00000  Uiso   1.00
H1151  H     0.76607   0.11739   0.78094   0.00000  Uiso   1.00
H1152  H     0.50709   0.31756   0.95666   0.00000  Uiso   1.00
H1153  H     0.73723   0.37646   0.87459   0.00000  Uiso   1.00
H1154  H     0.86693   0.46132   0.91475   0.00000  Uiso   1.00
H1155  H     0.65416   0.06158   0.73326   0.00000  Uiso   1.00
H1156  H     0.69215   0.13466   0.93851   0.00000  Uiso   1.00
H1157  H     0.77301   0.37777   0.76937   0.00000  Uiso   1.00
H1158  H     0.50663   0.31763   0.71028   0.00000  Uiso   1.00
H1159  H     0.99325   0.18237   0.95637   0.00000  Uiso   1.00
H1160  H     0.74311   0.43244   0.71003   0.00000  Uiso   1.00
H1161  H     0.75616   0.06765   0.95660   0.00000  Uiso   1.00
H1162  H     0.75590   0.06769   0.71025   0.00000  Uiso   1.00
H1163  H     0.74410   0.43233   0.95640   0.00000  Uiso   1.00
H1164  H     0.87321   0.23424   0.79528   0.00000  Uiso   1.00
N1165  N     0.50000   0.25000   0.95069   0.00000  Uiso   1.00
N1166  N     0.50000   0.25000   0.71598   0.00000  Uiso   1.00
N1167  N     0.75000   0.00000   0.95069   0.00000  Uiso   1.00
N1168  N     0.75000   0.00000   0.71598   0.00000  Uiso   1.00
O1169  O     0.54509   0.20491   0.87291   0.00000  Uiso   1.00
O1170  O     0.70492   0.04509   0.79375   0.00000  Uiso   1.00
O1171  O     0.70492   0.04509   0.87291   0.00000  Uiso   1.00
O1172  O     0.79509   0.45491   0.79375   0.00000  Uiso   1.00
O1173  O     0.70492   0.45491   0.79375   0.00000  Uiso   1.00
O1174  O     0.79509   0.04509   0.87291   0.00000  Uiso   1.00
O1175  O     0.79509   0.04509   0.79375   0.00000  Uiso   1.00
O1176  O     0.70492   0.45491   0.87291   0.00000  Uiso   1.00
O1177  O     0.84111   0.20350   0.74367   0.00000  Uiso   1.00
O1178  O     0.67109   0.27557   0.88124   0.00000  Uiso   1.00
O1179  O     0.50944   0.38048   0.79631   0.00000  Uiso   1.00
O1180  O     0.95492   0.29509   0.79375   0.00000  Uiso   1.00
O1181  O     0.96294   0.09212   0.91746   0.00000  Uiso   1.00
O1182  O     0.61866   0.16387   0.95357   0.00000  Uiso   1.00
O1183  O     0.84700   0.29614   0.74018   0.00000  Uiso   1.00
O1184  O     0.98193   0.37788   0.89166   0.00000  Uiso   1.00
O1185  O     0.56393   0.12590   0.71888   0.00000  Uiso   1.00
O1186  O     0.60236   0.44965   0.73464   0.00000  Uiso   1.00
O1187  O     0.92377   0.02231   0.86694   0.00000  Uiso   1.00
O1188  O     0.77205   0.17837   0.79879   0.00000  Uiso   1.00
O1189  O     0.70678   0.34936   0.92795   0.00000  Uiso   1.00
O1190  O     0.86285   0.40926   0.95448   0.00000  Uiso   1.00
O1191  O     0.95492   0.29509   0.87291   0.00000  Uiso   1.00
O1192  O     0.59253   0.04400   0.74429   0.00000  Uiso   1.00
O1193  O     0.73398   0.12807   0.88701   0.00000  Uiso   1.00
O1194  O     0.81587   0.37790   0.71769   0.00000  Uiso   1.00
O1195  O     0.54509   0.20491   0.79375   0.00000  Uiso   1.00
O1196  O     0.95492   0.20491   0.79375   0.00000  Uiso   1.00
O1197  O     0.54509   0.29509   0.87291   0.00000  Uiso   1.00
O1198  O     0.54509   0.29509   0.79375   0.00000  Uiso   1.00
O1199  O     0.95492   0.20491   0.87291   0.00000  Uiso   1.00
O1200  O     0.79509   0.45491   0.87291   0.00000  Uiso   1.00
C1201  C     0.05888   0.68996   0.83383   0.00000  Uiso   1.00
C1202  C     0.00386   0.78753   0.97526   0.00000  Uiso   1.00
C1203  C     0.00377   0.78754   0.69155   0.00000  Uiso   1.00
C1204  C     0.49619   0.71246   0.97511   0.00000  Uiso   1.00
C1205  C     0.24636   0.96246   0.69141   0.00000  Uiso   1.00
C1206  C     0.25338   0.53757   0.97524   0.00000  Uiso   1.00
C1207  C     0.25334   0.53758   0.69153   0.00000  Uiso   1.00
C1208  C     0.24663   0.96243   0.97513   0.00000  Uiso   1.00
C1209  C     0.36673   0.66399   0.80915   0.00000  Uiso   1.00
C1210  C     0.13172   0.83786   0.86161   0.00000  Uiso   1.00
C1211  C     0.08677   0.87935   0.80503   0.00000  Uiso   1.00
C1212  C     0.44093   0.80984   0.83274   0.00000  Uiso   1.00
C1213  C     0.41613   0.61810   0.85641   0.00000  Uiso   1.00
C1214  C     0.12265   0.65228   0.87220   0.00000  Uiso   1.00
C1215  C     0.37681   0.84667   0.79393   0.00000  Uiso   1.00
C1216  C     0.40673   0.87291   0.86974   0.00000  Uiso   1.00
C1217  C     0.09185   0.62590   0.79699   0.00000  Uiso   1.00
C1218  C     0.12003   0.91072   0.80356   0.00000  Uiso   1.00
C1219  C     0.38354   0.58590   0.85650   0.00000  Uiso   1.00
C1220  C     0.33308   0.63291   0.81199   0.00000  Uiso   1.00
C1221  C     0.16465   0.86965   0.86071   0.00000  Uiso   1.00
C1222  C     0.37118   0.90086   0.87320   0.00000  Uiso   1.00
C1223  C     0.44072   0.69053   0.83301   0.00000  Uiso   1.00
C1224  C     0.12552   0.59543   0.79487   0.00000  Uiso   1.00
C1225  C     0.15800   0.62405   0.86850   0.00000  Uiso   1.00
C1226  C     0.34263   0.87655   0.79624   0.00000  Uiso   1.00
C1227  C     0.09276   0.84315   0.83435   0.00000  Uiso   1.00
C1228  C     0.40744   0.65680   0.83242   0.00000  Uiso   1.00
C1229  C     0.40843   0.84435   0.83131   0.00000  Uiso   1.00
C1230  C     0.09124   0.65519   0.83483   0.00000  Uiso   1.00
C1231  C     0.34236   0.59348   0.83436   0.00000  Uiso   1.00
C1232  C     0.15815   0.90613   0.83218   0.00000  Uiso   1.00
C1233  C     0.15828   0.59418   0.83119   0.00000  Uiso   1.00
C1234  C     0.05960   0.80924   0.83369   0.00000  Uiso   1.00
C1235  C     0.34088   0.90484   0.83492   0.00000  Uiso   1.00
C1236  C     0.35996   0.70414   0.78194   0.00000  Uiso   1.00
C1237  C     0.13914   0.79781   0.88861   0.00000  Uiso   1.00
C1238  C     0.04487   0.88577   0.77790   0.00000  Uiso   1.00
C1239  C     0.45972   0.61162   0.88041   0.00000  Uiso   1.00
C1240  C     0.11992   0.67983   0.91450   0.00000  Uiso   1.00
C1241  C     0.37873   0.81801   0.75223   0.00000  Uiso   1.00
C1242  C     0.44397   0.87682   0.90456   0.00000  Uiso   1.00
C1243  C     0.05583   0.62599   0.76063   0.00000  Uiso   1.00
C1244  C     0.11369   0.95069   0.77596   0.00000  Uiso   1.00
C1245  C     0.30869   0.93976   0.83384   0.00000  Uiso   1.00
C1246  C     0.39251   0.54378   0.87868   0.00000  Uiso   1.00
C1247  C     0.28732   0.64245   0.79506   0.00000  Uiso   1.00
C1248  C     0.20648   0.86486   0.88861   0.00000  Uiso   1.00
C1249  C     0.36712   0.92678   0.91653   0.00000  Uiso   1.00
C1250  C     0.12547   0.56483   0.75473   0.00000  Uiso   1.00
C1251  C     0.19657   0.62894   0.90148   0.00000  Uiso   1.00
C1252  C     0.30717   0.87687   0.75928   0.00000  Uiso   1.00
C1253  C     0.19078   0.55969   0.83271   0.00000  Uiso   1.00
C1254  C     0.19106   0.94022   0.83300   0.00000  Uiso   1.00
C1255  C     0.30921   0.55957   0.83367   0.00000  Uiso   1.00
C1256  C     0.49599   0.71249   0.69140   0.00000  Uiso   1.00
Cu1257 Cu    0.00000   0.75000   0.88022   0.00000  Uiso   1.00
Cu1258 Cu    0.00000   0.75000   0.78645   0.00000  Uiso   1.00
Cu1259 Cu    0.25000   0.50000   0.88022   0.00000  Uiso   1.00
Cu1260 Cu    0.25000   0.50000   0.78645   0.00000  Uiso   1.00
H1261  H     0.49249   0.68249   0.71002   0.00000  Uiso   1.00
H1262  H     0.11618   0.78809   0.91515   0.00000  Uiso   1.00
H1263  H     0.04521   0.89574   0.74152   0.00000  Uiso   1.00
H1264  H     0.48920   0.62551   0.86577   0.00000  Uiso   1.00
H1265  H     0.11760   0.71418   0.91100   0.00000  Uiso   1.00
H1266  H     0.40794   0.81715   0.73123   0.00000  Uiso   1.00
H1267  H     0.43795   0.88015   0.94167   0.00000  Uiso   1.00
H1268  H     0.02186   0.62769   0.77124   0.00000  Uiso   1.00
H1269  H     0.12132   0.98129   0.79235   0.00000  Uiso   1.00
H1270  H     0.37096   0.53191   0.90547   0.00000  Uiso   1.00
H1271  H     0.26607   0.61739   0.78094   0.00000  Uiso   1.00
H1272  H     0.00709   0.81756   0.95666   0.00000  Uiso   1.00
H1273  H     0.23723   0.87646   0.87459   0.00000  Uiso   1.00
H1274  H     0.36693   0.96132   0.91475   0.00000  Uiso   1.00
H1275  H     0.15416   0.56158   0.73326   0.00000  Uiso   1.00
H1276  H     0.19215   0.63466   0.93851   0.00000  Uiso   1.00
H1277  H     0.27301   0.87777   0.76937   0.00000  Uiso   1.00
H1278  H     0.00663   0.81763   0.71028   0.00000  Uiso   1.00
H1279  H     0.49325   0.68237   0.95637   0.00000  Uiso   1.00
H1280  H     0.24311   0.93244   0.71003   0.00000  Uiso   1.00
H1281  H     0.25616   0.56765   0.95660   0.00000  Uiso   1.00
H1282  H     0.25590   0.56769   0.71025   0.00000  Uiso   1.00
H1283  H     0.24410   0.93233   0.95640   0.00000  Uiso   1.00
H1284  H     0.37321   0.73424   0.79528   0.00000  Uiso   1.00
N1285  N     0.00000   0.75000   0.95069   0.00000  Uiso   1.00
N1286  N     0.00000   0.75000   0.71598   0.00000  Uiso   1.00
N1287  N     0.25000   0.50000   0.95069   0.00000  Uiso   1.00
N1288  N     0.25000   0.50000   0.71598   0.00000  Uiso   1.00
O1289  O     0.04509   0.70491   0.87291   0.00000  Uiso   1.00
O1290  O     0.20492   0.54509   0.79375   0.00000  Uiso   1.00
O1291  O     0.20492   0.54509   0.87291   0.00000  Uiso   1.00
O1292  O     0.29509   0.95491   0.79375   0.00000  Uiso   1.00
O1293  O     0.20492   0.95491   0.79375   0.00000  Uiso   1.00
O1294  O     0.29509   0.54509   0.87291   0.00000  Uiso   1.00
O1295  O     0.29509   0.54509   0.79375   0.00000  Uiso   1.00
O1296  O     0.20492   0.95491   0.87291   0.00000  Uiso   1.00
O1297  O     0.34111   0.70350   0.74367   0.00000  Uiso   1.00
O1298  O     0.17109   0.77557   0.88124   0.00000  Uiso   1.00
O1299  O     0.00944   0.88048   0.79631   0.00000  Uiso   1.00
O1300  O     0.45492   0.79509   0.79375   0.00000  Uiso   1.00
O1301  O     0.46294   0.59212   0.91746   0.00000  Uiso   1.00
O1302  O     0.11866   0.66387   0.95357   0.00000  Uiso   1.00
O1303  O     0.34700   0.79614   0.74018   0.00000  Uiso   1.00
O1304  O     0.48193   0.87788   0.89166   0.00000  Uiso   1.00
O1305  O     0.06393   0.62590   0.71888   0.00000  Uiso   1.00
O1306  O     0.10236   0.94965   0.73464   0.00000  Uiso   1.00
O1307  O     0.42377   0.52231   0.86694   0.00000  Uiso   1.00
O1308  O     0.27205   0.67837   0.79879   0.00000  Uiso   1.00
O1309  O     0.20678   0.84936   0.92795   0.00000  Uiso   1.00
O1310  O     0.36285   0.90926   0.95448   0.00000  Uiso   1.00
O1311  O     0.45492   0.79509   0.87291   0.00000  Uiso   1.00
O1312  O     0.09253   0.54400   0.74429   0.00000  Uiso   1.00
O1313  O     0.23398   0.62807   0.88701   0.00000  Uiso   1.00
O1314  O     0.31587   0.87790   0.71769   0.00000  Uiso   1.00
O1315  O     0.04509   0.70491   0.79375   0.00000  Uiso   1.00
O1316  O     0.45492   0.70491   0.79375   0.00000  Uiso   1.00
O1317  O     0.04509   0.79509   0.87291   0.00000  Uiso   1.00
O1318  O     0.04509   0.79509   0.79375   0.00000  Uiso   1.00
O1319  O     0.45492   0.70491   0.87291   0.00000  Uiso   1.00
O1320  O     0.29509   0.95491   0.87291   0.00000  Uiso   1.00
C1321  C     0.55888   0.68996   0.83383   0.00000  Uiso   1.00
C1322  C     0.50386   0.78753   0.97526   0.00000  Uiso   1.00
C1323  C     0.50377   0.78754   0.69155   0.00000  Uiso   1.00
C1324  C     0.99619   0.71246   0.97511   0.00000  Uiso   1.00
C1325  C     0.74636   0.96246   0.69141   0.00000  Uiso   1.00
C1326  C     0.75338   0.53757   0.97524   0.00000  Uiso   1.00
C1327  C     0.75334   0.53758   0.69153   0.00000  Uiso   1.00
C1328  C     0.74663   0.96243   0.97513   0.00000  Uiso   1.00
C1329  C     0.86673   0.66399   0.80915   0.00000  Uiso   1.00
C1330  C     0.63172   0.83786   0.86161   0.00000  Uiso   1.00
C1331  C     0.58677   0.87935   0.80503   0.00000  Uiso   1.00
C1332  C     0.94093   0.80984   0.83274   0.00000  Uiso   1.00
C1333  C     0.91613   0.61810   0.85641   0.00000  Uiso   1.00
C1334  C     0.62265   0.65228   0.87220   0.00000  Uiso   1.00
C1335  C     0.87681   0.84667   0.79393   0.00000  Uiso   1.00
C1336  C     0.90673   0.87291   0.86974   0.00000  Uiso   1.00
C1337  C     0.59185   0.62590   0.79699   0.00000  Uiso   1.00
C1338  C     0.62003   0.91072   0.80356   0.00000  Uiso   1.00
C1339  C     0.88354   0.58590   0.85650   0.00000  Uiso   1.00
C1340  C     0.83308   0.63291   0.81199   0.00000  Uiso   1.00
C1341  C     0.66465   0.86965   0.86071   0.00000  Uiso   1.00
C1342  C     0.87118   0.90086   0.87320   0.00000  Uiso   1.00
C1343  C     0.94072   0.69053   0.83301   0.00000  Uiso   1.00
C1344  C     0.62552   0.59543   0.79487   0.00000  Uiso   1.00
C1345  C     0.65800   0.62405   0.86850   0.00000  Uiso   1.00
C1346  C     0.84263   0.87655   0.79624   0.00000  Uiso   1.00
C1347  C     0.59276   0.84315   0.83435   0.00000  Uiso   1.00
C1348  C     0.90744   0.65680   0.83242   0.00000  Uiso   1.00
C1349  C     0.90843   0.84435   0.83131   0.00000  Uiso   1.00
C1350  C     0.59124   0.65519   0.83483   0.00000  Uiso   1.00
C1351  C     0.84236   0.59348   0.83436   0.00000  Uiso   1.00
C1352  C     0.65815   0.90613   0.83218   0.00000  Uiso   1.00
C1353  C     0.65828   0.59418   0.83119   0.00000  Uiso   1.00
C1354  C     0.55960   0.80924   0.83369   0.00000  Uiso   1.00
C1355  C     0.84088   0.90484   0.83492   0.00000  Uiso   1.00
C1356  C     0.85996   0.70414   0.78194   0.00000  Uiso   1.00
C1357  C     0.63914   0.79781   0.88861   0.00000  Uiso   1.00
C1358  C     0.54487   0.88577   0.77790   0.00000  Uiso   1.00
C1359  C     0.95972   0.61162   0.88041   0.00000  Uiso   1.00
C1360  C     0.61992   0.67983   0.91450   0.00000  Uiso   1.00
C1361  C     0.87873   0.81801   0.75223   0.00000  Uiso   1.00
C1362  C     0.94397   0.87682   0.90456   0.00000  Uiso   1.00
C1363  C     0.55583   0.62599   0.76063   0.00000  Uiso   1.00
C1364  C     0.61369   0.95069   0.77596   0.00000  Uiso   1.00
C1365  C     0.80869   0.93976   0.83384   0.00000  Uiso   1.00
C1366  C     0.89251   0.54378   0.87868   0.00000  Uiso   1.00
C1367  C     0.78732   0.64245   0.79506   0.00000  Uiso   1.00
C1368  C     0.70648   0.86486   0.88861   0.00000  Uiso   1.00
C1369  C     0.86712   0.92678   0.91653   0.00000  Uiso   1.00
C1370  C     0.62547   0.56483   0.75473   0.00000  Uiso   1.00
C1371  C     0.69657   0.62894   0.90148   0.00000  Uiso   1.00
C1372  C     0.80717   0.87687   0.75928   0.00000  Uiso   1.00
C1373  C     0.69078   0.55969   0.83271   0.00000  Uiso   1.00
C1374  C     0.69106   0.94022   0.83300   0.00000  Uiso   1.00
C1375  C     0.80921   0.55957   0.83367   0.00000  Uiso   1.00
C1376  C     0.99599   0.71249   0.69140   0.00000  Uiso   1.00
Cu1377 Cu    0.50000   0.75000   0.88022   0.00000  Uiso   1.00
Cu1378 Cu    0.50000   0.75000   0.78645   0.00000  Uiso   1.00
Cu1379 Cu    0.75000   0.50000   0.88022   0.00000  Uiso   1.00
Cu1380 Cu    0.75000   0.50000   0.78645   0.00000  Uiso   1.00
H1381  H     0.99249   0.68249   0.71002   0.00000  Uiso   1.00
H1382  H     0.61618   0.78809   0.91515   0.00000  Uiso   1.00
H1383  H     0.54521   0.89574   0.74152   0.00000  Uiso   1.00
H1384  H     0.98920   0.62551   0.86577   0.00000  Uiso   1.00
H1385  H     0.61760   0.71418   0.91100   0.00000  Uiso   1.00
H1386  H     0.90794   0.81715   0.73123   0.00000  Uiso   1.00
H1387  H     0.93795   0.88015   0.94167   0.00000  Uiso   1.00
H1388  H     0.52186   0.62769   0.77124   0.00000  Uiso   1.00
H1389  H     0.62132   0.98129   0.79235   0.00000  Uiso   1.00
H1390  H     0.87096   0.53191   0.90547   0.00000  Uiso   1.00
H1391  H     0.76607   0.61739   0.78094   0.00000  Uiso   1.00
H1392  H     0.50709   0.81756   0.95666   0.00000  Uiso   1.00
H1393  H     0.73723   0.87646   0.87459   0.00000  Uiso   1.00
H1394  H     0.86693   0.96132   0.91475   0.00000  Uiso   1.00
H1395  H     0.65416   0.56158   0.73326   0.00000  Uiso   1.00
H1396  H     0.69215   0.63466   0.93851   0.00000  Uiso   1.00
H1397  H     0.77301   0.87777   0.76937   0.00000  Uiso   1.00
H1398  H     0.50663   0.81763   0.71028   0.00000  Uiso   1.00
H1399  H     0.99325   0.68237   0.95637   0.00000  Uiso   1.00
H1400  H     0.74311   0.93244   0.71003   0.00000  Uiso   1.00
H1401  H     0.75616   0.56765   0.95660   0.00000  Uiso   1.00
H1402  H     0.75590   0.56769   0.71025   0.00000  Uiso   1.00
H1403  H     0.74410   0.93233   0.95640   0.00000  Uiso   1.00
H1404  H     0.87321   0.73424   0.79528   0.00000  Uiso   1.00
N1405  N     0.50000   0.75000   0.95069   0.00000  Uiso   1.00
N1406  N     0.50000   0.75000   0.71598   0.00000  Uiso   1.00
N1407  N     0.75000   0.50000   0.95069   0.00000  Uiso   1.00
N1408  N     0.75000   0.50000   0.71598   0.00000  Uiso   1.00
O1409  O     0.54509   0.70491   0.87291   0.00000  Uiso   1.00
O1410  O     0.70492   0.54509   0.79375   0.00000  Uiso   1.00
O1411  O     0.70492   0.54509   0.87291   0.00000  Uiso   1.00
O1412  O     0.79509   0.95491   0.79375   0.00000  Uiso   1.00
O1413  O     0.70492   0.95491   0.79375   0.00000  Uiso   1.00
O1414  O     0.79509   0.54509   0.87291   0.00000  Uiso   1.00
O1415  O     0.79509   0.54509   0.79375   0.00000  Uiso   1.00
O1416  O     0.70492   0.95491   0.87291   0.00000  Uiso   1.00
O1417  O     0.84111   0.70350   0.74367   0.00000  Uiso   1.00
O1418  O     0.67109   0.77557   0.88124   0.00000  Uiso   1.00
O1419  O     0.50944   0.88048   0.79631   0.00000  Uiso   1.00
O1420  O     0.95492   0.79509   0.79375   0.00000  Uiso   1.00
O1421  O     0.96294   0.59212   0.91746   0.00000  Uiso   1.00
O1422  O     0.61866   0.66387   0.95357   0.00000  Uiso   1.00
O1423  O     0.84700   0.79614   0.74018   0.00000  Uiso   1.00
O1424  O     0.98193   0.87788   0.89166   0.00000  Uiso   1.00
O1425  O     0.56393   0.62590   0.71888   0.00000  Uiso   1.00
O1426  O     0.60236   0.94965   0.73464   0.00000  Uiso   1.00
O1427  O     0.92377   0.52231   0.86694   0.00000  Uiso   1.00
O1428  O     0.77205   0.67837   0.79879   0.00000  Uiso   1.00
O1429  O     0.70678   0.84936   0.92795   0.00000  Uiso   1.00
O1430  O     0.86285   0.90926   0.95448   0.00000  Uiso   1.00
O1431  O     0.95492   0.79509   0.87291   0.00000  Uiso   1.00
O1432  O     0.59253   0.54400   0.74429   0.00000  Uiso   1.00
O1433  O     0.73398   0.62807   0.88701   0.00000  Uiso   1.00
O1434  O     0.81587   0.87790   0.71769   0.00000  Uiso   1.00
O1435  O     0.54509   0.70491   0.79375   0.00000  Uiso   1.00
O1436  O     0.95492   0.70491   0.79375   0.00000  Uiso   1.00
O1437  O     0.54509   0.79509   0.87291   0.00000  Uiso   1.00
O1438  O     0.54509   0.79509   0.79375   0.00000  Uiso   1.00
O1439  O     0.95492   0.70491   0.87291   0.00000  Uiso   1.00
O1440  O     0.79509   0.95491   0.87291   0.00000  Uiso   1.00
loop_
_geom_bond_atom_site_label_1
_geom_bond_atom_site_label_2
_geom_bond_distance
_geom_bond_site_symmetry_2
_ccdc_geom_bond_type
C1     O89     1.289   .     A
C1     C30     1.470   .     S
C1     O115    1.296   .     A
C2     H72     1.080   .     S
C2     C483    1.415   .     S
C2     N85     1.367   .     S
C3     N86     1.366   .     A
C3     H78     1.081   .     S
C3     C962    1.415   1_554 S
C4     H79     1.082   .     S
C4     N205    1.367   .     A
C4     C536    1.415   .     S
C5     H80     1.080   .     S
C5     C968    1.415   1_554 S
C5     N328    1.366   .     S
C6     H81     1.081   .     S
C6     N87     1.366   .     A
C6     C487    1.415   .     S
C7     N88     1.367   .     A
C7     H82     1.081   .     S
C7     C966    1.415   1_554 S
C8     H83     1.081   .     S
C8     C485    1.415   .     S
C8     N327    1.366   .     S
C9     C36     1.485   .     S
C9     C20     1.407   .     A
C9     C28     1.412   .     A
C10    C27     1.414   .     A
C10    C37     1.482   .     S
C10    C21     1.404   .     A
C11    C18     1.403   .     A
C11    C38     1.491   .     S
C11    C27     1.414   .     A
C12    C29     1.467   .     S
C12    O100    1.286   .     A
C12    O111    1.298   .     A
C13    C28     1.410   .     A
C13    C39     1.494   .     S
C13    C19     1.405   .     A
C14    C30     1.419   .     A
C14    C25     1.402   .     A
C14    C40     1.485   .     S
C15    C29     1.422   .     A
C15    C41     1.490   .     S
C15    C26     1.405   .     A
C16    C22     1.400   .     A
C16    C29     1.414   .     A
C16    C42     1.494   .     S
C17    C30     1.415   .     A
C17    C24     1.405   .     A
C17    C43     1.492   .     S
C18    C44     1.485   .     S
C18    C32     1.411   .     A
C19    C31     1.412   .     A
C19    C46     1.481   .     S
C20    C47     1.496   .     S
C20    C31     1.412   .     A
C21    C48     1.494   .     S
C21    C32     1.410   .     A
C22    C35     1.419   .     A
C22    C49     1.485   .     S
C23    O119    1.287   .     A
C23    O116    1.288   .     A
C23    C28     1.454   .     S
C24    C50     1.491   .     S
C24    C33     1.422   .     A
C25    C51     1.494   .     S
C25    C33     1.414   .     A
C26    C52     1.492   .     S
C26    C35     1.415   .     A
C27    C34     1.455   .     S
C31    C55     1.455   .     S
C32    C54     1.454   .     S
C33    C53     1.467   .     S
C34    O118    1.289   .     A
C34    O117    1.288   .     A
C35    C45     1.470   .     S
C36    O97     1.221   .     D
C36    H84     1.084   .     S
C37    H62     1.083   .     S
C37    O98     1.221   .     D
C38    H63     1.083   .     S
C38    O99     1.220   .     D
C39    O101    1.221   .     D
C39    H64     1.085   .     S
C40    O102    1.221   .     D
C40    H65     1.078   .     S
C41    O103    1.220   .     D
C41    H66     1.084   .     S
C42    H67     1.084   .     S
C42    O104    1.221   .     D
C43    O105    1.221   .     D
C43    H68     1.086   .     S
C44    O106    1.221   .     D
C44    H69     1.083   .     S
C45    O92     1.297   .     A
C45    O120    1.289   .     A
C46    O107    1.221   .     D
C46    H70     1.081   .     S
C47    H71     1.082   .     S
C47    O108    1.221   .     D
C48    O109    1.221   .     D
C48    H73     1.085   .     S
C49    H74     1.078   .     S
C49    O110    1.221   .     D
C50    O112    1.221   .     D
C50    H75     1.083   .     S
C51    O113    1.221   .     D
C51    H76     1.083   .     S
C52    O114    1.221   .     D
C52    H77     1.086   .     S
C53    O91     1.298   .     A
C53    O90     1.285   .     A
C54    O93     1.287   .     A
C54    O96     1.288   .     A
C55    O94     1.288   .     A
C55    O95     1.288   .     A
C56    H61     1.080   .     S
C56    C964    1.415   1_554 S
C56    N206    1.366   .     S
Cu57   O231    1.980   1_455 S
Cu57   O239    1.964   1_455 S
Cu57   N85     2.010   .     S
Cu57   Cu58    2.674   .     S
Cu57   O89     1.987   .     S
Cu57   O117    1.970   .     S
Cu58   O118    1.964   .     S
Cu58   N86     2.010   .     S
Cu58   O115    1.980   .     S
Cu58   O220    1.987   1_455 S
Cu58   O236    1.970   1_455 S
Cu59   O94     1.970   .     S
Cu59   Cu60    2.674   .     S
Cu59   O91     1.980   .     S
Cu59   N87     2.010   .     S
Cu59   O336    1.964   1_545 S
Cu59   O360    1.987   1_545 S
Cu60   N88     2.010   .     S
Cu60   O90     1.987   .     S
Cu60   O95     1.964   .     S
Cu60   O332    1.980   1_545 S
Cu60   O333    1.970   1_545 S
N85    C124    1.367   1_455 A
N86    C176    1.366   1_455 S
N87    C248    1.366   1_545 S
N88    C245    1.366   1_545 S
O92    Cu300   1.980   .     S
O93    Cu300   1.970   .     S
O96    Cu299   1.964   .     S
O100   Cu178   1.987   .     S
O111   Cu177   1.980   .     S
O116   Cu178   1.970   .     S
O119   Cu177   1.964   .     S
O120   Cu299   1.987   .     S
C121   O209    1.289   .     A
C121   C150    1.470   .     S
C121   O235    1.296   .     A
C122   H192    1.080   .     S
C122   C603    1.415   .     S
C122   N205    1.367   .     S
C123   N206    1.366   .     A
C123   H198    1.081   .     S
C123   C1082   1.415   1_554 S
C124   H199    1.082   .     S
C124   N85     1.367   1_655 A
C124   C656    1.415   .     S
C125   H200    1.080   .     S
C125   C1088   1.415   1_554 S
C125   N448    1.366   .     S
C126   H201    1.081   .     S
C126   N207    1.366   .     A
C126   C607    1.415   .     S
C127   N208    1.367   .     A
C127   H202    1.081   .     S
C127   C1086   1.415   1_554 S
C128   H203    1.081   .     S
C128   C605    1.415   .     S
C128   N447    1.366   .     S
C129   C156    1.485   .     S
C129   C140    1.407   .     A
C129   C148    1.412   .     A
C130   C147    1.414   .     A
C130   C157    1.482   .     S
C130   C141    1.404   .     A
C131   C138    1.403   .     A
C131   C158    1.491   .     S
C131   C147    1.414   .     A
C132   C149    1.467   .     S
C132   O220    1.286   .     A
C132   O231    1.298   .     A
C133   C148    1.410   .     A
C133   C159    1.494   .     S
C133   C139    1.405   .     A
C134   C150    1.419   .     A
C134   C145    1.402   .     A
C134   C160    1.485   .     S
C135   C149    1.422   .     A
C135   C161    1.490   .     S
C135   C146    1.405   .     A
C136   C142    1.400   .     A
C136   C149    1.414   .     A
C136   C162    1.494   .     S
C137   C150    1.415   .     A
C137   C144    1.405   .     A
C137   C163    1.492   .     S
C138   C164    1.485   .     S
C138   C152    1.411   .     A
C139   C151    1.412   .     A
C139   C166    1.481   .     S
C140   C167    1.496   .     S
C140   C151    1.412   .     A
C141   C168    1.494   .     S
C141   C152    1.410   .     A
C142   C155    1.419   .     A
C142   C169    1.485   .     S
C143   O239    1.287   .     A
C143   O236    1.288   .     A
C143   C148    1.454   .     S
C144   C170    1.491   .     S
C144   C153    1.422   .     A
C145   C171    1.494   .     S
C145   C153    1.414   .     A
C146   C172    1.492   .     S
C146   C155    1.415   .     A
C147   C154    1.455   .     S
C151   C175    1.455   .     S
C152   C174    1.454   .     S
C153   C173    1.467   .     S
C154   O238    1.289   .     A
C154   O237    1.288   .     A
C155   C165    1.470   .     S
C156   O217    1.221   .     D
C156   H204    1.084   .     S
C157   H182    1.083   .     S
C157   O218    1.221   .     D
C158   H183    1.083   .     S
C158   O219    1.220   .     D
C159   O221    1.221   .     D
C159   H184    1.085   .     S
C160   O222    1.221   .     D
C160   H185    1.078   .     S
C161   O223    1.220   .     D
C161   H186    1.084   .     S
C162   H187    1.084   .     S
C162   O224    1.221   .     D
C163   O225    1.221   .     D
C163   H188    1.086   .     S
C164   O226    1.221   .     D
C164   H189    1.083   .     S
C165   O212    1.297   .     A
C165   O240    1.289   .     A
C166   O227    1.221   .     D
C166   H190    1.081   .     S
C167   H191    1.082   .     S
C167   O228    1.221   .     D
C168   O229    1.221   .     D
C168   H193    1.085   .     S
C169   H194    1.078   .     S
C169   O230    1.221   .     D
C170   O232    1.221   .     D
C170   H195    1.083   .     S
C171   O233    1.221   .     D
C171   H196    1.083   .     S
C172   O234    1.221   .     D
C172   H197    1.086   .     S
C173   O211    1.298   .     A
C173   O210    1.285   .     A
C174   O213    1.287   .     A
C174   O216    1.288   .     A
C175   O214    1.288   .     A
C175   O215    1.288   .     A
C176   H181    1.080   .     S
C176   C1084   1.415   1_554 S
C176   N86     1.366   1_655 S
Cu177  N205    2.010   .     S
Cu177  Cu178   2.674   .     S
Cu177  O209    1.987   .     S
Cu177  O237    1.970   .     S
Cu178  O238    1.964   .     S
Cu178  N206    2.010   .     S
Cu178  O235    1.980   .     S
Cu179  O214    1.970   .     S
Cu179  Cu180   2.674   .     S
Cu179  O211    1.980   .     S
Cu179  N207    2.010   .     S
Cu179  O456    1.964   1_545 S
Cu179  O480    1.987   1_545 S
Cu180  N208    2.010   .     S
Cu180  O210    1.987   .     S
Cu180  O215    1.964   .     S
Cu180  O452    1.980   1_545 S
Cu180  O453    1.970   1_545 S
N207   C368    1.366   1_545 S
N208   C365    1.366   1_545 S
O212   Cu420   1.980   .     S
O213   Cu420   1.970   .     S
O216   Cu419   1.964   .     S
O220   Cu58    1.987   1_655 S
O231   Cu57    1.980   1_655 S
O236   Cu58    1.970   1_655 S
O239   Cu57    1.964   1_655 S
O240   Cu419   1.987   .     S
C241   O329    1.289   .     A
C241   C270    1.470   .     S
C241   O355    1.296   .     A
C242   H312    1.080   .     S
C242   C723    1.415   .     S
C242   N325    1.367   .     S
C243   N326    1.366   .     A
C243   H318    1.081   .     S
C243   C1202   1.415   1_554 S
C244   H319    1.082   .     S
C244   N445    1.367   .     A
C244   C776    1.415   .     S
C245   H320    1.080   .     S
C245   C1208   1.415   1_554 S
C245   N88     1.366   1_565 S
C246   H321    1.081   .     S
C246   N327    1.366   .     A
C246   C727    1.415   .     S
C247   N328    1.367   .     A
C247   H322    1.081   .     S
C247   C1206   1.415   1_554 S
C248   H323    1.081   .     S
C248   C725    1.415   .     S
C248   N87     1.366   1_565 S
C249   C276    1.485   .     S
C249   C260    1.407   .     A
C249   C268    1.412   .     A
C250   C267    1.414   .     A
C250   C277    1.482   .     S
C250   C261    1.404   .     A
C251   C258    1.403   .     A
C251   C278    1.491   .     S
C251   C267    1.414   .     A
C252   C269    1.467   .     S
C252   O340    1.286   .     A
C252   O351    1.298   .     A
C253   C268    1.410   .     A
C253   C279    1.494   .     S
C253   C259    1.405   .     A
C254   C270    1.419   .     A
C254   C265    1.402   .     A
C254   C280    1.485   .     S
C255   C269    1.422   .     A
C255   C281    1.490   .     S
C255   C266    1.405   .     A
C256   C262    1.400   .     A
C256   C269    1.414   .     A
C256   C282    1.494   .     S
C257   C270    1.415   .     A
C257   C264    1.405   .     A
C257   C283    1.492   .     S
C258   C284    1.485   .     S
C258   C272    1.411   .     A
C259   C271    1.412   .     A
C259   C286    1.481   .     S
C260   C287    1.496   .     S
C260   C271    1.412   .     A
C261   C288    1.494   .     S
C261   C272    1.410   .     A
C262   C275    1.419   .     A
C262   C289    1.485   .     S
C263   O359    1.287   .     A
C263   O356    1.288   .     A
C263   C268    1.454   .     S
C264   C290    1.491   .     S
C264   C273    1.422   .     A
C265   C291    1.494   .     S
C265   C273    1.414   .     A
C266   C292    1.492   .     S
C266   C275    1.415   .     A
C267   C274    1.455   .     S
C271   C295    1.455   .     S
C272   C294    1.454   .     S
C273   C293    1.467   .     S
C274   O358    1.289   .     A
C274   O357    1.288   .     A
C275   C285    1.470   .     S
C276   O337    1.221   .     D
C276   H324    1.084   .     S
C277   H302    1.083   .     S
C277   O338    1.221   .     D
C278   H303    1.083   .     S
C278   O339    1.220   .     D
C279   O341    1.221   .     D
C279   H304    1.085   .     S
C280   O342    1.221   .     D
C280   H305    1.078   .     S
C281   O343    1.220   .     D
C281   H306    1.084   .     S
C282   H307    1.084   .     S
C282   O344    1.221   .     D
C283   O345    1.221   .     D
C283   H308    1.086   .     S
C284   O346    1.221   .     D
C284   H309    1.083   .     S
C285   O332    1.297   .     A
C285   O360    1.289   .     A
C286   O347    1.221   .     D
C286   H310    1.081   .     S
C287   H311    1.082   .     S
C287   O348    1.221   .     D
C288   O349    1.221   .     D
C288   H313    1.085   .     S
C289   H314    1.078   .     S
C289   O350    1.221   .     D
C290   O352    1.221   .     D
C290   H315    1.083   .     S
C291   O353    1.221   .     D
C291   H316    1.083   .     S
C292   O354    1.221   .     D
C292   H317    1.086   .     S
C293   O331    1.298   .     A
C293   O330    1.285   .     A
C294   O333    1.287   .     A
C294   O336    1.288   .     A
C295   O334    1.288   .     A
C295   O335    1.288   .     A
C296   H301    1.080   .     S
C296   C1204   1.415   1_554 S
C296   N446    1.366   .     S
Cu297  O471    1.980   1_455 S
Cu297  O479    1.964   1_455 S
Cu297  N325    2.010   .     S
Cu297  Cu298   2.674   .     S
Cu297  O329    1.987   .     S
Cu297  O357    1.970   .     S
Cu298  O358    1.964   .     S
Cu298  N326    2.010   .     S
Cu298  O355    1.980   .     S
Cu298  O460    1.987   1_455 S
Cu298  O476    1.970   1_455 S
Cu299  O334    1.970   .     S
Cu299  Cu300   2.674   .     S
Cu299  O331    1.980   .     S
Cu299  N327    2.010   .     S
Cu300  N328    2.010   .     S
Cu300  O330    1.987   .     S
Cu300  O335    1.964   .     S
N325   C364    1.367   1_455 A
N326   C416    1.366   1_455 S
O332   Cu60    1.980   1_565 S
O333   Cu60    1.970   1_565 S
O336   Cu59    1.964   1_565 S
O340   Cu418   1.987   .     S
O351   Cu417   1.980   .     S
O356   Cu418   1.970   .     S
O359   Cu417   1.964   .     S
O360   Cu59    1.987   1_565 S
C361   O449    1.289   .     A
C361   C390    1.470   .     S
C361   O475    1.296   .     A
C362   H432    1.080   .     S
C362   C843    1.415   .     S
C362   N445    1.367   .     S
C363   N446    1.366   .     A
C363   H438    1.081   .     S
C363   C1322   1.415   1_554 S
C364   H439    1.082   .     S
C364   N325    1.367   1_655 A
C364   C896    1.415   .     S
C365   H440    1.080   .     S
C365   C1328   1.415   1_554 S
C365   N208    1.366   1_565 S
C366   H441    1.081   .     S
C366   N447    1.366   .     A
C366   C847    1.415   .     S
C367   N448    1.367   .     A
C367   H442    1.081   .     S
C367   C1326   1.415   1_554 S
C368   H443    1.081   .     S
C368   C845    1.415   .     S
C368   N207    1.366   1_565 S
C369   C396    1.485   .     S
C369   C380    1.407   .     A
C369   C388    1.412   .     A
C370   C387    1.414   .     A
C370   C397    1.482   .     S
C370   C381    1.404   .     A
C371   C378    1.403   .     A
C371   C398    1.491   .     S
C371   C387    1.414   .     A
C372   C389    1.467   .     S
C372   O460    1.286   .     A
C372   O471    1.298   .     A
C373   C388    1.410   .     A
C373   C399    1.494   .     S
C373   C379    1.405   .     A
C374   C390    1.419   .     A
C374   C385    1.402   .     A
C374   C400    1.485   .     S
C375   C389    1.422   .     A
C375   C401    1.490   .     S
C375   C386    1.405   .     A
C376   C382    1.400   .     A
C376   C389    1.414   .     A
C376   C402    1.494   .     S
C377   C390    1.415   .     A
C377   C384    1.405   .     A
C377   C403    1.492   .     S
C378   C404    1.485   .     S
C378   C392    1.411   .     A
C379   C391    1.412   .     A
C379   C406    1.481   .     S
C380   C407    1.496   .     S
C380   C391    1.412   .     A
C381   C408    1.494   .     S
C381   C392    1.410   .     A
C382   C395    1.419   .     A
C382   C409    1.485   .     S
C383   O479    1.287   .     A
C383   O476    1.288   .     A
C383   C388    1.454   .     S
C384   C410    1.491   .     S
C384   C393    1.422   .     A
C385   C411    1.494   .     S
C385   C393    1.414   .     A
C386   C412    1.492   .     S
C386   C395    1.415   .     A
C387   C394    1.455   .     S
C391   C415    1.455   .     S
C392   C414    1.454   .     S
C393   C413    1.467   .     S
C394   O478    1.289   .     A
C394   O477    1.288   .     A
C395   C405    1.470   .     S
C396   O457    1.221   .     D
C396   H444    1.084   .     S
C397   H422    1.083   .     S
C397   O458    1.221   .     D
C398   H423    1.083   .     S
C398   O459    1.220   .     D
C399   O461    1.221   .     D
C399   H424    1.085   .     S
C400   O462    1.221   .     D
C400   H425    1.078   .     S
C401   O463    1.220   .     D
C401   H426    1.084   .     S
C402   H427    1.084   .     S
C402   O464    1.221   .     D
C403   O465    1.221   .     D
C403   H428    1.086   .     S
C404   O466    1.221   .     D
C404   H429    1.083   .     S
C405   O452    1.297   .     A
C405   O480    1.289   .     A
C406   O467    1.221   .     D
C406   H430    1.081   .     S
C407   H431    1.082   .     S
C407   O468    1.221   .     D
C408   O469    1.221   .     D
C408   H433    1.085   .     S
C409   H434    1.078   .     S
C409   O470    1.221   .     D
C410   O472    1.221   .     D
C410   H435    1.083   .     S
C411   O473    1.221   .     D
C411   H436    1.083   .     S
C412   O474    1.221   .     D
C412   H437    1.086   .     S
C413   O451    1.298   .     A
C413   O450    1.285   .     A
C414   O453    1.287   .     A
C414   O456    1.288   .     A
C415   O454    1.288   .     A
C415   O455    1.288   .     A
C416   H421    1.080   .     S
C416   C1324   1.415   1_554 S
C416   N326    1.366   1_655 S
Cu417  N445    2.010   .     S
Cu417  Cu418   2.674   .     S
Cu417  O449    1.987   .     S
Cu417  O477    1.970   .     S
Cu418  O478    1.964   .     S
Cu418  N446    2.010   .     S
Cu418  O475    1.980   .     S
Cu419  O454    1.970   .     S
Cu419  Cu420   2.674   .     S
Cu419  O451    1.980   .     S
Cu419  N447    2.010   .     S
Cu420  N448    2.010   .     S
Cu420  O450    1.987   .     S
Cu420  O455    1.964   .     S
O452   Cu180   1.980   1_565 S
O453   Cu180   1.970   1_565 S
O456   Cu179   1.964   1_565 S
O460   Cu298   1.987   1_655 S
O471   Cu297   1.980   1_655 S
O476   Cu298   1.970   1_655 S
O479   Cu297   1.964   1_655 S
O480   Cu179   1.987   1_565 S
C481   O569    1.289   .     A
C481   C510    1.470   .     S
C481   O595    1.296   .     A
C482   H552    1.080   .     S
C482   C963    1.415   .     S
C482   N565    1.367   .     S
C483   N566    1.366   .     A
C483   H558    1.081   .     S
C484   H559    1.082   .     S
C484   N685    1.367   .     A
C484   C1016   1.415   .     S
C485   H560    1.080   .     S
C485   N808    1.366   .     S
C486   H561    1.081   .     S
C486   N567    1.366   .     A
C486   C967    1.415   .     S
C487   N568    1.367   .     A
C487   H562    1.081   .     S
C488   H563    1.081   .     S
C488   C965    1.415   .     S
C488   N807    1.366   .     S
C489   C516    1.485   .     S
C489   C500    1.407   .     A
C489   C508    1.412   .     A
C490   C507    1.414   .     A
C490   C517    1.482   .     S
C490   C501    1.404   .     A
C491   C498    1.403   .     A
C491   C518    1.491   .     S
C491   C507    1.414   .     A
C492   C509    1.467   .     S
C492   O580    1.286   .     A
C492   O591    1.298   .     A
C493   C508    1.410   .     A
C493   C519    1.494   .     S
C493   C499    1.405   .     A
C494   C510    1.419   .     A
C494   C505    1.402   .     A
C494   C520    1.485   .     S
C495   C509    1.422   .     A
C495   C521    1.490   .     S
C495   C506    1.405   .     A
C496   C502    1.400   .     A
C496   C509    1.414   .     A
C496   C522    1.494   .     S
C497   C510    1.415   .     A
C497   C504    1.405   .     A
C497   C523    1.492   .     S
C498   C524    1.485   .     S
C498   C512    1.411   .     A
C499   C511    1.412   .     A
C499   C526    1.481   .     S
C500   C527    1.496   .     S
C500   C511    1.412   .     A
C501   C528    1.494   .     S
C501   C512    1.410   .     A
C502   C515    1.419   .     A
C502   C529    1.485   .     S
C503   O599    1.287   .     A
C503   O596    1.288   .     A
C503   C508    1.454   .     S
C504   C530    1.491   .     S
C504   C513    1.422   .     A
C505   C531    1.494   .     S
C505   C513    1.414   .     A
C506   C532    1.492   .     S
C506   C515    1.415   .     A
C507   C514    1.455   .     S
C511   C535    1.455   .     S
C512   C534    1.454   .     S
C513   C533    1.467   .     S
C514   O598    1.289   .     A
C514   O597    1.288   .     A
C515   C525    1.470   .     S
C516   O577    1.221   .     D
C516   H564    1.084   .     S
C517   H542    1.083   .     S
C517   O578    1.221   .     D
C518   H543    1.083   .     S
C518   O579    1.220   .     D
C519   O581    1.221   .     D
C519   H544    1.085   .     S
C520   O582    1.221   .     D
C520   H545    1.078   .     S
C521   O583    1.220   .     D
C521   H546    1.084   .     S
C522   H547    1.084   .     S
C522   O584    1.221   .     D
C523   O585    1.221   .     D
C523   H548    1.086   .     S
C524   O586    1.221   .     D
C524   H549    1.083   .     S
C525   O572    1.297   .     A
C525   O600    1.289   .     A
C526   O587    1.221   .     D
C526   H550    1.081   .     S
C527   H551    1.082   .     S
C527   O588    1.221   .     D
C528   O589    1.221   .     D
C528   H553    1.085   .     S
C529   H554    1.078   .     S
C529   O590    1.221   .     D
C530   O592    1.221   .     D
C530   H555    1.083   .     S
C531   O593    1.221   .     D
C531   H556    1.083   .     S
C532   O594    1.221   .     D
C532   H557    1.086   .     S
C533   O571    1.298   .     A
C533   O570    1.285   .     A
C534   O573    1.287   .     A
C534   O576    1.288   .     A
C535   O574    1.288   .     A
C535   O575    1.288   .     A
C536   H541    1.080   .     S
C536   N686    1.366   .     S
Cu537  O711    1.980   1_455 S
Cu537  O719    1.964   1_455 S
Cu537  N565    2.010   .     S
Cu537  Cu538   2.674   .     S
Cu537  O569    1.987   .     S
Cu537  O597    1.970   .     S
Cu538  O598    1.964   .     S
Cu538  N566    2.010   .     S
Cu538  O595    1.980   .     S
Cu538  O700    1.987   1_455 S
Cu538  O716    1.970   1_455 S
Cu539  O574    1.970   .     S
Cu539  Cu540   2.674   .     S
Cu539  O571    1.980   .     S
Cu539  N567    2.010   .     S
Cu539  O816    1.964   1_545 S
Cu539  O840    1.987   1_545 S
Cu540  N568    2.010   .     S
Cu540  O570    1.987   .     S
Cu540  O575    1.964   .     S
Cu540  O812    1.980   1_545 S
Cu540  O813    1.970   1_545 S
N565   C604    1.367   1_455 A
N566   C656    1.366   1_455 S
N567   C728    1.366   1_545 S
N568   C725    1.366   1_545 S
O572   Cu780   1.980   .     S
O573   Cu780   1.970   .     S
O576   Cu779   1.964   .     S
O580   Cu658   1.987   .     S
O591   Cu657   1.980   .     S
O596   Cu658   1.970   .     S
O599   Cu657   1.964   .     S
O600   Cu779   1.987   .     S
C601   O689    1.289   .     A
C601   C630    1.470   .     S
C601   O715    1.296   .     A
C602   H672    1.080   .     S
C602   C1083   1.415   .     S
C602   N685    1.367   .     S
C603   N686    1.366   .     A
C603   H678    1.081   .     S
C604   H679    1.082   .     S
C604   N565    1.367   1_655 A
C604   C1136   1.415   .     S
C605   H680    1.080   .     S
C605   N928    1.366   .     S
C606   H681    1.081   .     S
C606   N687    1.366   .     A
C606   C1087   1.415   .     S
C607   N688    1.367   .     A
C607   H682    1.081   .     S
C608   H683    1.081   .     S
C608   C1085   1.415   .     S
C608   N927    1.366   .     S
C609   C636    1.485   .     S
C609   C620    1.407   .     A
C609   C628    1.412   .     A
C610   C627    1.414   .     A
C610   C637    1.482   .     S
C610   C621    1.404   .     A
C611   C618    1.403   .     A
C611   C638    1.491   .     S
C611   C627    1.414   .     A
C612   C629    1.467   .     S
C612   O700    1.286   .     A
C612   O711    1.298   .     A
C613   C628    1.410   .     A
C613   C639    1.494   .     S
C613   C619    1.405   .     A
C614   C630    1.419   .     A
C614   C625    1.402   .     A
C614   C640    1.485   .     S
C615   C629    1.422   .     A
C615   C641    1.490   .     S
C615   C626    1.405   .     A
C616   C622    1.400   .     A
C616   C629    1.414   .     A
C616   C642    1.494   .     S
C617   C630    1.415   .     A
C617   C624    1.405   .     A
C617   C643    1.492   .     S
C618   C644    1.485   .     S
C618   C632    1.411   .     A
C619   C631    1.412   .     A
C619   C646    1.481   .     S
C620   C647    1.496   .     S
C620   C631    1.412   .     A
C621   C648    1.494   .     S
C621   C632    1.410   .     A
C622   C635    1.419   .     A
C622   C649    1.485   .     S
C623   O719    1.287   .     A
C623   O716    1.288   .     A
C623   C628    1.454   .     S
C624   C650    1.491   .     S
C624   C633    1.422   .     A
C625   C651    1.494   .     S
C625   C633    1.414   .     A
C626   C652    1.492   .     S
C626   C635    1.415   .     A
C627   C634    1.455   .     S
C631   C655    1.455   .     S
C632   C654    1.454   .     S
C633   C653    1.467   .     S
C634   O718    1.289   .     A
C634   O717    1.288   .     A
C635   C645    1.470   .     S
C636   O697    1.221   .     D
C636   H684    1.084   .     S
C637   H662    1.083   .     S
C637   O698    1.221   .     D
C638   H663    1.083   .     S
C638   O699    1.220   .     D
C639   O701    1.221   .     D
C639   H664    1.085   .     S
C640   O702    1.221   .     D
C640   H665    1.078   .     S
C641   O703    1.220   .     D
C641   H666    1.084   .     S
C642   H667    1.084   .     S
C642   O704    1.221   .     D
C643   O705    1.221   .     D
C643   H668    1.086   .     S
C644   O706    1.221   .     D
C644   H669    1.083   .     S
C645   O692    1.297   .     A
C645   O720    1.289   .     A
C646   O707    1.221   .     D
C646   H670    1.081   .     S
C647   H671    1.082   .     S
C647   O708    1.221   .     D
C648   O709    1.221   .     D
C648   H673    1.085   .     S
C649   H674    1.078   .     S
C649   O710    1.221   .     D
C650   O712    1.221   .     D
C650   H675    1.083   .     S
C651   O713    1.221   .     D
C651   H676    1.083   .     S
C652   O714    1.221   .     D
C652   H677    1.086   .     S
C653   O691    1.298   .     A
C653   O690    1.285   .     A
C654   O693    1.287   .     A
C654   O696    1.288   .     A
C655   O694    1.288   .     A
C655   O695    1.288   .     A
C656   H661    1.080   .     S
C656   N566    1.366   1_655 S
Cu657  N685    2.010   .     S
Cu657  Cu658   2.674   .     S
Cu657  O689    1.987   .     S
Cu657  O717    1.970   .     S
Cu658  O718    1.964   .     S
Cu658  N686    2.010   .     S
Cu658  O715    1.980   .     S
Cu659  O694    1.970   .     S
Cu659  Cu660   2.674   .     S
Cu659  O691    1.980   .     S
Cu659  N687    2.010   .     S
Cu659  O936    1.964   1_545 S
Cu659  O960    1.987   1_545 S
Cu660  N688    2.010   .     S
Cu660  O690    1.987   .     S
Cu660  O695    1.964   .     S
Cu660  O932    1.980   1_545 S
Cu660  O933    1.970   1_545 S
N687   C848    1.366   1_545 S
N688   C845    1.366   1_545 S
O692   Cu900   1.980   .     S
O693   Cu900   1.970   .     S
O696   Cu899   1.964   .     S
O700   Cu538   1.987   1_655 S
O711   Cu537   1.980   1_655 S
O716   Cu538   1.970   1_655 S
O719   Cu537   1.964   1_655 S
O720   Cu899   1.987   .     S
C721   O809    1.289   .     A
C721   C750    1.470   .     S
C721   O835    1.296   .     A
C722   H792    1.080   .     S
C722   C1203   1.415   .     S
C722   N805    1.367   .     S
C723   N806    1.366   .     A
C723   H798    1.081   .     S
C724   H799    1.082   .     S
C724   N925    1.367   .     A
C724   C1256   1.415   .     S
C725   H800    1.080   .     S
C725   N568    1.366   1_565 S
C726   H801    1.081   .     S
C726   N807    1.366   .     A
C726   C1207   1.415   .     S
C727   N808    1.367   .     A
C727   H802    1.081   .     S
C728   H803    1.081   .     S
C728   C1205   1.415   .     S
C728   N567    1.366   1_565 S
C729   C756    1.485   .     S
C729   C740    1.407   .     A
C729   C748    1.412   .     A
C730   C747    1.414   .     A
C730   C757    1.482   .     S
C730   C741    1.404   .     A
C731   C738    1.403   .     A
C731   C758    1.491   .     S
C731   C747    1.414   .     A
C732   C749    1.467   .     S
C732   O820    1.286   .     A
C732   O831    1.298   .     A
C733   C748    1.410   .     A
C733   C759    1.494   .     S
C733   C739    1.405   .     A
C734   C750    1.419   .     A
C734   C745    1.402   .     A
C734   C760    1.485   .     S
C735   C749    1.422   .     A
C735   C761    1.490   .     S
C735   C746    1.405   .     A
C736   C742    1.400   .     A
C736   C749    1.414   .     A
C736   C762    1.494   .     S
C737   C750    1.415   .     A
C737   C744    1.405   .     A
C737   C763    1.492   .     S
C738   C764    1.485   .     S
C738   C752    1.411   .     A
C739   C751    1.412   .     A
C739   C766    1.481   .     S
C740   C767    1.496   .     S
C740   C751    1.412   .     A
C741   C768    1.494   .     S
C741   C752    1.410   .     A
C742   C755    1.419   .     A
C742   C769    1.485   .     S
C743   O839    1.287   .     A
C743   O836    1.288   .     A
C743   C748    1.454   .     S
C744   C770    1.491   .     S
C744   C753    1.422   .     A
C745   C771    1.494   .     S
C745   C753    1.414   .     A
C746   C772    1.492   .     S
C746   C755    1.415   .     A
C747   C754    1.455   .     S
C751   C775    1.455   .     S
C752   C774    1.454   .     S
C753   C773    1.467   .     S
C754   O838    1.289   .     A
C754   O837    1.288   .     A
C755   C765    1.470   .     S
C756   O817    1.221   .     D
C756   H804    1.084   .     S
C757   H782    1.083   .     S
C757   O818    1.221   .     D
C758   H783    1.083   .     S
C758   O819    1.220   .     D
C759   O821    1.221   .     D
C759   H784    1.085   .     S
C760   O822    1.221   .     D
C760   H785    1.078   .     S
C761   O823    1.220   .     D
C761   H786    1.084   .     S
C762   H787    1.084   .     S
C762   O824    1.221   .     D
C763   O825    1.221   .     D
C763   H788    1.086   .     S
C764   O826    1.221   .     D
C764   H789    1.083   .     S
C765   O812    1.297   .     A
C765   O840    1.289   .     A
C766   O827    1.221   .     D
C766   H790    1.081   .     S
C767   H791    1.082   .     S
C767   O828    1.221   .     D
C768   O829    1.221   .     D
C768   H793    1.085   .     S
C769   H794    1.078   .     S
C769   O830    1.221   .     D
C770   O832    1.221   .     D
C770   H795    1.083   .     S
C771   O833    1.221   .     D
C771   H796    1.083   .     S
C772   O834    1.221   .     D
C772   H797    1.086   .     S
C773   O811    1.298   .     A
C773   O810    1.285   .     A
C774   O813    1.287   .     A
C774   O816    1.288   .     A
C775   O814    1.288   .     A
C775   O815    1.288   .     A
C776   H781    1.080   .     S
C776   N926    1.366   .     S
Cu777  O951    1.980   1_455 S
Cu777  O959    1.964   1_455 S
Cu777  N805    2.010   .     S
Cu777  Cu778   2.674   .     S
Cu777  O809    1.987   .     S
Cu777  O837    1.970   .     S
Cu778  O838    1.964   .     S
Cu778  N806    2.010   .     S
Cu778  O835    1.980   .     S
Cu778  O940    1.987   1_455 S
Cu778  O956    1.970   1_455 S
Cu779  O814    1.970   .     S
Cu779  Cu780   2.674   .     S
Cu779  O811    1.980   .     S
Cu779  N807    2.010   .     S
Cu780  N808    2.010   .     S
Cu780  O810    1.987   .     S
Cu780  O815    1.964   .     S
N805   C844    1.367   1_455 A
N806   C896    1.366   1_455 S
O812   Cu540   1.980   1_565 S
O813   Cu540   1.970   1_565 S
O816   Cu539   1.964   1_565 S
O820   Cu898   1.987   .     S
O831   Cu897   1.980   .     S
O836   Cu898   1.970   .     S
O839   Cu897   1.964   .     S
O840   Cu539   1.987   1_565 S
C841   O929    1.289   .     A
C841   C870    1.470   .     S
C841   O955    1.296   .     A
C842   H912    1.080   .     S
C842   C1323   1.415   .     S
C842   N925    1.367   .     S
C843   N926    1.366   .     A
C843   H918    1.081   .     S
C844   H919    1.082   .     S
C844   N805    1.367   1_655 A
C844   C1376   1.415   .     S
C845   H920    1.080   .     S
C845   N688    1.366   1_565 S
C846   H921    1.081   .     S
C846   N927    1.366   .     A
C846   C1327   1.415   .     S
C847   N928    1.367   .     A
C847   H922    1.081   .     S
C848   H923    1.081   .     S
C848   C1325   1.415   .     S
C848   N687    1.366   1_565 S
C849   C876    1.485   .     S
C849   C860    1.407   .     A
C849   C868    1.412   .     A
C850   C867    1.414   .     A
C850   C877    1.482   .     S
C850   C861    1.404   .     A
C851   C858    1.403   .     A
C851   C878    1.491   .     S
C851   C867    1.414   .     A
C852   C869    1.467   .     S
C852   O940    1.286   .     A
C852   O951    1.298   .     A
C853   C868    1.410   .     A
C853   C879    1.494   .     S
C853   C859    1.405   .     A
C854   C870    1.419   .     A
C854   C865    1.402   .     A
C854   C880    1.485   .     S
C855   C869    1.422   .     A
C855   C881    1.490   .     S
C855   C866    1.405   .     A
C856   C862    1.400   .     A
C856   C869    1.414   .     A
C856   C882    1.494   .     S
C857   C870    1.415   .     A
C857   C864    1.405   .     A
C857   C883    1.492   .     S
C858   C884    1.485   .     S
C858   C872    1.411   .     A
C859   C871    1.412   .     A
C859   C886    1.481   .     S
C860   C887    1.496   .     S
C860   C871    1.412   .     A
C861   C888    1.494   .     S
C861   C872    1.410   .     A
C862   C875    1.419   .     A
C862   C889    1.485   .     S
C863   O959    1.287   .     A
C863   O956    1.288   .     A
C863   C868    1.454   .     S
C864   C890    1.491   .     S
C864   C873    1.422   .     A
C865   C891    1.494   .     S
C865   C873    1.414   .     A
C866   C892    1.492   .     S
C866   C875    1.415   .     A
C867   C874    1.455   .     S
C871   C895    1.455   .     S
C872   C894    1.454   .     S
C873   C893    1.467   .     S
C874   O958    1.289   .     A
C874   O957    1.288   .     A
C875   C885    1.470   .     S
C876   O937    1.221   .     D
C876   H924    1.084   .     S
C877   H902    1.083   .     S
C877   O938    1.221   .     D
C878   H903    1.083   .     S
C878   O939    1.220   .     D
C879   O941    1.221   .     D
C879   H904    1.085   .     S
C880   O942    1.221   .     D
C880   H905    1.078   .     S
C881   O943    1.220   .     D
C881   H906    1.084   .     S
C882   H907    1.084   .     S
C882   O944    1.221   .     D
C883   O945    1.221   .     D
C883   H908    1.086   .     S
C884   O946    1.221   .     D
C884   H909    1.083   .     S
C885   O932    1.297   .     A
C885   O960    1.289   .     A
C886   O947    1.221   .     D
C886   H910    1.081   .     S
C887   H911    1.082   .     S
C887   O948    1.221   .     D
C888   O949    1.221   .     D
C888   H913    1.085   .     S
C889   H914    1.078   .     S
C889   O950    1.221   .     D
C890   O952    1.221   .     D
C890   H915    1.083   .     S
C891   O953    1.221   .     D
C891   H916    1.083   .     S
C892   O954    1.221   .     D
C892   H917    1.086   .     S
C893   O931    1.298   .     A
C893   O930    1.285   .     A
C894   O933    1.287   .     A
C894   O936    1.288   .     A
C895   O934    1.288   .     A
C895   O935    1.288   .     A
C896   H901    1.080   .     S
C896   N806    1.366   1_655 S
Cu897  N925    2.010   .     S
Cu897  Cu898   2.674   .     S
Cu897  O929    1.987   .     S
Cu897  O957    1.970   .     S
Cu898  O958    1.964   .     S
Cu898  N926    2.010   .     S
Cu898  O955    1.980   .     S
Cu899  O934    1.970   .     S
Cu899  Cu900   2.674   .     S
Cu899  O931    1.980   .     S
Cu899  N927    2.010   .     S
Cu900  N928    2.010   .     S
Cu900  O930    1.987   .     S
Cu900  O935    1.964   .     S
O932   Cu660   1.980   1_565 S
O933   Cu660   1.970   1_565 S
O936   Cu659   1.964   1_565 S
O940   Cu778   1.987   1_655 S
O951   Cu777   1.980   1_655 S
O956   Cu778   1.970   1_655 S
O959   Cu777   1.964   1_655 S
O960   Cu659   1.987   1_565 S
C961   O1049   1.289   .     A
C961   C990    1.470   .     S
C961   O1075   1.296   .     A
C962   H1032   1.080   .     S
C962   C3      1.415   1_556 S
C962   N1045   1.367   .     S
C963   N1046   1.366   .     A
C963   H1038   1.081   .     S
C964   H1039   1.082   .     S
C964   N1165   1.367   .     A
C964   C56     1.415   1_556 S
C965   H1040   1.080   .     S
C965   N1288   1.366   .     S
C966   H1041   1.081   .     S
C966   N1047   1.366   .     A
C966   C7      1.415   1_556 S
C967   N1048   1.367   .     A
C967   H1042   1.081   .     S
C968   H1043   1.081   .     S
C968   C5      1.415   1_556 S
C968   N1287   1.366   .     S
C969   C996    1.485   .     S
C969   C980    1.407   .     A
C969   C988    1.412   .     A
C970   C987    1.414   .     A
C970   C997    1.482   .     S
C970   C981    1.404   .     A
C971   C978    1.403   .     A
C971   C998    1.491   .     S
C971   C987    1.414   .     A
C972   C989    1.467   .     S
C972   O1060   1.286   .     A
C972   O1071   1.298   .     A
C973   C988    1.410   .     A
C973   C999    1.494   .     S
C973   C979    1.405   .     A
C974   C990    1.419   .     A
C974   C985    1.402   .     A
C974   C1000   1.485   .     S
C975   C989    1.422   .     A
C975   C1001   1.490   .     S
C975   C986    1.405   .     A
C976   C982    1.400   .     A
C976   C989    1.414   .     A
C976   C1002   1.494   .     S
C977   C990    1.415   .     A
C977   C984    1.405   .     A
C977   C1003   1.492   .     S
C978   C1004   1.485   .     S
C978   C992    1.411   .     A
C979   C991    1.412   .     A
C979   C1006   1.481   .     S
C980   C1007   1.496   .     S
C980   C991    1.412   .     A
C981   C1008   1.494   .     S
C981   C992    1.410   .     A
C982   C995    1.419   .     A
C982   C1009   1.485   .     S
C983   O1079   1.287   .     A
C983   O1076   1.288   .     A
C983   C988    1.454   .     S
C984   C1010   1.491   .     S
C984   C993    1.422   .     A
C985   C1011   1.494   .     S
C985   C993    1.414   .     A
C986   C1012   1.492   .     S
C986   C995    1.415   .     A
C987   C994    1.455   .     S
C991   C1015   1.455   .     S
C992   C1014   1.454   .     S
C993   C1013   1.467   .     S
C994   O1078   1.289   .     A
C994   O1077   1.288   .     A
C995   C1005   1.470   .     S
C996   O1057   1.221   .     D
C996   H1044   1.084   .     S
C997   H1022   1.083   .     S
C997   O1058   1.221   .     D
C998   H1023   1.083   .     S
C998   O1059   1.220   .     D
C999   O1061   1.221   .     D
C999   H1024   1.085   .     S
C1000  O1062   1.221   .     D
C1000  H1025   1.078   .     S
C1001  O1063   1.220   .     D
C1001  H1026   1.084   .     S
C1002  H1027   1.084   .     S
C1002  O1064   1.221   .     D
C1003  O1065   1.221   .     D
C1003  H1028   1.086   .     S
C1004  O1066   1.221   .     D
C1004  H1029   1.083   .     S
C1005  O1052   1.297   .     A
C1005  O1080   1.289   .     A
C1006  O1067   1.221   .     D
C1006  H1030   1.081   .     S
C1007  H1031   1.082   .     S
C1007  O1068   1.221   .     D
C1008  O1069   1.221   .     D
C1008  H1033   1.085   .     S
C1009  H1034   1.078   .     S
C1009  O1070   1.221   .     D
C1010  O1072   1.221   .     D
C1010  H1035   1.083   .     S
C1011  O1073   1.221   .     D
C1011  H1036   1.083   .     S
C1012  O1074   1.221   .     D
C1012  H1037   1.086   .     S
C1013  O1051   1.298   .     A
C1013  O1050   1.285   .     A
C1014  O1053   1.287   .     A
C1014  O1056   1.288   .     A
C1015  O1054   1.288   .     A
C1015  O1055   1.288   .     A
C1016  H1021   1.080   .     S
C1016  N1166   1.366   .     S
Cu1017 O1191   1.980   1_455 S
Cu1017 O1199   1.964   1_455 S
Cu1017 N1045   2.010   .     S
Cu1017 Cu1018  2.674   .     S
Cu1017 O1049   1.987   .     S
Cu1017 O1077   1.970   .     S
Cu1018 O1078   1.964   .     S
Cu1018 N1046   2.010   .     S
Cu1018 O1075   1.980   .     S
Cu1018 O1180   1.987   1_455 S
Cu1018 O1196   1.970   1_455 S
Cu1019 O1054   1.970   .     S
Cu1019 Cu1020  2.674   .     S
Cu1019 O1051   1.980   .     S
Cu1019 N1047   2.010   .     S
Cu1019 O1296   1.964   1_545 S
Cu1019 O1320   1.987   1_545 S
Cu1020 N1048   2.010   .     S
Cu1020 O1050   1.987   .     S
Cu1020 O1055   1.964   .     S
Cu1020 O1292   1.980   1_545 S
Cu1020 O1293   1.970   1_545 S
N1045  C1084   1.367   1_455 A
N1046  C1136   1.366   1_455 S
N1047  C1208   1.366   1_545 S
N1048  C1205   1.366   1_545 S
O1052  Cu1260  1.980   .     S
O1053  Cu1260  1.970   .     S
O1056  Cu1259  1.964   .     S
O1060  Cu1138  1.987   .     S
O1071  Cu1137  1.980   .     S
O1076  Cu1138  1.970   .     S
O1079  Cu1137  1.964   .     S
O1080  Cu1259  1.987   .     S
C1081  O1169   1.289   .     A
C1081  C1110   1.470   .     S
C1081  O1195   1.296   .     A
C1082  H1152   1.080   .     S
C1082  C123    1.415   1_556 S
C1082  N1165   1.367   .     S
C1083  N1166   1.366   .     A
C1083  H1158   1.081   .     S
C1084  H1159   1.082   .     S
C1084  N1045   1.367   1_655 A
C1084  C176    1.415   1_556 S
C1085  H1160   1.080   .     S
C1085  N1408   1.366   .     S
C1086  H1161   1.081   .     S
C1086  N1167   1.366   .     A
C1086  C127    1.415   1_556 S
C1087  N1168   1.367   .     A
C1087  H1162   1.081   .     S
C1088  H1163   1.081   .     S
C1088  C125    1.415   1_556 S
C1088  N1407   1.366   .     S
C1089  C1116   1.485   .     S
C1089  C1100   1.407   .     A
C1089  C1108   1.412   .     A
C1090  C1107   1.414   .     A
C1090  C1117   1.482   .     S
C1090  C1101   1.404   .     A
C1091  C1098   1.403   .     A
C1091  C1118   1.491   .     S
C1091  C1107   1.414   .     A
C1092  C1109   1.467   .     S
C1092  O1180   1.286   .     A
C1092  O1191   1.298   .     A
C1093  C1108   1.410   .     A
C1093  C1119   1.494   .     S
C1093  C1099   1.405   .     A
C1094  C1110   1.419   .     A
C1094  C1105   1.402   .     A
C1094  C1120   1.485   .     S
C1095  C1109   1.422   .     A
C1095  C1121   1.490   .     S
C1095  C1106   1.405   .     A
C1096  C1102   1.400   .     A
C1096  C1109   1.414   .     A
C1096  C1122   1.494   .     S
C1097  C1110   1.415   .     A
C1097  C1104   1.405   .     A
C1097  C1123   1.492   .     S
C1098  C1124   1.485   .     S
C1098  C1112   1.411   .     A
C1099  C1111   1.412   .     A
C1099  C1126   1.481   .     S
C1100  C1127   1.496   .     S
C1100  C1111   1.412   .     A
C1101  C1128   1.494   .     S
C1101  C1112   1.410   .     A
C1102  C1115   1.419   .     A
C1102  C1129   1.485   .     S
C1103  O1199   1.287   .     A
C1103  O1196   1.288   .     A
C1103  C1108   1.454   .     S
C1104  C1130   1.491   .     S
C1104  C1113   1.422   .     A
C1105  C1131   1.494   .     S
C1105  C1113   1.414   .     A
C1106  C1132   1.492   .     S
C1106  C1115   1.415   .     A
C1107  C1114   1.455   .     S
C1111  C1135   1.455   .     S
C1112  C1134   1.454   .     S
C1113  C1133   1.467   .     S
C1114  O1198   1.289   .     A
C1114  O1197   1.288   .     A
C1115  C1125   1.470   .     S
C1116  O1177   1.221   .     D
C1116  H1164   1.084   .     S
C1117  H1142   1.083   .     S
C1117  O1178   1.221   .     D
C1118  H1143   1.083   .     S
C1118  O1179   1.220   .     D
C1119  O1181   1.221   .     D
C1119  H1144   1.085   .     S
C1120  O1182   1.221   .     D
C1120  H1145   1.078   .     S
C1121  O1183   1.220   .     D
C1121  H1146   1.084   .     S
C1122  H1147   1.084   .     S
C1122  O1184   1.221   .     D
C1123  O1185   1.221   .     D
C1123  H1148   1.086   .     S
C1124  O1186   1.221   .     D
C1124  H1149   1.083   .     S
C1125  O1172   1.297   .     A
C1125  O1200   1.289   .     A
C1126  O1187   1.221   .     D
C1126  H1150   1.081   .     S
C1127  H1151   1.082   .     S
C1127  O1188   1.221   .     D
C1128  O1189   1.221   .     D
C1128  H1153   1.085   .     S
C1129  H1154   1.078   .     S
C1129  O1190   1.221   .     D
C1130  O1192   1.221   .     D
C1130  H1155   1.083   .     S
C1131  O1193   1.221   .     D
C1131  H1156   1.083   .     S
C1132  O1194   1.221   .     D
C1132  H1157   1.086   .     S
C1133  O1171   1.298   .     A
C1133  O1170   1.285   .     A
C1134  O1173   1.287   .     A
C1134  O1176   1.288   .     A
C1135  O1174   1.288   .     A
C1135  O1175   1.288   .     A
C1136  H1141   1.080   .     S
C1136  N1046   1.366   1_655 S
Cu1137 N1165   2.010   .     S
Cu1137 Cu1138  2.674   .     S
Cu1137 O1169   1.987   .     S
Cu1137 O1197   1.970   .     S
Cu1138 O1198   1.964   .     S
Cu1138 N1166   2.010   .     S
Cu1138 O1195   1.980   .     S
Cu1139 O1174   1.970   .     S
Cu1139 Cu1140  2.674   .     S
Cu1139 O1171   1.980   .     S
Cu1139 N1167   2.010   .     S
Cu1139 O1416   1.964   1_545 S
Cu1139 O1440   1.987   1_545 S
Cu1140 N1168   2.010   .     S
Cu1140 O1170   1.987   .     S
Cu1140 O1175   1.964   .     S
Cu1140 O1412   1.980   1_545 S
Cu1140 O1413   1.970   1_545 S
N1167  C1328   1.366   1_545 S
N1168  C1325   1.366   1_545 S
O1172  Cu1380  1.980   .     S
O1173  Cu1380  1.970   .     S
O1176  Cu1379  1.964   .     S
O1180  Cu1018  1.987   1_655 S
O1191  Cu1017  1.980   1_655 S
O1196  Cu1018  1.970   1_655 S
O1199  Cu1017  1.964   1_655 S
O1200  Cu1379  1.987   .     S
C1201  O1289   1.289   .     A
C1201  C1230   1.470   .     S
C1201  O1315   1.296   .     A
C1202  H1272   1.080   .     S
C1202  C243    1.415   1_556 S
C1202  N1285   1.367   .     S
C1203  N1286   1.366   .     A
C1203  H1278   1.081   .     S
C1204  H1279   1.082   .     S
C1204  N1405   1.367   .     A
C1204  C296    1.415   1_556 S
C1205  H1280   1.080   .     S
C1205  N1048   1.366   1_565 S
C1206  H1281   1.081   .     S
C1206  N1287   1.366   .     A
C1206  C247    1.415   1_556 S
C1207  N1288   1.367   .     A
C1207  H1282   1.081   .     S
C1208  H1283   1.081   .     S
C1208  C245    1.415   1_556 S
C1208  N1047   1.366   1_565 S
C1209  C1236   1.485   .     S
C1209  C1220   1.407   .     A
C1209  C1228   1.412   .     A
C1210  C1227   1.414   .     A
C1210  C1237   1.482   .     S
C1210  C1221   1.404   .     A
C1211  C1218   1.403   .     A
C1211  C1238   1.491   .     S
C1211  C1227   1.414   .     A
C1212  C1229   1.467   .     S
C1212  O1300   1.286   .     A
C1212  O1311   1.298   .     A
C1213  C1228   1.410   .     A
C1213  C1239   1.494   .     S
C1213  C1219   1.405   .     A
C1214  C1230   1.419   .     A
C1214  C1225   1.402   .     A
C1214  C1240   1.485   .     S
C1215  C1229   1.422   .     A
C1215  C1241   1.490   .     S
C1215  C1226   1.405   .     A
C1216  C1222   1.400   .     A
C1216  C1229   1.414   .     A
C1216  C1242   1.494   .     S
C1217  C1230   1.415   .     A
C1217  C1224   1.405   .     A
C1217  C1243   1.492   .     S
C1218  C1244   1.485   .     S
C1218  C1232   1.411   .     A
C1219  C1231   1.412   .     A
C1219  C1246   1.481   .     S
C1220  C1247   1.496   .     S
C1220  C1231   1.412   .     A
C1221  C1248   1.494   .     S
C1221  C1232   1.410   .     A
C1222  C1235   1.419   .     A
C1222  C1249   1.485   .     S
C1223  O1319   1.287   .     A
C1223  O1316   1.288   .     A
C1223  C1228   1.454   .     S
C1224  C1250   1.491   .     S
C1224  C1233   1.422   .     A
C1225  C1251   1.494   .     S
C1225  C1233   1.414   .     A
C1226  C1252   1.492   .     S
C1226  C1235   1.415   .     A
C1227  C1234   1.455   .     S
C1231  C1255   1.455   .     S
C1232  C1254   1.454   .     S
C1233  C1253   1.467   .     S
C1234  O1318   1.289   .     A
C1234  O1317   1.288   .     A
C1235  C1245   1.470   .     S
C1236  O1297   1.221   .     D
C1236  H1284   1.084   .     S
C1237  H1262   1.083   .     S
C1237  O1298   1.221   .     D
C1238  H1263   1.083   .     S
C1238  O1299   1.220   .     D
C1239  O1301   1.221   .     D
C1239  H1264   1.085   .     S
C1240  O1302   1.221   .     D
C1240  H1265   1.078   .     S
C1241  O1303   1.220   .     D
C1241  H1266   1.084   .     S
C1242  H1267   1.084   .     S
C1242  O1304   1.221   .     D
C1243  O1305   1.221   .     D
C1243  H1268   1.086   .     S
C1244  O1306   1.221   .     D
C1244  H1269   1.083   .     S
C1245  O1292   1.297   .     A
C1245  O1320   1.289   .     A
C1246  O1307   1.221   .     D
C1246  H1270   1.081   .     S
C1247  H1271   1.082   .     S
C1247  O1308   1.221   .     D
C1248  O1309   1.221   .     D
C1248  H1273   1.085   .     S
C1249  H1274   1.078   .     S
C1249  O1310   1.221   .     D
C1250  O1312   1.221   .     D
C1250  H1275   1.083   .     S
C1251  O1313   1.221   .     D
C1251  H1276   1.083   .     S
C1252  O1314   1.221   .     D
C1252  H1277   1.086   .     S
C1253  O1291   1.298   .     A
C1253  O1290   1.285   .     A
C1254  O1293   1.287   .     A
C1254  O1296   1.288   .     A
C1255  O1294   1.288   .     A
C1255  O1295   1.288   .     A
C1256  H1261   1.080   .     S
C1256  N1406   1.366   .     S
Cu1257 O1431   1.980   1_455 S
Cu1257 O1439   1.964   1_455 S
Cu1257 N1285   2.010   .     S
Cu1257 Cu1258  2.674   .     S
Cu1257 O1289   1.987   .     S
Cu1257 O1317   1.970   .     S
Cu1258 O1318   1.964   .     S
Cu1258 N1286   2.010   .     S
Cu1258 O1315   1.980   .     S
Cu1258 O1420   1.987   1_455 S
Cu1258 O1436   1.970   1_455 S
Cu1259 O1294   1.970   .     S
Cu1259 Cu1260  2.674   .     S
Cu1259 O1291   1.980   .     S
Cu1259 N1287   2.010   .     S
Cu1260 N1288   2.010   .     S
Cu1260 O1290   1.987   .     S
Cu1260 O1295   1.964   .     S
N1285  C1324   1.367   1_455 A
N1286  C1376   1.366   1_455 S
O1292  Cu1020  1.980   1_565 S
O1293  Cu1020  1.970   1_565 S
O1296  Cu1019  1.964   1_565 S
O1300  Cu1378  1.987   .     S
O1311  Cu1377  1.980   .     S
O1316  Cu1378  1.970   .     S
O1319  Cu1377  1.964   .     S
O1320  Cu1019  1.987   1_565 S
C1321  O1409   1.289   .     A
C1321  C1350   1.470   .     S
C1321  O1435   1.296   .     A
C1322  H1392   1.080   .     S
C1322  C363    1.415   1_556 S
C1322  N1405   1.367   .     S
C1323  N1406   1.366   .     A
C1323  H1398   1.081   .     S
C1324  H1399   1.082   .     S
C1324  N1285   1.367   1_655 A
C1324  C416    1.415   1_556 S
C1325  H1400   1.080   .     S
C1325  N1168   1.366   1_565 S
C1326  H1401   1.081   .     S
C1326  N1407   1.366   .     A
C1326  C367    1.415   1_556 S
C1327  N1408   1.367   .     A
C1327  H1402   1.081   .     S
C1328  H1403   1.081   .     S
C1328  C365    1.415   1_556 S
C1328  N1167   1.366   1_565 S
C1329  C1356   1.485   .     S
C1329  C1340   1.407   .     A
C1329  C1348   1.412   .     A
C1330  C1347   1.414   .     A
C1330  C1357   1.482   .     S
C1330  C1341   1.404   .     A
C1331  C1338   1.403   .     A
C1331  C1358   1.491   .     S
C1331  C1347   1.414   .     A
C1332  C1349   1.467   .     S
C1332  O1420   1.286   .     A
C1332  O1431   1.298   .     A
C1333  C1348   1.410   .     A
C1333  C1359   1.494   .     S
C1333  C1339   1.405   .     A
C1334  C1350   1.419   .     A
C1334  C1345   1.402   .     A
C1334  C1360   1.485   .     S
C1335  C1349   1.422   .     A
C1335  C1361   1.490   .     S
C1335  C1346   1.405   .     A
C1336  C1342   1.400   .     A
C1336  C1349   1.414   .     A
C1336  C1362   1.494   .     S
C1337  C1350   1.415   .     A
C1337  C1344   1.405   .     A
C1337  C1363   1.492   .     S
C1338  C1364   1.485   .     S
C1338  C1352   1.411   .     A
C1339  C1351   1.412   .     A
C1339  C1366   1.481   .     S
C1340  C1367   1.496   .     S
C1340  C1351   1.412   .     A
C1341  C1368   1.494   .     S
C1341  C1352   1.410   .     A
C1342  C1355   1.419   .     A
C1342  C1369   1.485   .     S
C1343  O1439   1.287   .     A
C1343  O1436   1.288   .     A
C1343  C1348   1.454   .     S
C1344  C1370   1.491   .     S
C1344  C1353   1.422   .     A
C1345  C1371   1.494   .     S
C1345  C1353   1.414   .     A
C1346  C1372   1.492   .     S
C1346  C1355   1.415   .     A
C1347  C1354   1.455   .     S
C1351  C1375   1.455   .     S
C1352  C1374   1.454   .     S
C1353  C1373   1.467   .     S
C1354  O1438   1.289   .     A
C1354  O1437   1.288   .     A
C1355  C1365   1.470   .     S
C1356  O1417   1.221   .     D
C1356  H1404   1.084   .     S
C1357  H1382   1.083   .     S
C1357  O1418   1.221   .     D
C1358  H1383   1.083   .     S
C1358  O1419   1.220   .     D
C1359  O1421   1.221   .     D
C1359  H1384   1.085   .     S
C1360  O1422   1.221   .     D
C1360  H1385   1.078   .     S
C1361  O1423   1.220   .     D
C1361  H1386   1.084   .     S
C1362  H1387   1.084   .     S
C1362  O1424   1.221   .     D
C1363  O1425   1.221   .     D
C1363  H1388   1.086   .     S
C1364  O1426   1.221   .     D
C1364  H1389   1.083   .     S
C1365  O1412   1.297   .     A
C1365  O1440   1.289   .     A
C1366  O1427   1.221   .     D
C1366  H1390   1.081   .     S
C1367  H1391   1.082   .     S
C1367  O1428   1.221   .     D
C1368  O1429   1.221   .     D
C1368  H1393   1.085   .     S
C1369  H1394   1.078   .     S
C1369  O1430   1.221   .     D
C1370  O1432   1.221   .     D
C1370  H1395   1.083   .     S
C1371  O1433   1.221   .     D
C1371  H1396   1.083   .     S
C1372  O1434   1.221   .     D
C1372  H1397   1.086   .     S
C1373  O1411   1.298   .     A
C1373  O1410   1.285   .     A
C1374  O1413   1.287   .     A
C1374  O1416   1.288   .     A
C1375  O1414   1.288   .     A
C1375  O1415   1.288   .     A
C1376  H1381   1.080   .     S
C1376  N1286   1.366   1_655 S
Cu1377 N1405   2.010   .     S
Cu1377 Cu1378  2.674   .     S
Cu1377 O1409   1.987   .     S
Cu1377 O1437   1.970   .     S
Cu1378 O1438   1.964   .     S
Cu1378 N1406   2.010   .     S
Cu1378 O1435   1.980   .     S
Cu1379 O1414   1.970   .     S
Cu1379 Cu1380  2.674   .     S
Cu1379 O1411   1.980   .     S
Cu1379 N1407   2.010   .     S
Cu1380 N1408   2.010   .     S
Cu1380 O1410   1.987   .     S
Cu1380 O1415   1.964   .     S
O1412  Cu1140  1.980   1_565 S
O1413  Cu1140  1.970   1_565 S
O1416  Cu1139  1.964   1_565 S
O1420  Cu1258  1.987   1_655 S
O1431  Cu1257  1.980   1_655 S
O1436  Cu1258  1.970   1_655 S
O1439  Cu1257  1.964   1_655 S
O1440  Cu1139  1.987   1_565 S
