data_str_m2_o1_o16_pcu_sym.41
_audit_creation_date              2020-01-03
_audit_creation_method            'Materials Studio'
_symmetry_space_group_name_H-M    'P1'
_symmetry_Int_Tables_number       1
_symmetry_cell_setting            triclinic
loop_
_symmetry_equiv_pos_as_xyz
  x,y,z
_cell_length_a                    28.5860
_cell_length_b                    32.4962
_cell_length_c                    26.9626
_cell_angle_alpha                 90.5245
_cell_angle_beta                  72.7433
_cell_angle_gamma                 90.1938
loop_
_atom_site_label
_atom_site_type_symbol
_atom_site_fract_x
_atom_site_fract_y
_atom_site_fract_z
_atom_site_U_iso_or_equiv
_atom_site_adp_type
_atom_site_occupancy
C1     C     0.16670   0.24597   0.25007   0.00000  Uiso   1.00
C2     C     0.12561   0.16814   0.40717   0.00000  Uiso   1.00
C3     C     0.20933   0.31219   0.24955   0.00000  Uiso   1.00
C4     C     0.14059   0.16527   0.35004   0.00000  Uiso   1.00
C5     C     0.20928   0.02143   0.24953   0.00000  Uiso   1.00
C6     C     0.16660   0.04275   0.25004   0.00000  Uiso   1.00
C7     C     0.12396   0.02115   0.25061   0.00000  Uiso   1.00
C8     C     0.12400   0.31191   0.25068   0.00000  Uiso   1.00
C9     C     0.16670   0.29059   0.25012   0.00000  Uiso   1.00
C10    C     0.30005   0.19223   0.28274   0.00000  Uiso   1.00
C11    C     0.01615   0.19196   0.28266   0.00000  Uiso   1.00
C12    C     0.14989   0.17574   0.48673   0.00000  Uiso   1.00
C13    C     0.03379   0.14129   0.21725   0.00000  Uiso   1.00
C14    C     0.31752   0.14128   0.21728   0.00000  Uiso   1.00
C15    C     0.16662   0.08737   0.24999   0.00000  Uiso   1.00
C16    C     0.19281   0.16626   0.15011   0.00000  Uiso   1.00
C17    C     0.26674   0.14452   0.01214   0.00000  Uiso   1.00
C18    C     0.20797   0.16400   0.09343   0.00000  Uiso   1.00
C19    C     0.08059   0.18665   0.43224   0.00000  Uiso   1.00
C20    C     0.07171   0.20332   0.48173   0.00000  Uiso   1.00
C21    C     0.10766   0.20114   0.00748   0.00000  Uiso   1.00
C22    C     0.15894   0.15960   0.43558   0.00000  Uiso   1.00
C23    C     0.18449   0.16676   0.01381   0.00000  Uiso   1.00
C24    C     0.23069   0.14950   0.48697   0.00000  Uiso   1.00
C25    C     0.23869   0.13408   0.43695   0.00000  Uiso   1.00
C26    C     0.20178   0.13612   0.41345   0.00000  Uiso   1.00
C27    C     0.17276   0.17024   0.06775   0.00000  Uiso   1.00
C28    C     0.25577   0.15285   0.06509   0.00000  Uiso   1.00
Cl29   Cl    0.26070   0.22667   0.32599   0.00000  Uiso   1.00
Cl30   Cl    0.10295   0.23762   0.05807   0.00000  Uiso   1.00
Cl31   Cl    0.01697   0.23111   0.00801   0.00000  Uiso   1.00
Cu32   Cu    0.11978   0.16666   0.25000   0.00000  Uiso   1.00
Cu33   Cu    0.21355   0.16667   0.25000   0.00000  Uiso   1.00
H34    H     0.28355   0.14782   0.08432   0.00000  Uiso   1.00
H35    H     0.13520   0.17474   0.09062   0.00000  Uiso   1.00
H36    H     0.05403   0.19199   0.41148   0.00000  Uiso   1.00
H37    H     0.20759   0.11904   0.37758   0.00000  Uiso   1.00
H38    H     0.24272   0.29630   0.24905   0.00000  Uiso   1.00
H39    H     0.24264   0.03754   0.24906   0.00000  Uiso   1.00
H40    H     0.09060   0.03705   0.25102   0.00000  Uiso   1.00
H41    H     0.09064   0.29579   0.25115   0.00000  Uiso   1.00
H42    H     0.02803   0.21218   0.30869   0.00000  Uiso   1.00
H43    H     0.05968   0.12092   0.19102   0.00000  Uiso   1.00
H44    H     0.30606   0.12094   0.19109   0.00000  Uiso   1.00
H45    H     0.27234   0.11801   0.41726   0.00000  Uiso   1.00
H46    H     0.30270   0.13269   0.49137   0.00000  Uiso   1.00
N47    N     0.04931   0.16666   0.24999   0.00000  Uiso   1.00
N48    N     0.28402   0.16669   0.25000   0.00000  Uiso   1.00
O49    O     0.12708   0.22678   0.25001   0.00000  Uiso   1.00
O50    O     0.20627   0.22679   0.25001   0.00000  Uiso   1.00
O51    O     0.10775   0.16665   0.32549   0.00000  Uiso   1.00
O52    O     0.18694   0.16666   0.32549   0.00000  Uiso   1.00
O53    O     0.12706   0.10654   0.25000   0.00000  Uiso   1.00
O54    O     0.20625   0.10655   0.25000   0.00000  Uiso   1.00
O55    O     0.14640   0.16667   0.17451   0.00000  Uiso   1.00
O56    O     0.22559   0.16668   0.17451   0.00000  Uiso   1.00
C57    C     0.50004   0.24597   0.25007   0.00000  Uiso   1.00
C58    C     0.45894   0.16814   0.40717   0.00000  Uiso   1.00
C59    C     0.54266   0.31219   0.24955   0.00000  Uiso   1.00
C60    C     0.47393   0.16527   0.35004   0.00000  Uiso   1.00
C61    C     0.54261   0.02143   0.24953   0.00000  Uiso   1.00
C62    C     0.49993   0.04275   0.25004   0.00000  Uiso   1.00
C63    C     0.45729   0.02115   0.25061   0.00000  Uiso   1.00
C64    C     0.45733   0.31191   0.25068   0.00000  Uiso   1.00
C65    C     0.50003   0.29059   0.25012   0.00000  Uiso   1.00
C66    C     0.63338   0.19223   0.28274   0.00000  Uiso   1.00
C67    C     0.34948   0.19196   0.28266   0.00000  Uiso   1.00
C68    C     0.48322   0.17574   0.48673   0.00000  Uiso   1.00
C69    C     0.36712   0.14129   0.21725   0.00000  Uiso   1.00
C70    C     0.65085   0.14128   0.21728   0.00000  Uiso   1.00
C71    C     0.49995   0.08737   0.24999   0.00000  Uiso   1.00
C72    C     0.52615   0.16626   0.15011   0.00000  Uiso   1.00
C73    C     0.60008   0.14452   0.01214   0.00000  Uiso   1.00
C74    C     0.54130   0.16400   0.09343   0.00000  Uiso   1.00
C75    C     0.41392   0.18665   0.43224   0.00000  Uiso   1.00
C76    C     0.40504   0.20332   0.48173   0.00000  Uiso   1.00
C77    C     0.44100   0.20114   0.00748   0.00000  Uiso   1.00
C78    C     0.49227   0.15960   0.43558   0.00000  Uiso   1.00
C79    C     0.51782   0.16676   0.01381   0.00000  Uiso   1.00
C80    C     0.56402   0.14950   0.48697   0.00000  Uiso   1.00
C81    C     0.57202   0.13408   0.43695   0.00000  Uiso   1.00
C82    C     0.53511   0.13612   0.41345   0.00000  Uiso   1.00
C83    C     0.50609   0.17024   0.06775   0.00000  Uiso   1.00
C84    C     0.58910   0.15285   0.06509   0.00000  Uiso   1.00
Cl85   Cl    0.59403   0.22667   0.32599   0.00000  Uiso   1.00
Cl86   Cl    0.43628   0.23762   0.05807   0.00000  Uiso   1.00
Cl87   Cl    0.35030   0.23111   0.00801   0.00000  Uiso   1.00
Cu88   Cu    0.45311   0.16666   0.25000   0.00000  Uiso   1.00
Cu89   Cu    0.54689   0.16667   0.25000   0.00000  Uiso   1.00
H90    H     0.61688   0.14782   0.08432   0.00000  Uiso   1.00
H91    H     0.46853   0.17474   0.09062   0.00000  Uiso   1.00
H92    H     0.38736   0.19199   0.41148   0.00000  Uiso   1.00
H93    H     0.54093   0.11904   0.37758   0.00000  Uiso   1.00
H94    H     0.57605   0.29630   0.24905   0.00000  Uiso   1.00
H95    H     0.57597   0.03754   0.24906   0.00000  Uiso   1.00
H96    H     0.42393   0.03705   0.25102   0.00000  Uiso   1.00
H97    H     0.42397   0.29579   0.25115   0.00000  Uiso   1.00
H98    H     0.36136   0.21218   0.30869   0.00000  Uiso   1.00
H99    H     0.39301   0.12092   0.19102   0.00000  Uiso   1.00
H100   H     0.63939   0.12094   0.19109   0.00000  Uiso   1.00
H101   H     0.60567   0.11801   0.41726   0.00000  Uiso   1.00
H102   H     0.63603   0.13269   0.49137   0.00000  Uiso   1.00
N103   N     0.38265   0.16666   0.24999   0.00000  Uiso   1.00
N104   N     0.61735   0.16669   0.25000   0.00000  Uiso   1.00
O105   O     0.46042   0.22678   0.25001   0.00000  Uiso   1.00
O106   O     0.53961   0.22679   0.25001   0.00000  Uiso   1.00
O107   O     0.44108   0.16665   0.32549   0.00000  Uiso   1.00
O108   O     0.52027   0.16666   0.32549   0.00000  Uiso   1.00
O109   O     0.46039   0.10654   0.25000   0.00000  Uiso   1.00
O110   O     0.53958   0.10655   0.25000   0.00000  Uiso   1.00
O111   O     0.47973   0.16667   0.17451   0.00000  Uiso   1.00
O112   O     0.55892   0.16668   0.17451   0.00000  Uiso   1.00
C113   C     0.83337   0.24597   0.25007   0.00000  Uiso   1.00
C114   C     0.79227   0.16814   0.40717   0.00000  Uiso   1.00
C115   C     0.87600   0.31219   0.24955   0.00000  Uiso   1.00
C116   C     0.80726   0.16527   0.35004   0.00000  Uiso   1.00
C117   C     0.87595   0.02143   0.24953   0.00000  Uiso   1.00
C118   C     0.83326   0.04275   0.25004   0.00000  Uiso   1.00
C119   C     0.79063   0.02115   0.25061   0.00000  Uiso   1.00
C120   C     0.79067   0.31191   0.25068   0.00000  Uiso   1.00
C121   C     0.83336   0.29059   0.25012   0.00000  Uiso   1.00
C122   C     0.96672   0.19223   0.28274   0.00000  Uiso   1.00
C123   C     0.68282   0.19196   0.28266   0.00000  Uiso   1.00
C124   C     0.81655   0.17574   0.48673   0.00000  Uiso   1.00
C125   C     0.70046   0.14129   0.21725   0.00000  Uiso   1.00
C126   C     0.98418   0.14128   0.21728   0.00000  Uiso   1.00
C127   C     0.83328   0.08737   0.24999   0.00000  Uiso   1.00
C128   C     0.85948   0.16626   0.15011   0.00000  Uiso   1.00
C129   C     0.93341   0.14452   0.01214   0.00000  Uiso   1.00
C130   C     0.87464   0.16400   0.09343   0.00000  Uiso   1.00
C131   C     0.74726   0.18665   0.43224   0.00000  Uiso   1.00
C132   C     0.73838   0.20332   0.48173   0.00000  Uiso   1.00
C133   C     0.77433   0.20114   0.00748   0.00000  Uiso   1.00
C134   C     0.82560   0.15960   0.43558   0.00000  Uiso   1.00
C135   C     0.85116   0.16676   0.01381   0.00000  Uiso   1.00
C136   C     0.89735   0.14950   0.48697   0.00000  Uiso   1.00
C137   C     0.90535   0.13408   0.43695   0.00000  Uiso   1.00
C138   C     0.86844   0.13612   0.41345   0.00000  Uiso   1.00
C139   C     0.83943   0.17024   0.06775   0.00000  Uiso   1.00
C140   C     0.92243   0.15285   0.06509   0.00000  Uiso   1.00
Cl141  Cl    0.92737   0.22667   0.32599   0.00000  Uiso   1.00
Cl142  Cl    0.76961   0.23762   0.05807   0.00000  Uiso   1.00
Cl143  Cl    0.68363   0.23111   0.00801   0.00000  Uiso   1.00
Cu144  Cu    0.78645   0.16666   0.25000   0.00000  Uiso   1.00
Cu145  Cu    0.88022   0.16667   0.25000   0.00000  Uiso   1.00
H146   H     0.95022   0.14782   0.08432   0.00000  Uiso   1.00
H147   H     0.80187   0.17474   0.09062   0.00000  Uiso   1.00
H148   H     0.72070   0.19199   0.41148   0.00000  Uiso   1.00
H149   H     0.87426   0.11904   0.37758   0.00000  Uiso   1.00
H150   H     0.90938   0.29630   0.24905   0.00000  Uiso   1.00
H151   H     0.90931   0.03754   0.24906   0.00000  Uiso   1.00
H152   H     0.75726   0.03705   0.25102   0.00000  Uiso   1.00
H153   H     0.75730   0.29579   0.25115   0.00000  Uiso   1.00
H154   H     0.69470   0.21218   0.30869   0.00000  Uiso   1.00
H155   H     0.72635   0.12092   0.19102   0.00000  Uiso   1.00
H156   H     0.97273   0.12094   0.19109   0.00000  Uiso   1.00
H157   H     0.93901   0.11801   0.41726   0.00000  Uiso   1.00
H158   H     0.96936   0.13269   0.49137   0.00000  Uiso   1.00
N159   N     0.71598   0.16666   0.24999   0.00000  Uiso   1.00
N160   N     0.95069   0.16669   0.25000   0.00000  Uiso   1.00
O161   O     0.79375   0.22678   0.25001   0.00000  Uiso   1.00
O162   O     0.87294   0.22679   0.25001   0.00000  Uiso   1.00
O163   O     0.77441   0.16665   0.32549   0.00000  Uiso   1.00
O164   O     0.85360   0.16666   0.32549   0.00000  Uiso   1.00
O165   O     0.79373   0.10654   0.25000   0.00000  Uiso   1.00
O166   O     0.87292   0.10655   0.25000   0.00000  Uiso   1.00
O167   O     0.81306   0.16667   0.17451   0.00000  Uiso   1.00
O168   O     0.89225   0.16668   0.17451   0.00000  Uiso   1.00
C169   C     0.16670   0.57930   0.25007   0.00000  Uiso   1.00
C170   C     0.12561   0.50147   0.40717   0.00000  Uiso   1.00
C171   C     0.20933   0.64552   0.24955   0.00000  Uiso   1.00
C172   C     0.14059   0.49861   0.35004   0.00000  Uiso   1.00
C173   C     0.20928   0.35476   0.24953   0.00000  Uiso   1.00
C174   C     0.16660   0.37608   0.25004   0.00000  Uiso   1.00
C175   C     0.12396   0.35448   0.25061   0.00000  Uiso   1.00
C176   C     0.12400   0.64524   0.25068   0.00000  Uiso   1.00
C177   C     0.16670   0.62392   0.25012   0.00000  Uiso   1.00
C178   C     0.30005   0.52556   0.28274   0.00000  Uiso   1.00
C179   C     0.01615   0.52529   0.28266   0.00000  Uiso   1.00
C180   C     0.14989   0.50907   0.48673   0.00000  Uiso   1.00
C181   C     0.03379   0.47462   0.21725   0.00000  Uiso   1.00
C182   C     0.31752   0.47461   0.21728   0.00000  Uiso   1.00
C183   C     0.16662   0.42070   0.24999   0.00000  Uiso   1.00
C184   C     0.19281   0.49959   0.15011   0.00000  Uiso   1.00
C185   C     0.26674   0.47786   0.01214   0.00000  Uiso   1.00
C186   C     0.20797   0.49733   0.09343   0.00000  Uiso   1.00
C187   C     0.08059   0.51998   0.43224   0.00000  Uiso   1.00
C188   C     0.07171   0.53666   0.48173   0.00000  Uiso   1.00
C189   C     0.10766   0.53447   0.00748   0.00000  Uiso   1.00
C190   C     0.15894   0.49293   0.43558   0.00000  Uiso   1.00
C191   C     0.18449   0.50009   0.01381   0.00000  Uiso   1.00
C192   C     0.23069   0.48283   0.48697   0.00000  Uiso   1.00
C193   C     0.23869   0.46742   0.43695   0.00000  Uiso   1.00
C194   C     0.20178   0.46945   0.41345   0.00000  Uiso   1.00
C195   C     0.17276   0.50358   0.06775   0.00000  Uiso   1.00
C196   C     0.25577   0.48619   0.06509   0.00000  Uiso   1.00
Cl197  Cl    0.26070   0.56000   0.32599   0.00000  Uiso   1.00
Cl198  Cl    0.10295   0.57095   0.05807   0.00000  Uiso   1.00
Cl199  Cl    0.01697   0.56444   0.00801   0.00000  Uiso   1.00
Cu200  Cu    0.11978   0.49999   0.25000   0.00000  Uiso   1.00
Cu201  Cu    0.21355   0.50001   0.25000   0.00000  Uiso   1.00
H202   H     0.28355   0.48115   0.08432   0.00000  Uiso   1.00
H203   H     0.13520   0.50807   0.09062   0.00000  Uiso   1.00
H204   H     0.05403   0.52532   0.41148   0.00000  Uiso   1.00
H205   H     0.20759   0.45237   0.37758   0.00000  Uiso   1.00
H206   H     0.24272   0.62964   0.24905   0.00000  Uiso   1.00
H207   H     0.24264   0.37088   0.24906   0.00000  Uiso   1.00
H208   H     0.09060   0.37038   0.25102   0.00000  Uiso   1.00
H209   H     0.09064   0.62912   0.25115   0.00000  Uiso   1.00
H210   H     0.02803   0.54551   0.30869   0.00000  Uiso   1.00
H211   H     0.05968   0.45426   0.19102   0.00000  Uiso   1.00
H212   H     0.30606   0.45427   0.19109   0.00000  Uiso   1.00
H213   H     0.27234   0.45134   0.41726   0.00000  Uiso   1.00
H214   H     0.30270   0.46602   0.49137   0.00000  Uiso   1.00
N215   N     0.04931   0.49999   0.24999   0.00000  Uiso   1.00
N216   N     0.28402   0.50002   0.25000   0.00000  Uiso   1.00
O217   O     0.12708   0.56011   0.25001   0.00000  Uiso   1.00
O218   O     0.20627   0.56012   0.25001   0.00000  Uiso   1.00
O219   O     0.10775   0.49998   0.32549   0.00000  Uiso   1.00
O220   O     0.18694   0.49999   0.32549   0.00000  Uiso   1.00
O221   O     0.12706   0.43988   0.25000   0.00000  Uiso   1.00
O222   O     0.20625   0.43989   0.25000   0.00000  Uiso   1.00
O223   O     0.14640   0.50001   0.17451   0.00000  Uiso   1.00
O224   O     0.22559   0.50002   0.17451   0.00000  Uiso   1.00
C225   C     0.50004   0.57930   0.25007   0.00000  Uiso   1.00
C226   C     0.45894   0.50147   0.40717   0.00000  Uiso   1.00
C227   C     0.54266   0.64552   0.24955   0.00000  Uiso   1.00
C228   C     0.47393   0.49861   0.35004   0.00000  Uiso   1.00
C229   C     0.54261   0.35476   0.24953   0.00000  Uiso   1.00
C230   C     0.49993   0.37608   0.25004   0.00000  Uiso   1.00
C231   C     0.45729   0.35448   0.25061   0.00000  Uiso   1.00
C232   C     0.45733   0.64524   0.25068   0.00000  Uiso   1.00
C233   C     0.50003   0.62392   0.25012   0.00000  Uiso   1.00
C234   C     0.63338   0.52556   0.28274   0.00000  Uiso   1.00
C235   C     0.34948   0.52529   0.28266   0.00000  Uiso   1.00
C236   C     0.48322   0.50907   0.48673   0.00000  Uiso   1.00
C237   C     0.36712   0.47462   0.21725   0.00000  Uiso   1.00
C238   C     0.65085   0.47461   0.21728   0.00000  Uiso   1.00
C239   C     0.49995   0.42070   0.24999   0.00000  Uiso   1.00
C240   C     0.52615   0.49959   0.15011   0.00000  Uiso   1.00
C241   C     0.60008   0.47786   0.01214   0.00000  Uiso   1.00
C242   C     0.54130   0.49733   0.09343   0.00000  Uiso   1.00
C243   C     0.41392   0.51998   0.43224   0.00000  Uiso   1.00
C244   C     0.40504   0.53666   0.48173   0.00000  Uiso   1.00
C245   C     0.44100   0.53447   0.00748   0.00000  Uiso   1.00
C246   C     0.49227   0.49293   0.43558   0.00000  Uiso   1.00
C247   C     0.51782   0.50009   0.01381   0.00000  Uiso   1.00
C248   C     0.56402   0.48283   0.48697   0.00000  Uiso   1.00
C249   C     0.57202   0.46742   0.43695   0.00000  Uiso   1.00
C250   C     0.53511   0.46945   0.41345   0.00000  Uiso   1.00
C251   C     0.50609   0.50358   0.06775   0.00000  Uiso   1.00
C252   C     0.58910   0.48619   0.06509   0.00000  Uiso   1.00
Cl253  Cl    0.59403   0.56000   0.32599   0.00000  Uiso   1.00
Cl254  Cl    0.43628   0.57095   0.05807   0.00000  Uiso   1.00
Cl255  Cl    0.35030   0.56444   0.00801   0.00000  Uiso   1.00
Cu256  Cu    0.45311   0.49999   0.25000   0.00000  Uiso   1.00
Cu257  Cu    0.54689   0.50001   0.25000   0.00000  Uiso   1.00
H258   H     0.61688   0.48115   0.08432   0.00000  Uiso   1.00
H259   H     0.46853   0.50807   0.09062   0.00000  Uiso   1.00
H260   H     0.38736   0.52532   0.41148   0.00000  Uiso   1.00
H261   H     0.54093   0.45237   0.37758   0.00000  Uiso   1.00
H262   H     0.57605   0.62964   0.24905   0.00000  Uiso   1.00
H263   H     0.57597   0.37088   0.24906   0.00000  Uiso   1.00
H264   H     0.42393   0.37038   0.25102   0.00000  Uiso   1.00
H265   H     0.42397   0.62912   0.25115   0.00000  Uiso   1.00
H266   H     0.36136   0.54551   0.30869   0.00000  Uiso   1.00
H267   H     0.39301   0.45426   0.19102   0.00000  Uiso   1.00
H268   H     0.63939   0.45427   0.19109   0.00000  Uiso   1.00
H269   H     0.60567   0.45134   0.41726   0.00000  Uiso   1.00
H270   H     0.63603   0.46602   0.49137   0.00000  Uiso   1.00
N271   N     0.38265   0.49999   0.24999   0.00000  Uiso   1.00
N272   N     0.61735   0.50002   0.25000   0.00000  Uiso   1.00
O273   O     0.46042   0.56011   0.25001   0.00000  Uiso   1.00
O274   O     0.53961   0.56012   0.25001   0.00000  Uiso   1.00
O275   O     0.44108   0.49998   0.32549   0.00000  Uiso   1.00
O276   O     0.52027   0.49999   0.32549   0.00000  Uiso   1.00
O277   O     0.46039   0.43988   0.25000   0.00000  Uiso   1.00
O278   O     0.53958   0.43989   0.25000   0.00000  Uiso   1.00
O279   O     0.47973   0.50001   0.17451   0.00000  Uiso   1.00
O280   O     0.55892   0.50002   0.17451   0.00000  Uiso   1.00
C281   C     0.83337   0.57930   0.25007   0.00000  Uiso   1.00
C282   C     0.79227   0.50147   0.40717   0.00000  Uiso   1.00
C283   C     0.87600   0.64552   0.24955   0.00000  Uiso   1.00
C284   C     0.80726   0.49861   0.35004   0.00000  Uiso   1.00
C285   C     0.87595   0.35476   0.24953   0.00000  Uiso   1.00
C286   C     0.83326   0.37608   0.25004   0.00000  Uiso   1.00
C287   C     0.79063   0.35448   0.25061   0.00000  Uiso   1.00
C288   C     0.79067   0.64524   0.25068   0.00000  Uiso   1.00
C289   C     0.83336   0.62392   0.25012   0.00000  Uiso   1.00
C290   C     0.96672   0.52556   0.28274   0.00000  Uiso   1.00
C291   C     0.68282   0.52529   0.28266   0.00000  Uiso   1.00
C292   C     0.81655   0.50907   0.48673   0.00000  Uiso   1.00
C293   C     0.70046   0.47462   0.21725   0.00000  Uiso   1.00
C294   C     0.98418   0.47461   0.21728   0.00000  Uiso   1.00
C295   C     0.83328   0.42070   0.24999   0.00000  Uiso   1.00
C296   C     0.85948   0.49959   0.15011   0.00000  Uiso   1.00
C297   C     0.93341   0.47786   0.01214   0.00000  Uiso   1.00
C298   C     0.87464   0.49733   0.09343   0.00000  Uiso   1.00
C299   C     0.74726   0.51998   0.43224   0.00000  Uiso   1.00
C300   C     0.73838   0.53666   0.48173   0.00000  Uiso   1.00
C301   C     0.77433   0.53447   0.00748   0.00000  Uiso   1.00
C302   C     0.82560   0.49293   0.43558   0.00000  Uiso   1.00
C303   C     0.85116   0.50009   0.01381   0.00000  Uiso   1.00
C304   C     0.89735   0.48283   0.48697   0.00000  Uiso   1.00
C305   C     0.90535   0.46742   0.43695   0.00000  Uiso   1.00
C306   C     0.86844   0.46945   0.41345   0.00000  Uiso   1.00
C307   C     0.83943   0.50358   0.06775   0.00000  Uiso   1.00
C308   C     0.92243   0.48619   0.06509   0.00000  Uiso   1.00
Cl309  Cl    0.92737   0.56000   0.32599   0.00000  Uiso   1.00
Cl310  Cl    0.76961   0.57095   0.05807   0.00000  Uiso   1.00
Cl311  Cl    0.68363   0.56444   0.00801   0.00000  Uiso   1.00
Cu312  Cu    0.78645   0.49999   0.25000   0.00000  Uiso   1.00
Cu313  Cu    0.88022   0.50001   0.25000   0.00000  Uiso   1.00
H314   H     0.95022   0.48115   0.08432   0.00000  Uiso   1.00
H315   H     0.80187   0.50807   0.09062   0.00000  Uiso   1.00
H316   H     0.72070   0.52532   0.41148   0.00000  Uiso   1.00
H317   H     0.87426   0.45237   0.37758   0.00000  Uiso   1.00
H318   H     0.90938   0.62964   0.24905   0.00000  Uiso   1.00
H319   H     0.90931   0.37088   0.24906   0.00000  Uiso   1.00
H320   H     0.75726   0.37038   0.25102   0.00000  Uiso   1.00
H321   H     0.75730   0.62912   0.25115   0.00000  Uiso   1.00
H322   H     0.69470   0.54551   0.30869   0.00000  Uiso   1.00
H323   H     0.72635   0.45426   0.19102   0.00000  Uiso   1.00
H324   H     0.97273   0.45427   0.19109   0.00000  Uiso   1.00
H325   H     0.93901   0.45134   0.41726   0.00000  Uiso   1.00
H326   H     0.96936   0.46602   0.49137   0.00000  Uiso   1.00
N327   N     0.71598   0.49999   0.24999   0.00000  Uiso   1.00
N328   N     0.95069   0.50002   0.25000   0.00000  Uiso   1.00
O329   O     0.79375   0.56011   0.25001   0.00000  Uiso   1.00
O330   O     0.87294   0.56012   0.25001   0.00000  Uiso   1.00
O331   O     0.77441   0.49998   0.32549   0.00000  Uiso   1.00
O332   O     0.85360   0.49999   0.32549   0.00000  Uiso   1.00
O333   O     0.79373   0.43988   0.25000   0.00000  Uiso   1.00
O334   O     0.87292   0.43989   0.25000   0.00000  Uiso   1.00
O335   O     0.81306   0.50001   0.17451   0.00000  Uiso   1.00
O336   O     0.89225   0.50002   0.17451   0.00000  Uiso   1.00
C337   C     0.16670   0.91263   0.25007   0.00000  Uiso   1.00
C338   C     0.12561   0.83481   0.40717   0.00000  Uiso   1.00
C339   C     0.20933   0.97886   0.24955   0.00000  Uiso   1.00
C340   C     0.14059   0.83194   0.35004   0.00000  Uiso   1.00
C341   C     0.20928   0.68809   0.24953   0.00000  Uiso   1.00
C342   C     0.16660   0.70941   0.25004   0.00000  Uiso   1.00
C343   C     0.12396   0.68781   0.25061   0.00000  Uiso   1.00
C344   C     0.12400   0.97857   0.25068   0.00000  Uiso   1.00
C345   C     0.16670   0.95725   0.25012   0.00000  Uiso   1.00
C346   C     0.30005   0.85890   0.28274   0.00000  Uiso   1.00
C347   C     0.01615   0.85863   0.28266   0.00000  Uiso   1.00
C348   C     0.14989   0.84240   0.48673   0.00000  Uiso   1.00
C349   C     0.03379   0.80796   0.21725   0.00000  Uiso   1.00
C350   C     0.31752   0.80794   0.21728   0.00000  Uiso   1.00
C351   C     0.16662   0.75403   0.24999   0.00000  Uiso   1.00
C352   C     0.19281   0.83293   0.15011   0.00000  Uiso   1.00
C353   C     0.26674   0.81119   0.01214   0.00000  Uiso   1.00
C354   C     0.20797   0.83066   0.09343   0.00000  Uiso   1.00
C355   C     0.08059   0.85332   0.43224   0.00000  Uiso   1.00
C356   C     0.07171   0.86999   0.48173   0.00000  Uiso   1.00
C357   C     0.10766   0.86780   0.00748   0.00000  Uiso   1.00
C358   C     0.15894   0.82626   0.43558   0.00000  Uiso   1.00
C359   C     0.18449   0.83342   0.01381   0.00000  Uiso   1.00
C360   C     0.23069   0.81616   0.48697   0.00000  Uiso   1.00
C361   C     0.23869   0.80075   0.43695   0.00000  Uiso   1.00
C362   C     0.20178   0.80279   0.41345   0.00000  Uiso   1.00
C363   C     0.17276   0.83691   0.06775   0.00000  Uiso   1.00
C364   C     0.25577   0.81952   0.06509   0.00000  Uiso   1.00
Cl365  Cl    0.26070   0.89334   0.32599   0.00000  Uiso   1.00
Cl366  Cl    0.10295   0.90428   0.05807   0.00000  Uiso   1.00
Cl367  Cl    0.01697   0.89777   0.00801   0.00000  Uiso   1.00
Cu368  Cu    0.11978   0.83333   0.25000   0.00000  Uiso   1.00
Cu369  Cu    0.21355   0.83334   0.25000   0.00000  Uiso   1.00
H370   H     0.28355   0.81449   0.08432   0.00000  Uiso   1.00
H371   H     0.13520   0.84141   0.09062   0.00000  Uiso   1.00
H372   H     0.05403   0.85865   0.41148   0.00000  Uiso   1.00
H373   H     0.20759   0.78570   0.37758   0.00000  Uiso   1.00
H374   H     0.24272   0.96297   0.24905   0.00000  Uiso   1.00
H375   H     0.24264   0.70421   0.24906   0.00000  Uiso   1.00
H376   H     0.09060   0.70371   0.25102   0.00000  Uiso   1.00
H377   H     0.09064   0.96246   0.25115   0.00000  Uiso   1.00
H378   H     0.02803   0.87885   0.30869   0.00000  Uiso   1.00
H379   H     0.05968   0.78759   0.19102   0.00000  Uiso   1.00
H380   H     0.30606   0.78760   0.19109   0.00000  Uiso   1.00
H381   H     0.27234   0.78468   0.41726   0.00000  Uiso   1.00
H382   H     0.30270   0.79936   0.49137   0.00000  Uiso   1.00
N383   N     0.04931   0.83332   0.24999   0.00000  Uiso   1.00
N384   N     0.28402   0.83335   0.25000   0.00000  Uiso   1.00
O385   O     0.12708   0.89345   0.25001   0.00000  Uiso   1.00
O386   O     0.20627   0.89346   0.25001   0.00000  Uiso   1.00
O387   O     0.10775   0.83332   0.32549   0.00000  Uiso   1.00
O388   O     0.18694   0.83333   0.32549   0.00000  Uiso   1.00
O389   O     0.12706   0.77321   0.25000   0.00000  Uiso   1.00
O390   O     0.20625   0.77322   0.25000   0.00000  Uiso   1.00
O391   O     0.14640   0.83334   0.17451   0.00000  Uiso   1.00
O392   O     0.22559   0.83335   0.17451   0.00000  Uiso   1.00
C393   C     0.50004   0.91263   0.25007   0.00000  Uiso   1.00
C394   C     0.45894   0.83481   0.40717   0.00000  Uiso   1.00
C395   C     0.54266   0.97886   0.24955   0.00000  Uiso   1.00
C396   C     0.47393   0.83194   0.35004   0.00000  Uiso   1.00
C397   C     0.54261   0.68809   0.24953   0.00000  Uiso   1.00
C398   C     0.49993   0.70941   0.25004   0.00000  Uiso   1.00
C399   C     0.45729   0.68781   0.25061   0.00000  Uiso   1.00
C400   C     0.45733   0.97857   0.25068   0.00000  Uiso   1.00
C401   C     0.50003   0.95725   0.25012   0.00000  Uiso   1.00
C402   C     0.63338   0.85890   0.28274   0.00000  Uiso   1.00
C403   C     0.34948   0.85863   0.28266   0.00000  Uiso   1.00
C404   C     0.48322   0.84240   0.48673   0.00000  Uiso   1.00
C405   C     0.36712   0.80796   0.21725   0.00000  Uiso   1.00
C406   C     0.65085   0.80794   0.21728   0.00000  Uiso   1.00
C407   C     0.49995   0.75403   0.24999   0.00000  Uiso   1.00
C408   C     0.52615   0.83293   0.15011   0.00000  Uiso   1.00
C409   C     0.60008   0.81119   0.01214   0.00000  Uiso   1.00
C410   C     0.54130   0.83066   0.09343   0.00000  Uiso   1.00
C411   C     0.41392   0.85332   0.43224   0.00000  Uiso   1.00
C412   C     0.40504   0.86999   0.48173   0.00000  Uiso   1.00
C413   C     0.44100   0.86780   0.00748   0.00000  Uiso   1.00
C414   C     0.49227   0.82626   0.43558   0.00000  Uiso   1.00
C415   C     0.51782   0.83342   0.01381   0.00000  Uiso   1.00
C416   C     0.56402   0.81616   0.48697   0.00000  Uiso   1.00
C417   C     0.57202   0.80075   0.43695   0.00000  Uiso   1.00
C418   C     0.53511   0.80279   0.41345   0.00000  Uiso   1.00
C419   C     0.50609   0.83691   0.06775   0.00000  Uiso   1.00
C420   C     0.58910   0.81952   0.06509   0.00000  Uiso   1.00
Cl421  Cl    0.59403   0.89334   0.32599   0.00000  Uiso   1.00
Cl422  Cl    0.43628   0.90428   0.05807   0.00000  Uiso   1.00
Cl423  Cl    0.35030   0.89777   0.00801   0.00000  Uiso   1.00
Cu424  Cu    0.45311   0.83333   0.25000   0.00000  Uiso   1.00
Cu425  Cu    0.54689   0.83334   0.25000   0.00000  Uiso   1.00
H426   H     0.61688   0.81449   0.08432   0.00000  Uiso   1.00
H427   H     0.46853   0.84141   0.09062   0.00000  Uiso   1.00
H428   H     0.38736   0.85865   0.41148   0.00000  Uiso   1.00
H429   H     0.54093   0.78570   0.37758   0.00000  Uiso   1.00
H430   H     0.57605   0.96297   0.24905   0.00000  Uiso   1.00
H431   H     0.57597   0.70421   0.24906   0.00000  Uiso   1.00
H432   H     0.42393   0.70371   0.25102   0.00000  Uiso   1.00
H433   H     0.42397   0.96246   0.25115   0.00000  Uiso   1.00
H434   H     0.36136   0.87885   0.30869   0.00000  Uiso   1.00
H435   H     0.39301   0.78759   0.19102   0.00000  Uiso   1.00
H436   H     0.63939   0.78760   0.19109   0.00000  Uiso   1.00
H437   H     0.60567   0.78468   0.41726   0.00000  Uiso   1.00
H438   H     0.63603   0.79936   0.49137   0.00000  Uiso   1.00
N439   N     0.38265   0.83332   0.24999   0.00000  Uiso   1.00
N440   N     0.61735   0.83335   0.25000   0.00000  Uiso   1.00
O441   O     0.46042   0.89345   0.25001   0.00000  Uiso   1.00
O442   O     0.53961   0.89346   0.25001   0.00000  Uiso   1.00
O443   O     0.44108   0.83332   0.32549   0.00000  Uiso   1.00
O444   O     0.52027   0.83333   0.32549   0.00000  Uiso   1.00
O445   O     0.46039   0.77321   0.25000   0.00000  Uiso   1.00
O446   O     0.53958   0.77322   0.25000   0.00000  Uiso   1.00
O447   O     0.47973   0.83334   0.17451   0.00000  Uiso   1.00
O448   O     0.55892   0.83335   0.17451   0.00000  Uiso   1.00
C449   C     0.83337   0.91263   0.25007   0.00000  Uiso   1.00
C450   C     0.79227   0.83481   0.40717   0.00000  Uiso   1.00
C451   C     0.87600   0.97886   0.24955   0.00000  Uiso   1.00
C452   C     0.80726   0.83194   0.35004   0.00000  Uiso   1.00
C453   C     0.87595   0.68809   0.24953   0.00000  Uiso   1.00
C454   C     0.83326   0.70941   0.25004   0.00000  Uiso   1.00
C455   C     0.79063   0.68781   0.25061   0.00000  Uiso   1.00
C456   C     0.79067   0.97857   0.25068   0.00000  Uiso   1.00
C457   C     0.83336   0.95725   0.25012   0.00000  Uiso   1.00
C458   C     0.96672   0.85890   0.28274   0.00000  Uiso   1.00
C459   C     0.68282   0.85863   0.28266   0.00000  Uiso   1.00
C460   C     0.81655   0.84240   0.48673   0.00000  Uiso   1.00
C461   C     0.70046   0.80796   0.21725   0.00000  Uiso   1.00
C462   C     0.98418   0.80794   0.21728   0.00000  Uiso   1.00
C463   C     0.83328   0.75403   0.24999   0.00000  Uiso   1.00
C464   C     0.85948   0.83293   0.15011   0.00000  Uiso   1.00
C465   C     0.93341   0.81119   0.01214   0.00000  Uiso   1.00
C466   C     0.87464   0.83066   0.09343   0.00000  Uiso   1.00
C467   C     0.74726   0.85332   0.43224   0.00000  Uiso   1.00
C468   C     0.73838   0.86999   0.48173   0.00000  Uiso   1.00
C469   C     0.77433   0.86780   0.00748   0.00000  Uiso   1.00
C470   C     0.82560   0.82626   0.43558   0.00000  Uiso   1.00
C471   C     0.85116   0.83342   0.01381   0.00000  Uiso   1.00
C472   C     0.89735   0.81616   0.48697   0.00000  Uiso   1.00
C473   C     0.90535   0.80075   0.43695   0.00000  Uiso   1.00
C474   C     0.86844   0.80279   0.41345   0.00000  Uiso   1.00
C475   C     0.83943   0.83691   0.06775   0.00000  Uiso   1.00
C476   C     0.92243   0.81952   0.06509   0.00000  Uiso   1.00
Cl477  Cl    0.92737   0.89334   0.32599   0.00000  Uiso   1.00
Cl478  Cl    0.76961   0.90428   0.05807   0.00000  Uiso   1.00
Cl479  Cl    0.68363   0.89777   0.00801   0.00000  Uiso   1.00
Cu480  Cu    0.78645   0.83333   0.25000   0.00000  Uiso   1.00
Cu481  Cu    0.88022   0.83334   0.25000   0.00000  Uiso   1.00
H482   H     0.95022   0.81449   0.08432   0.00000  Uiso   1.00
H483   H     0.80187   0.84141   0.09062   0.00000  Uiso   1.00
H484   H     0.72070   0.85865   0.41148   0.00000  Uiso   1.00
H485   H     0.87426   0.78570   0.37758   0.00000  Uiso   1.00
H486   H     0.90938   0.96297   0.24905   0.00000  Uiso   1.00
H487   H     0.90931   0.70421   0.24906   0.00000  Uiso   1.00
H488   H     0.75726   0.70371   0.25102   0.00000  Uiso   1.00
H489   H     0.75730   0.96246   0.25115   0.00000  Uiso   1.00
H490   H     0.69470   0.87885   0.30869   0.00000  Uiso   1.00
H491   H     0.72635   0.78759   0.19102   0.00000  Uiso   1.00
H492   H     0.97273   0.78760   0.19109   0.00000  Uiso   1.00
H493   H     0.93901   0.78468   0.41726   0.00000  Uiso   1.00
H494   H     0.96936   0.79936   0.49137   0.00000  Uiso   1.00
N495   N     0.71598   0.83332   0.24999   0.00000  Uiso   1.00
N496   N     0.95069   0.83335   0.25000   0.00000  Uiso   1.00
O497   O     0.79375   0.89345   0.25001   0.00000  Uiso   1.00
O498   O     0.87294   0.89346   0.25001   0.00000  Uiso   1.00
O499   O     0.77441   0.83332   0.32549   0.00000  Uiso   1.00
O500   O     0.85360   0.83333   0.32549   0.00000  Uiso   1.00
O501   O     0.79373   0.77321   0.25000   0.00000  Uiso   1.00
O502   O     0.87292   0.77322   0.25000   0.00000  Uiso   1.00
O503   O     0.81306   0.83334   0.17451   0.00000  Uiso   1.00
O504   O     0.89225   0.83335   0.17451   0.00000  Uiso   1.00
C505   C     0.16670   0.24597   0.75007   0.00000  Uiso   1.00
C506   C     0.12561   0.16814   0.90717   0.00000  Uiso   1.00
C507   C     0.20933   0.31219   0.74955   0.00000  Uiso   1.00
C508   C     0.14059   0.16527   0.85004   0.00000  Uiso   1.00
C509   C     0.20928   0.02143   0.74953   0.00000  Uiso   1.00
C510   C     0.16660   0.04275   0.75004   0.00000  Uiso   1.00
C511   C     0.12396   0.02115   0.75061   0.00000  Uiso   1.00
C512   C     0.12400   0.31191   0.75068   0.00000  Uiso   1.00
C513   C     0.16670   0.29059   0.75012   0.00000  Uiso   1.00
C514   C     0.30005   0.19223   0.78274   0.00000  Uiso   1.00
C515   C     0.01615   0.19196   0.78266   0.00000  Uiso   1.00
C516   C     0.14989   0.17574   0.98673   0.00000  Uiso   1.00
C517   C     0.03379   0.14129   0.71725   0.00000  Uiso   1.00
C518   C     0.31752   0.14128   0.71728   0.00000  Uiso   1.00
C519   C     0.16662   0.08737   0.74999   0.00000  Uiso   1.00
C520   C     0.19281   0.16626   0.65011   0.00000  Uiso   1.00
C521   C     0.26674   0.14452   0.51214   0.00000  Uiso   1.00
C522   C     0.20797   0.16400   0.59343   0.00000  Uiso   1.00
C523   C     0.08059   0.18665   0.93224   0.00000  Uiso   1.00
C524   C     0.07171   0.20332   0.98173   0.00000  Uiso   1.00
C525   C     0.10766   0.20114   0.50748   0.00000  Uiso   1.00
C526   C     0.15894   0.15960   0.93558   0.00000  Uiso   1.00
C527   C     0.18449   0.16676   0.51381   0.00000  Uiso   1.00
C528   C     0.23069   0.14950   0.98697   0.00000  Uiso   1.00
C529   C     0.23869   0.13408   0.93695   0.00000  Uiso   1.00
C530   C     0.20178   0.13612   0.91345   0.00000  Uiso   1.00
C531   C     0.17276   0.17024   0.56775   0.00000  Uiso   1.00
C532   C     0.25577   0.15285   0.56509   0.00000  Uiso   1.00
Cl533  Cl    0.26070   0.22667   0.82599   0.00000  Uiso   1.00
Cl534  Cl    0.10295   0.23762   0.55807   0.00000  Uiso   1.00
Cl535  Cl    0.01697   0.23111   0.50801   0.00000  Uiso   1.00
Cu536  Cu    0.11978   0.16666   0.75000   0.00000  Uiso   1.00
Cu537  Cu    0.21355   0.16667   0.75000   0.00000  Uiso   1.00
H538   H     0.28355   0.14782   0.58432   0.00000  Uiso   1.00
H539   H     0.13520   0.17474   0.59062   0.00000  Uiso   1.00
H540   H     0.05403   0.19199   0.91148   0.00000  Uiso   1.00
H541   H     0.20759   0.11904   0.87758   0.00000  Uiso   1.00
H542   H     0.24272   0.29630   0.74905   0.00000  Uiso   1.00
H543   H     0.24264   0.03754   0.74906   0.00000  Uiso   1.00
H544   H     0.09060   0.03705   0.75102   0.00000  Uiso   1.00
H545   H     0.09064   0.29579   0.75115   0.00000  Uiso   1.00
H546   H     0.02803   0.21218   0.80869   0.00000  Uiso   1.00
H547   H     0.05968   0.12092   0.69102   0.00000  Uiso   1.00
H548   H     0.30606   0.12094   0.69109   0.00000  Uiso   1.00
H549   H     0.27234   0.11801   0.91726   0.00000  Uiso   1.00
H550   H     0.30270   0.13269   0.99137   0.00000  Uiso   1.00
N551   N     0.04931   0.16666   0.74999   0.00000  Uiso   1.00
N552   N     0.28402   0.16669   0.75000   0.00000  Uiso   1.00
O553   O     0.12708   0.22678   0.75001   0.00000  Uiso   1.00
O554   O     0.20627   0.22679   0.75001   0.00000  Uiso   1.00
O555   O     0.10775   0.16665   0.82549   0.00000  Uiso   1.00
O556   O     0.18694   0.16666   0.82549   0.00000  Uiso   1.00
O557   O     0.12706   0.10654   0.75000   0.00000  Uiso   1.00
O558   O     0.20625   0.10655   0.75000   0.00000  Uiso   1.00
O559   O     0.14640   0.16667   0.67451   0.00000  Uiso   1.00
O560   O     0.22559   0.16668   0.67451   0.00000  Uiso   1.00
C561   C     0.50004   0.24597   0.75007   0.00000  Uiso   1.00
C562   C     0.45894   0.16814   0.90717   0.00000  Uiso   1.00
C563   C     0.54266   0.31219   0.74955   0.00000  Uiso   1.00
C564   C     0.47393   0.16527   0.85004   0.00000  Uiso   1.00
C565   C     0.54261   0.02143   0.74953   0.00000  Uiso   1.00
C566   C     0.49993   0.04275   0.75004   0.00000  Uiso   1.00
C567   C     0.45729   0.02115   0.75061   0.00000  Uiso   1.00
C568   C     0.45733   0.31191   0.75068   0.00000  Uiso   1.00
C569   C     0.50003   0.29059   0.75012   0.00000  Uiso   1.00
C570   C     0.63338   0.19223   0.78274   0.00000  Uiso   1.00
C571   C     0.34948   0.19196   0.78266   0.00000  Uiso   1.00
C572   C     0.48322   0.17574   0.98673   0.00000  Uiso   1.00
C573   C     0.36712   0.14129   0.71725   0.00000  Uiso   1.00
C574   C     0.65085   0.14128   0.71728   0.00000  Uiso   1.00
C575   C     0.49995   0.08737   0.74999   0.00000  Uiso   1.00
C576   C     0.52615   0.16626   0.65011   0.00000  Uiso   1.00
C577   C     0.60008   0.14452   0.51214   0.00000  Uiso   1.00
C578   C     0.54130   0.16400   0.59343   0.00000  Uiso   1.00
C579   C     0.41392   0.18665   0.93224   0.00000  Uiso   1.00
C580   C     0.40504   0.20332   0.98173   0.00000  Uiso   1.00
C581   C     0.44100   0.20114   0.50748   0.00000  Uiso   1.00
C582   C     0.49227   0.15960   0.93558   0.00000  Uiso   1.00
C583   C     0.51782   0.16676   0.51381   0.00000  Uiso   1.00
C584   C     0.56402   0.14950   0.98697   0.00000  Uiso   1.00
C585   C     0.57202   0.13408   0.93695   0.00000  Uiso   1.00
C586   C     0.53511   0.13612   0.91345   0.00000  Uiso   1.00
C587   C     0.50609   0.17024   0.56775   0.00000  Uiso   1.00
C588   C     0.58910   0.15285   0.56509   0.00000  Uiso   1.00
Cl589  Cl    0.59403   0.22667   0.82599   0.00000  Uiso   1.00
Cl590  Cl    0.43628   0.23762   0.55807   0.00000  Uiso   1.00
Cl591  Cl    0.35030   0.23111   0.50801   0.00000  Uiso   1.00
Cu592  Cu    0.45311   0.16666   0.75000   0.00000  Uiso   1.00
Cu593  Cu    0.54689   0.16667   0.75000   0.00000  Uiso   1.00
H594   H     0.61688   0.14782   0.58432   0.00000  Uiso   1.00
H595   H     0.46853   0.17474   0.59062   0.00000  Uiso   1.00
H596   H     0.38736   0.19199   0.91148   0.00000  Uiso   1.00
H597   H     0.54093   0.11904   0.87758   0.00000  Uiso   1.00
H598   H     0.57605   0.29630   0.74905   0.00000  Uiso   1.00
H599   H     0.57597   0.03754   0.74906   0.00000  Uiso   1.00
H600   H     0.42393   0.03705   0.75102   0.00000  Uiso   1.00
H601   H     0.42397   0.29579   0.75115   0.00000  Uiso   1.00
H602   H     0.36136   0.21218   0.80869   0.00000  Uiso   1.00
H603   H     0.39301   0.12092   0.69102   0.00000  Uiso   1.00
H604   H     0.63939   0.12094   0.69109   0.00000  Uiso   1.00
H605   H     0.60567   0.11801   0.91726   0.00000  Uiso   1.00
H606   H     0.63603   0.13269   0.99137   0.00000  Uiso   1.00
N607   N     0.38265   0.16666   0.74999   0.00000  Uiso   1.00
N608   N     0.61735   0.16669   0.75000   0.00000  Uiso   1.00
O609   O     0.46042   0.22678   0.75001   0.00000  Uiso   1.00
O610   O     0.53961   0.22679   0.75001   0.00000  Uiso   1.00
O611   O     0.44108   0.16665   0.82549   0.00000  Uiso   1.00
O612   O     0.52027   0.16666   0.82549   0.00000  Uiso   1.00
O613   O     0.46039   0.10654   0.75000   0.00000  Uiso   1.00
O614   O     0.53958   0.10655   0.75000   0.00000  Uiso   1.00
O615   O     0.47973   0.16667   0.67451   0.00000  Uiso   1.00
O616   O     0.55892   0.16668   0.67451   0.00000  Uiso   1.00
C617   C     0.83337   0.24597   0.75007   0.00000  Uiso   1.00
C618   C     0.79227   0.16814   0.90717   0.00000  Uiso   1.00
C619   C     0.87600   0.31219   0.74955   0.00000  Uiso   1.00
C620   C     0.80726   0.16527   0.85004   0.00000  Uiso   1.00
C621   C     0.87595   0.02143   0.74953   0.00000  Uiso   1.00
C622   C     0.83326   0.04275   0.75004   0.00000  Uiso   1.00
C623   C     0.79063   0.02115   0.75061   0.00000  Uiso   1.00
C624   C     0.79067   0.31191   0.75068   0.00000  Uiso   1.00
C625   C     0.83336   0.29059   0.75012   0.00000  Uiso   1.00
C626   C     0.96672   0.19223   0.78274   0.00000  Uiso   1.00
C627   C     0.68282   0.19196   0.78266   0.00000  Uiso   1.00
C628   C     0.81655   0.17574   0.98673   0.00000  Uiso   1.00
C629   C     0.70046   0.14129   0.71725   0.00000  Uiso   1.00
C630   C     0.98418   0.14128   0.71728   0.00000  Uiso   1.00
C631   C     0.83328   0.08737   0.74999   0.00000  Uiso   1.00
C632   C     0.85948   0.16626   0.65011   0.00000  Uiso   1.00
C633   C     0.93341   0.14452   0.51214   0.00000  Uiso   1.00
C634   C     0.87464   0.16400   0.59343   0.00000  Uiso   1.00
C635   C     0.74726   0.18665   0.93224   0.00000  Uiso   1.00
C636   C     0.73838   0.20332   0.98173   0.00000  Uiso   1.00
C637   C     0.77433   0.20114   0.50748   0.00000  Uiso   1.00
C638   C     0.82560   0.15960   0.93558   0.00000  Uiso   1.00
C639   C     0.85116   0.16676   0.51381   0.00000  Uiso   1.00
C640   C     0.89735   0.14950   0.98697   0.00000  Uiso   1.00
C641   C     0.90535   0.13408   0.93695   0.00000  Uiso   1.00
C642   C     0.86844   0.13612   0.91345   0.00000  Uiso   1.00
C643   C     0.83943   0.17024   0.56775   0.00000  Uiso   1.00
C644   C     0.92243   0.15285   0.56509   0.00000  Uiso   1.00
Cl645  Cl    0.92737   0.22667   0.82599   0.00000  Uiso   1.00
Cl646  Cl    0.76961   0.23762   0.55807   0.00000  Uiso   1.00
Cl647  Cl    0.68363   0.23111   0.50801   0.00000  Uiso   1.00
Cu648  Cu    0.78645   0.16666   0.75000   0.00000  Uiso   1.00
Cu649  Cu    0.88022   0.16667   0.75000   0.00000  Uiso   1.00
H650   H     0.95022   0.14782   0.58432   0.00000  Uiso   1.00
H651   H     0.80187   0.17474   0.59062   0.00000  Uiso   1.00
H652   H     0.72070   0.19199   0.91148   0.00000  Uiso   1.00
H653   H     0.87426   0.11904   0.87758   0.00000  Uiso   1.00
H654   H     0.90938   0.29630   0.74905   0.00000  Uiso   1.00
H655   H     0.90931   0.03754   0.74906   0.00000  Uiso   1.00
H656   H     0.75726   0.03705   0.75102   0.00000  Uiso   1.00
H657   H     0.75730   0.29579   0.75115   0.00000  Uiso   1.00
H658   H     0.69470   0.21218   0.80869   0.00000  Uiso   1.00
H659   H     0.72635   0.12092   0.69102   0.00000  Uiso   1.00
H660   H     0.97273   0.12094   0.69109   0.00000  Uiso   1.00
H661   H     0.93901   0.11801   0.91726   0.00000  Uiso   1.00
H662   H     0.96936   0.13269   0.99137   0.00000  Uiso   1.00
N663   N     0.71598   0.16666   0.74999   0.00000  Uiso   1.00
N664   N     0.95069   0.16669   0.75000   0.00000  Uiso   1.00
O665   O     0.79375   0.22678   0.75001   0.00000  Uiso   1.00
O666   O     0.87294   0.22679   0.75001   0.00000  Uiso   1.00
O667   O     0.77441   0.16665   0.82549   0.00000  Uiso   1.00
O668   O     0.85360   0.16666   0.82549   0.00000  Uiso   1.00
O669   O     0.79373   0.10654   0.75000   0.00000  Uiso   1.00
O670   O     0.87292   0.10655   0.75000   0.00000  Uiso   1.00
O671   O     0.81306   0.16667   0.67451   0.00000  Uiso   1.00
O672   O     0.89225   0.16668   0.67451   0.00000  Uiso   1.00
C673   C     0.16670   0.57930   0.75007   0.00000  Uiso   1.00
C674   C     0.12561   0.50147   0.90717   0.00000  Uiso   1.00
C675   C     0.20933   0.64552   0.74955   0.00000  Uiso   1.00
C676   C     0.14059   0.49861   0.85004   0.00000  Uiso   1.00
C677   C     0.20928   0.35476   0.74953   0.00000  Uiso   1.00
C678   C     0.16660   0.37608   0.75004   0.00000  Uiso   1.00
C679   C     0.12396   0.35448   0.75061   0.00000  Uiso   1.00
C680   C     0.12400   0.64524   0.75068   0.00000  Uiso   1.00
C681   C     0.16670   0.62392   0.75012   0.00000  Uiso   1.00
C682   C     0.30005   0.52556   0.78274   0.00000  Uiso   1.00
C683   C     0.01615   0.52529   0.78266   0.00000  Uiso   1.00
C684   C     0.14989   0.50907   0.98673   0.00000  Uiso   1.00
C685   C     0.03379   0.47462   0.71725   0.00000  Uiso   1.00
C686   C     0.31752   0.47461   0.71728   0.00000  Uiso   1.00
C687   C     0.16662   0.42070   0.74999   0.00000  Uiso   1.00
C688   C     0.19281   0.49959   0.65011   0.00000  Uiso   1.00
C689   C     0.26674   0.47786   0.51214   0.00000  Uiso   1.00
C690   C     0.20797   0.49733   0.59343   0.00000  Uiso   1.00
C691   C     0.08059   0.51998   0.93224   0.00000  Uiso   1.00
C692   C     0.07171   0.53666   0.98173   0.00000  Uiso   1.00
C693   C     0.10766   0.53447   0.50748   0.00000  Uiso   1.00
C694   C     0.15894   0.49293   0.93558   0.00000  Uiso   1.00
C695   C     0.18449   0.50009   0.51381   0.00000  Uiso   1.00
C696   C     0.23069   0.48283   0.98697   0.00000  Uiso   1.00
C697   C     0.23869   0.46742   0.93695   0.00000  Uiso   1.00
C698   C     0.20178   0.46945   0.91345   0.00000  Uiso   1.00
C699   C     0.17276   0.50358   0.56775   0.00000  Uiso   1.00
C700   C     0.25577   0.48619   0.56509   0.00000  Uiso   1.00
Cl701  Cl    0.26070   0.56000   0.82599   0.00000  Uiso   1.00
Cl702  Cl    0.10295   0.57095   0.55807   0.00000  Uiso   1.00
Cl703  Cl    0.01697   0.56444   0.50801   0.00000  Uiso   1.00
Cu704  Cu    0.11978   0.49999   0.75000   0.00000  Uiso   1.00
Cu705  Cu    0.21355   0.50001   0.75000   0.00000  Uiso   1.00
H706   H     0.28355   0.48115   0.58432   0.00000  Uiso   1.00
H707   H     0.13520   0.50807   0.59062   0.00000  Uiso   1.00
H708   H     0.05403   0.52532   0.91148   0.00000  Uiso   1.00
H709   H     0.20759   0.45237   0.87758   0.00000  Uiso   1.00
H710   H     0.24272   0.62964   0.74905   0.00000  Uiso   1.00
H711   H     0.24264   0.37088   0.74906   0.00000  Uiso   1.00
H712   H     0.09060   0.37038   0.75102   0.00000  Uiso   1.00
H713   H     0.09064   0.62912   0.75115   0.00000  Uiso   1.00
H714   H     0.02803   0.54551   0.80869   0.00000  Uiso   1.00
H715   H     0.05968   0.45426   0.69102   0.00000  Uiso   1.00
H716   H     0.30606   0.45427   0.69109   0.00000  Uiso   1.00
H717   H     0.27234   0.45134   0.91726   0.00000  Uiso   1.00
H718   H     0.30270   0.46602   0.99137   0.00000  Uiso   1.00
N719   N     0.04931   0.49999   0.74999   0.00000  Uiso   1.00
N720   N     0.28402   0.50002   0.75000   0.00000  Uiso   1.00
O721   O     0.12708   0.56011   0.75001   0.00000  Uiso   1.00
O722   O     0.20627   0.56012   0.75001   0.00000  Uiso   1.00
O723   O     0.10775   0.49998   0.82549   0.00000  Uiso   1.00
O724   O     0.18694   0.49999   0.82549   0.00000  Uiso   1.00
O725   O     0.12706   0.43988   0.75000   0.00000  Uiso   1.00
O726   O     0.20625   0.43989   0.75000   0.00000  Uiso   1.00
O727   O     0.14640   0.50001   0.67451   0.00000  Uiso   1.00
O728   O     0.22559   0.50002   0.67451   0.00000  Uiso   1.00
C729   C     0.50004   0.57930   0.75007   0.00000  Uiso   1.00
C730   C     0.45894   0.50147   0.90717   0.00000  Uiso   1.00
C731   C     0.54266   0.64552   0.74955   0.00000  Uiso   1.00
C732   C     0.47393   0.49861   0.85004   0.00000  Uiso   1.00
C733   C     0.54261   0.35476   0.74953   0.00000  Uiso   1.00
C734   C     0.49993   0.37608   0.75004   0.00000  Uiso   1.00
C735   C     0.45729   0.35448   0.75061   0.00000  Uiso   1.00
C736   C     0.45733   0.64524   0.75068   0.00000  Uiso   1.00
C737   C     0.50003   0.62392   0.75012   0.00000  Uiso   1.00
C738   C     0.63338   0.52556   0.78274   0.00000  Uiso   1.00
C739   C     0.34948   0.52529   0.78266   0.00000  Uiso   1.00
C740   C     0.48322   0.50907   0.98673   0.00000  Uiso   1.00
C741   C     0.36712   0.47462   0.71725   0.00000  Uiso   1.00
C742   C     0.65085   0.47461   0.71728   0.00000  Uiso   1.00
C743   C     0.49995   0.42070   0.74999   0.00000  Uiso   1.00
C744   C     0.52615   0.49959   0.65011   0.00000  Uiso   1.00
C745   C     0.60008   0.47786   0.51214   0.00000  Uiso   1.00
C746   C     0.54130   0.49733   0.59343   0.00000  Uiso   1.00
C747   C     0.41392   0.51998   0.93224   0.00000  Uiso   1.00
C748   C     0.40504   0.53666   0.98173   0.00000  Uiso   1.00
C749   C     0.44100   0.53447   0.50748   0.00000  Uiso   1.00
C750   C     0.49227   0.49293   0.93558   0.00000  Uiso   1.00
C751   C     0.51782   0.50009   0.51381   0.00000  Uiso   1.00
C752   C     0.56402   0.48283   0.98697   0.00000  Uiso   1.00
C753   C     0.57202   0.46742   0.93695   0.00000  Uiso   1.00
C754   C     0.53511   0.46945   0.91345   0.00000  Uiso   1.00
C755   C     0.50609   0.50358   0.56775   0.00000  Uiso   1.00
C756   C     0.58910   0.48619   0.56509   0.00000  Uiso   1.00
Cl757  Cl    0.59403   0.56000   0.82599   0.00000  Uiso   1.00
Cl758  Cl    0.43628   0.57095   0.55807   0.00000  Uiso   1.00
Cl759  Cl    0.35030   0.56444   0.50801   0.00000  Uiso   1.00
Cu760  Cu    0.45311   0.49999   0.75000   0.00000  Uiso   1.00
Cu761  Cu    0.54689   0.50001   0.75000   0.00000  Uiso   1.00
H762   H     0.61688   0.48115   0.58432   0.00000  Uiso   1.00
H763   H     0.46853   0.50807   0.59062   0.00000  Uiso   1.00
H764   H     0.38736   0.52532   0.91148   0.00000  Uiso   1.00
H765   H     0.54093   0.45237   0.87758   0.00000  Uiso   1.00
H766   H     0.57605   0.62964   0.74905   0.00000  Uiso   1.00
H767   H     0.57597   0.37088   0.74906   0.00000  Uiso   1.00
H768   H     0.42393   0.37038   0.75102   0.00000  Uiso   1.00
H769   H     0.42397   0.62912   0.75115   0.00000  Uiso   1.00
H770   H     0.36136   0.54551   0.80869   0.00000  Uiso   1.00
H771   H     0.39301   0.45426   0.69102   0.00000  Uiso   1.00
H772   H     0.63939   0.45427   0.69109   0.00000  Uiso   1.00
H773   H     0.60567   0.45134   0.91726   0.00000  Uiso   1.00
H774   H     0.63603   0.46602   0.99137   0.00000  Uiso   1.00
N775   N     0.38265   0.49999   0.74999   0.00000  Uiso   1.00
N776   N     0.61735   0.50002   0.75000   0.00000  Uiso   1.00
O777   O     0.46042   0.56011   0.75001   0.00000  Uiso   1.00
O778   O     0.53961   0.56012   0.75001   0.00000  Uiso   1.00
O779   O     0.44108   0.49998   0.82549   0.00000  Uiso   1.00
O780   O     0.52027   0.49999   0.82549   0.00000  Uiso   1.00
O781   O     0.46039   0.43988   0.75000   0.00000  Uiso   1.00
O782   O     0.53958   0.43989   0.75000   0.00000  Uiso   1.00
O783   O     0.47973   0.50001   0.67451   0.00000  Uiso   1.00
O784   O     0.55892   0.50002   0.67451   0.00000  Uiso   1.00
C785   C     0.83337   0.57930   0.75007   0.00000  Uiso   1.00
C786   C     0.79227   0.50147   0.90717   0.00000  Uiso   1.00
C787   C     0.87600   0.64552   0.74955   0.00000  Uiso   1.00
C788   C     0.80726   0.49861   0.85004   0.00000  Uiso   1.00
C789   C     0.87595   0.35476   0.74953   0.00000  Uiso   1.00
C790   C     0.83326   0.37608   0.75004   0.00000  Uiso   1.00
C791   C     0.79063   0.35448   0.75061   0.00000  Uiso   1.00
C792   C     0.79067   0.64524   0.75068   0.00000  Uiso   1.00
C793   C     0.83336   0.62392   0.75012   0.00000  Uiso   1.00
C794   C     0.96672   0.52556   0.78274   0.00000  Uiso   1.00
C795   C     0.68282   0.52529   0.78266   0.00000  Uiso   1.00
C796   C     0.81655   0.50907   0.98673   0.00000  Uiso   1.00
C797   C     0.70046   0.47462   0.71725   0.00000  Uiso   1.00
C798   C     0.98418   0.47461   0.71728   0.00000  Uiso   1.00
C799   C     0.83328   0.42070   0.74999   0.00000  Uiso   1.00
C800   C     0.85948   0.49959   0.65011   0.00000  Uiso   1.00
C801   C     0.93341   0.47786   0.51214   0.00000  Uiso   1.00
C802   C     0.87464   0.49733   0.59343   0.00000  Uiso   1.00
C803   C     0.74726   0.51998   0.93224   0.00000  Uiso   1.00
C804   C     0.73838   0.53666   0.98173   0.00000  Uiso   1.00
C805   C     0.77433   0.53447   0.50748   0.00000  Uiso   1.00
C806   C     0.82560   0.49293   0.93558   0.00000  Uiso   1.00
C807   C     0.85116   0.50009   0.51381   0.00000  Uiso   1.00
C808   C     0.89735   0.48283   0.98697   0.00000  Uiso   1.00
C809   C     0.90535   0.46742   0.93695   0.00000  Uiso   1.00
C810   C     0.86844   0.46945   0.91345   0.00000  Uiso   1.00
C811   C     0.83943   0.50358   0.56775   0.00000  Uiso   1.00
C812   C     0.92243   0.48619   0.56509   0.00000  Uiso   1.00
Cl813  Cl    0.92737   0.56000   0.82599   0.00000  Uiso   1.00
Cl814  Cl    0.76961   0.57095   0.55807   0.00000  Uiso   1.00
Cl815  Cl    0.68363   0.56444   0.50801   0.00000  Uiso   1.00
Cu816  Cu    0.78645   0.49999   0.75000   0.00000  Uiso   1.00
Cu817  Cu    0.88022   0.50001   0.75000   0.00000  Uiso   1.00
H818   H     0.95022   0.48115   0.58432   0.00000  Uiso   1.00
H819   H     0.80187   0.50807   0.59062   0.00000  Uiso   1.00
H820   H     0.72070   0.52532   0.91148   0.00000  Uiso   1.00
H821   H     0.87426   0.45237   0.87758   0.00000  Uiso   1.00
H822   H     0.90938   0.62964   0.74905   0.00000  Uiso   1.00
H823   H     0.90931   0.37088   0.74906   0.00000  Uiso   1.00
H824   H     0.75726   0.37038   0.75102   0.00000  Uiso   1.00
H825   H     0.75730   0.62912   0.75115   0.00000  Uiso   1.00
H826   H     0.69470   0.54551   0.80869   0.00000  Uiso   1.00
H827   H     0.72635   0.45426   0.69102   0.00000  Uiso   1.00
H828   H     0.97273   0.45427   0.69109   0.00000  Uiso   1.00
H829   H     0.93901   0.45134   0.91726   0.00000  Uiso   1.00
H830   H     0.96936   0.46602   0.99137   0.00000  Uiso   1.00
N831   N     0.71598   0.49999   0.74999   0.00000  Uiso   1.00
N832   N     0.95069   0.50002   0.75000   0.00000  Uiso   1.00
O833   O     0.79375   0.56011   0.75001   0.00000  Uiso   1.00
O834   O     0.87294   0.56012   0.75001   0.00000  Uiso   1.00
O835   O     0.77441   0.49998   0.82549   0.00000  Uiso   1.00
O836   O     0.85360   0.49999   0.82549   0.00000  Uiso   1.00
O837   O     0.79373   0.43988   0.75000   0.00000  Uiso   1.00
O838   O     0.87292   0.43989   0.75000   0.00000  Uiso   1.00
O839   O     0.81306   0.50001   0.67451   0.00000  Uiso   1.00
O840   O     0.89225   0.50002   0.67451   0.00000  Uiso   1.00
C841   C     0.16670   0.91263   0.75007   0.00000  Uiso   1.00
C842   C     0.12561   0.83481   0.90717   0.00000  Uiso   1.00
C843   C     0.20933   0.97886   0.74955   0.00000  Uiso   1.00
C844   C     0.14059   0.83194   0.85004   0.00000  Uiso   1.00
C845   C     0.20928   0.68809   0.74953   0.00000  Uiso   1.00
C846   C     0.16660   0.70941   0.75004   0.00000  Uiso   1.00
C847   C     0.12396   0.68781   0.75061   0.00000  Uiso   1.00
C848   C     0.12400   0.97857   0.75068   0.00000  Uiso   1.00
C849   C     0.16670   0.95725   0.75012   0.00000  Uiso   1.00
C850   C     0.30005   0.85890   0.78274   0.00000  Uiso   1.00
C851   C     0.01615   0.85863   0.78266   0.00000  Uiso   1.00
C852   C     0.14989   0.84240   0.98673   0.00000  Uiso   1.00
C853   C     0.03379   0.80796   0.71725   0.00000  Uiso   1.00
C854   C     0.31752   0.80794   0.71728   0.00000  Uiso   1.00
C855   C     0.16662   0.75403   0.74999   0.00000  Uiso   1.00
C856   C     0.19281   0.83293   0.65011   0.00000  Uiso   1.00
C857   C     0.26674   0.81119   0.51214   0.00000  Uiso   1.00
C858   C     0.20797   0.83066   0.59343   0.00000  Uiso   1.00
C859   C     0.08059   0.85332   0.93224   0.00000  Uiso   1.00
C860   C     0.07171   0.86999   0.98173   0.00000  Uiso   1.00
C861   C     0.10766   0.86780   0.50748   0.00000  Uiso   1.00
C862   C     0.15894   0.82626   0.93558   0.00000  Uiso   1.00
C863   C     0.18449   0.83342   0.51381   0.00000  Uiso   1.00
C864   C     0.23069   0.81616   0.98697   0.00000  Uiso   1.00
C865   C     0.23869   0.80075   0.93695   0.00000  Uiso   1.00
C866   C     0.20178   0.80279   0.91345   0.00000  Uiso   1.00
C867   C     0.17276   0.83691   0.56775   0.00000  Uiso   1.00
C868   C     0.25577   0.81952   0.56509   0.00000  Uiso   1.00
Cl869  Cl    0.26070   0.89334   0.82599   0.00000  Uiso   1.00
Cl870  Cl    0.10295   0.90428   0.55807   0.00000  Uiso   1.00
Cl871  Cl    0.01697   0.89777   0.50801   0.00000  Uiso   1.00
Cu872  Cu    0.11978   0.83333   0.75000   0.00000  Uiso   1.00
Cu873  Cu    0.21355   0.83334   0.75000   0.00000  Uiso   1.00
H874   H     0.28355   0.81449   0.58432   0.00000  Uiso   1.00
H875   H     0.13520   0.84141   0.59062   0.00000  Uiso   1.00
H876   H     0.05403   0.85865   0.91148   0.00000  Uiso   1.00
H877   H     0.20759   0.78570   0.87758   0.00000  Uiso   1.00
H878   H     0.24272   0.96297   0.74905   0.00000  Uiso   1.00
H879   H     0.24264   0.70421   0.74906   0.00000  Uiso   1.00
H880   H     0.09060   0.70371   0.75102   0.00000  Uiso   1.00
H881   H     0.09064   0.96246   0.75115   0.00000  Uiso   1.00
H882   H     0.02803   0.87885   0.80869   0.00000  Uiso   1.00
H883   H     0.05968   0.78759   0.69102   0.00000  Uiso   1.00
H884   H     0.30606   0.78760   0.69109   0.00000  Uiso   1.00
H885   H     0.27234   0.78468   0.91726   0.00000  Uiso   1.00
H886   H     0.30270   0.79936   0.99137   0.00000  Uiso   1.00
N887   N     0.04931   0.83332   0.74999   0.00000  Uiso   1.00
N888   N     0.28402   0.83335   0.75000   0.00000  Uiso   1.00
O889   O     0.12708   0.89345   0.75001   0.00000  Uiso   1.00
O890   O     0.20627   0.89346   0.75001   0.00000  Uiso   1.00
O891   O     0.10775   0.83332   0.82549   0.00000  Uiso   1.00
O892   O     0.18694   0.83333   0.82549   0.00000  Uiso   1.00
O893   O     0.12706   0.77321   0.75000   0.00000  Uiso   1.00
O894   O     0.20625   0.77322   0.75000   0.00000  Uiso   1.00
O895   O     0.14640   0.83334   0.67451   0.00000  Uiso   1.00
O896   O     0.22559   0.83335   0.67451   0.00000  Uiso   1.00
C897   C     0.50004   0.91263   0.75007   0.00000  Uiso   1.00
C898   C     0.45894   0.83481   0.90717   0.00000  Uiso   1.00
C899   C     0.54266   0.97886   0.74955   0.00000  Uiso   1.00
C900   C     0.47393   0.83194   0.85004   0.00000  Uiso   1.00
C901   C     0.54261   0.68809   0.74953   0.00000  Uiso   1.00
C902   C     0.49993   0.70941   0.75004   0.00000  Uiso   1.00
C903   C     0.45729   0.68781   0.75061   0.00000  Uiso   1.00
C904   C     0.45733   0.97857   0.75068   0.00000  Uiso   1.00
C905   C     0.50003   0.95725   0.75012   0.00000  Uiso   1.00
C906   C     0.63338   0.85890   0.78274   0.00000  Uiso   1.00
C907   C     0.34948   0.85863   0.78266   0.00000  Uiso   1.00
C908   C     0.48322   0.84240   0.98673   0.00000  Uiso   1.00
C909   C     0.36712   0.80796   0.71725   0.00000  Uiso   1.00
C910   C     0.65085   0.80794   0.71728   0.00000  Uiso   1.00
C911   C     0.49995   0.75403   0.74999   0.00000  Uiso   1.00
C912   C     0.52615   0.83293   0.65011   0.00000  Uiso   1.00
C913   C     0.60008   0.81119   0.51214   0.00000  Uiso   1.00
C914   C     0.54130   0.83066   0.59343   0.00000  Uiso   1.00
C915   C     0.41392   0.85332   0.93224   0.00000  Uiso   1.00
C916   C     0.40504   0.86999   0.98173   0.00000  Uiso   1.00
C917   C     0.44100   0.86780   0.50748   0.00000  Uiso   1.00
C918   C     0.49227   0.82626   0.93558   0.00000  Uiso   1.00
C919   C     0.51782   0.83342   0.51381   0.00000  Uiso   1.00
C920   C     0.56402   0.81616   0.98697   0.00000  Uiso   1.00
C921   C     0.57202   0.80075   0.93695   0.00000  Uiso   1.00
C922   C     0.53511   0.80279   0.91345   0.00000  Uiso   1.00
C923   C     0.50609   0.83691   0.56775   0.00000  Uiso   1.00
C924   C     0.58910   0.81952   0.56509   0.00000  Uiso   1.00
Cl925  Cl    0.59403   0.89334   0.82599   0.00000  Uiso   1.00
Cl926  Cl    0.43628   0.90428   0.55807   0.00000  Uiso   1.00
Cl927  Cl    0.35030   0.89777   0.50801   0.00000  Uiso   1.00
Cu928  Cu    0.45311   0.83333   0.75000   0.00000  Uiso   1.00
Cu929  Cu    0.54689   0.83334   0.75000   0.00000  Uiso   1.00
H930   H     0.61688   0.81449   0.58432   0.00000  Uiso   1.00
H931   H     0.46853   0.84141   0.59062   0.00000  Uiso   1.00
H932   H     0.38736   0.85865   0.91148   0.00000  Uiso   1.00
H933   H     0.54093   0.78570   0.87758   0.00000  Uiso   1.00
H934   H     0.57605   0.96297   0.74905   0.00000  Uiso   1.00
H935   H     0.57597   0.70421   0.74906   0.00000  Uiso   1.00
H936   H     0.42393   0.70371   0.75102   0.00000  Uiso   1.00
H937   H     0.42397   0.96246   0.75115   0.00000  Uiso   1.00
H938   H     0.36136   0.87885   0.80869   0.00000  Uiso   1.00
H939   H     0.39301   0.78759   0.69102   0.00000  Uiso   1.00
H940   H     0.63939   0.78760   0.69109   0.00000  Uiso   1.00
H941   H     0.60567   0.78468   0.91726   0.00000  Uiso   1.00
H942   H     0.63603   0.79936   0.99137   0.00000  Uiso   1.00
N943   N     0.38265   0.83332   0.74999   0.00000  Uiso   1.00
N944   N     0.61735   0.83335   0.75000   0.00000  Uiso   1.00
O945   O     0.46042   0.89345   0.75001   0.00000  Uiso   1.00
O946   O     0.53961   0.89346   0.75001   0.00000  Uiso   1.00
O947   O     0.44108   0.83332   0.82549   0.00000  Uiso   1.00
O948   O     0.52027   0.83333   0.82549   0.00000  Uiso   1.00
O949   O     0.46039   0.77321   0.75000   0.00000  Uiso   1.00
O950   O     0.53958   0.77322   0.75000   0.00000  Uiso   1.00
O951   O     0.47973   0.83334   0.67451   0.00000  Uiso   1.00
O952   O     0.55892   0.83335   0.67451   0.00000  Uiso   1.00
C953   C     0.83337   0.91263   0.75007   0.00000  Uiso   1.00
C954   C     0.79227   0.83481   0.90717   0.00000  Uiso   1.00
C955   C     0.87600   0.97886   0.74955   0.00000  Uiso   1.00
C956   C     0.80726   0.83194   0.85004   0.00000  Uiso   1.00
C957   C     0.87595   0.68809   0.74953   0.00000  Uiso   1.00
C958   C     0.83326   0.70941   0.75004   0.00000  Uiso   1.00
C959   C     0.79063   0.68781   0.75061   0.00000  Uiso   1.00
C960   C     0.79067   0.97857   0.75068   0.00000  Uiso   1.00
C961   C     0.83336   0.95725   0.75012   0.00000  Uiso   1.00
C962   C     0.96672   0.85890   0.78274   0.00000  Uiso   1.00
C963   C     0.68282   0.85863   0.78266   0.00000  Uiso   1.00
C964   C     0.81655   0.84240   0.98673   0.00000  Uiso   1.00
C965   C     0.70046   0.80796   0.71725   0.00000  Uiso   1.00
C966   C     0.98418   0.80794   0.71728   0.00000  Uiso   1.00
C967   C     0.83328   0.75403   0.74999   0.00000  Uiso   1.00
C968   C     0.85948   0.83293   0.65011   0.00000  Uiso   1.00
C969   C     0.93341   0.81119   0.51214   0.00000  Uiso   1.00
C970   C     0.87464   0.83066   0.59343   0.00000  Uiso   1.00
C971   C     0.74726   0.85332   0.93224   0.00000  Uiso   1.00
C972   C     0.73838   0.86999   0.98173   0.00000  Uiso   1.00
C973   C     0.77433   0.86780   0.50748   0.00000  Uiso   1.00
C974   C     0.82560   0.82626   0.93558   0.00000  Uiso   1.00
C975   C     0.85116   0.83342   0.51381   0.00000  Uiso   1.00
C976   C     0.89735   0.81616   0.98697   0.00000  Uiso   1.00
C977   C     0.90535   0.80075   0.93695   0.00000  Uiso   1.00
C978   C     0.86844   0.80279   0.91345   0.00000  Uiso   1.00
C979   C     0.83943   0.83691   0.56775   0.00000  Uiso   1.00
C980   C     0.92243   0.81952   0.56509   0.00000  Uiso   1.00
Cl981  Cl    0.92737   0.89334   0.82599   0.00000  Uiso   1.00
Cl982  Cl    0.76961   0.90428   0.55807   0.00000  Uiso   1.00
Cl983  Cl    0.68363   0.89777   0.50801   0.00000  Uiso   1.00
Cu984  Cu    0.78645   0.83333   0.75000   0.00000  Uiso   1.00
Cu985  Cu    0.88022   0.83334   0.75000   0.00000  Uiso   1.00
H986   H     0.95022   0.81449   0.58432   0.00000  Uiso   1.00
H987   H     0.80187   0.84141   0.59062   0.00000  Uiso   1.00
H988   H     0.72070   0.85865   0.91148   0.00000  Uiso   1.00
H989   H     0.87426   0.78570   0.87758   0.00000  Uiso   1.00
H990   H     0.90938   0.96297   0.74905   0.00000  Uiso   1.00
H991   H     0.90931   0.70421   0.74906   0.00000  Uiso   1.00
H992   H     0.75726   0.70371   0.75102   0.00000  Uiso   1.00
H993   H     0.75730   0.96246   0.75115   0.00000  Uiso   1.00
H994   H     0.69470   0.87885   0.80869   0.00000  Uiso   1.00
H995   H     0.72635   0.78759   0.69102   0.00000  Uiso   1.00
H996   H     0.97273   0.78760   0.69109   0.00000  Uiso   1.00
H997   H     0.93901   0.78468   0.91726   0.00000  Uiso   1.00
H998   H     0.96936   0.79936   0.99137   0.00000  Uiso   1.00
N999   N     0.71598   0.83332   0.74999   0.00000  Uiso   1.00
N1000  N     0.95069   0.83335   0.75000   0.00000  Uiso   1.00
O1001  O     0.79375   0.89345   0.75001   0.00000  Uiso   1.00
O1002  O     0.87294   0.89346   0.75001   0.00000  Uiso   1.00
O1003  O     0.77441   0.83332   0.82549   0.00000  Uiso   1.00
O1004  O     0.85360   0.83333   0.82549   0.00000  Uiso   1.00
O1005  O     0.79373   0.77321   0.75000   0.00000  Uiso   1.00
O1006  O     0.87292   0.77322   0.75000   0.00000  Uiso   1.00
O1007  O     0.81306   0.83334   0.67451   0.00000  Uiso   1.00
O1008  O     0.89225   0.83335   0.67451   0.00000  Uiso   1.00
loop_
_geom_bond_atom_site_label_1
_geom_bond_atom_site_label_2
_geom_bond_distance
_geom_bond_site_symmetry_2
_ccdc_geom_bond_type
C1     O50     1.293   .     A
C1     O49     1.291   .     A
C1     C9      1.450   .     S
C2     C22     1.418   .     A
C2     C4      1.473   .     S
C2     C19     1.399   .     A
C3     C9      1.401   .     A
C3     H38     1.083   .     S
C3     C173    1.383   .     S
C4     O52     1.294   .     A
C4     O51     1.301   .     A
C5     H39     1.083   .     S
C5     C6      1.402   .     A
C5     C339    1.383   1_545 S
C6     C7      1.401   .     A
C6     C15     1.450   .     S
C7     H40     1.083   .     S
C7     C344    1.383   1_545 S
C8     H41     1.083   .     S
C8     C9      1.402   .     A
C8     C175    1.383   .     S
C10    Cl29    1.756   .     S
C10    N48     1.379   .     A
C10    C67     1.412   .     S
C11    N47     1.359   .     A
C11    H42     1.082   .     S
C11    C122    1.412   1_455 S
C12    C22     1.421   .     A
C12    C525    1.431   .     S
C12    C527    1.425   .     S
C13    H43     1.082   .     S
C13    N47     1.368   .     A
C13    C126    1.418   1_455 S
C14    H44     1.082   .     S
C14    N48     1.367   .     A
C14    C69     1.418   .     S
C15    O53     1.293   .     A
C15    O54     1.291   .     A
C16    O56     1.295   .     A
C16    O55     1.294   .     A
C16    C18     1.461   .     S
C17    C28     1.392   .     A
C17    C528    1.403   1_554 S
C17    H550    1.084   1_554 S
C18    C27     1.397   .     A
C18    C28     1.400   .     A
C19    C20     1.388   .     A
C19    H36     1.084   .     S
C20    C525    1.403   .     S
C20    Cl535   1.762   .     S
C21    Cl30    1.774   .     S
C21    C516    1.431   1_554 S
C21    C524    1.403   1_554 S
C22    C26     1.415   .     A
C23    C27     1.396   .     A
C23    C516    1.425   1_554 S
C23    C528    1.419   1_554 S
C24    C25     1.388   .     A
C24    C521    1.403   .     S
C24    C527    1.419   .     S
C25    C26     1.385   .     A
C25    H45     1.084   .     S
C26    H37     1.080   .     S
C27    H35     1.078   .     S
C28    H34     1.083   .     S
Cl31   C524    1.762   1_554 S
Cu32   O55     1.950   .     S
Cu32   Cu33    2.681   .     S
Cu32   O51     1.961   .     S
Cu32   N47     2.014   .     S
Cu32   O49     1.964   .     S
Cu32   O53     1.965   .     S
Cu33   O56     1.961   .     S
Cu33   O52     1.950   .     S
Cu33   O54     1.964   .     S
Cu33   N48     2.014   .     S
Cu33   O50     1.965   .     S
H46    C521    1.084   .     S
C57    O106    1.293   .     A
C57    O105    1.291   .     A
C57    C65     1.450   .     S
C58    C78     1.418   .     A
C58    C60     1.473   .     S
C58    C75     1.399   .     A
C59    C65     1.401   .     A
C59    H94     1.083   .     S
C59    C229    1.383   .     S
C60    O108    1.294   .     A
C60    O107    1.301   .     A
C61    H95     1.083   .     S
C61    C62     1.402   .     A
C61    C395    1.383   1_545 S
C62    C63     1.401   .     A
C62    C71     1.450   .     S
C63    H96     1.083   .     S
C63    C400    1.383   1_545 S
C64    H97     1.083   .     S
C64    C65     1.402   .     A
C64    C231    1.383   .     S
C66    Cl85    1.756   .     S
C66    N104    1.379   .     A
C66    C123    1.412   .     S
C67    N103    1.359   .     A
C67    H98     1.082   .     S
C68    C78     1.421   .     A
C68    C581    1.431   .     S
C68    C583    1.425   .     S
C69    H99     1.082   .     S
C69    N103    1.368   .     A
C70    H100    1.082   .     S
C70    N104    1.367   .     A
C70    C125    1.418   .     S
C71    O109    1.293   .     A
C71    O110    1.291   .     A
C72    O112    1.295   .     A
C72    O111    1.294   .     A
C72    C74     1.461   .     S
C73    C84     1.392   .     A
C73    C584    1.403   1_554 S
C73    H606    1.084   1_554 S
C74    C83     1.397   .     A
C74    C84     1.400   .     A
C75    C76     1.388   .     A
C75    H92     1.084   .     S
C76    C581    1.403   .     S
C76    Cl591   1.762   .     S
C77    Cl86    1.774   .     S
C77    C572    1.431   1_554 S
C77    C580    1.403   1_554 S
C78    C82     1.415   .     A
C79    C83     1.396   .     A
C79    C572    1.425   1_554 S
C79    C584    1.419   1_554 S
C80    C81     1.388   .     A
C80    C577    1.403   .     S
C80    C583    1.419   .     S
C81    C82     1.385   .     A
C81    H101    1.084   .     S
C82    H93     1.080   .     S
C83    H91     1.078   .     S
C84    H90     1.083   .     S
Cl87   C580    1.762   1_554 S
Cu88   O111    1.950   .     S
Cu88   Cu89    2.681   .     S
Cu88   O107    1.961   .     S
Cu88   N103    2.014   .     S
Cu88   O105    1.964   .     S
Cu88   O109    1.965   .     S
Cu89   O112    1.961   .     S
Cu89   O108    1.950   .     S
Cu89   O110    1.964   .     S
Cu89   N104    2.014   .     S
Cu89   O106    1.965   .     S
H102   C577    1.084   .     S
C113   O162    1.293   .     A
C113   O161    1.291   .     A
C113   C121    1.450   .     S
C114   C134    1.418   .     A
C114   C116    1.473   .     S
C114   C131    1.399   .     A
C115   C121    1.401   .     A
C115   H150    1.083   .     S
C115   C285    1.383   .     S
C116   O164    1.294   .     A
C116   O163    1.301   .     A
C117   H151    1.083   .     S
C117   C118    1.402   .     A
C117   C451    1.383   1_545 S
C118   C119    1.401   .     A
C118   C127    1.450   .     S
C119   H152    1.083   .     S
C119   C456    1.383   1_545 S
C120   H153    1.083   .     S
C120   C121    1.402   .     A
C120   C287    1.383   .     S
C122   Cl141   1.756   .     S
C122   N160    1.379   .     A
C122   C11     1.412   1_655 S
C123   N159    1.359   .     A
C123   H154    1.082   .     S
C124   C134    1.421   .     A
C124   C637    1.431   .     S
C124   C639    1.425   .     S
C125   H155    1.082   .     S
C125   N159    1.368   .     A
C126   H156    1.082   .     S
C126   N160    1.367   .     A
C126   C13     1.418   1_655 S
C127   O165    1.293   .     A
C127   O166    1.291   .     A
C128   O168    1.295   .     A
C128   O167    1.294   .     A
C128   C130    1.461   .     S
C129   C140    1.392   .     A
C129   C640    1.403   1_554 S
C129   H662    1.084   1_554 S
C130   C139    1.397   .     A
C130   C140    1.400   .     A
C131   C132    1.388   .     A
C131   H148    1.084   .     S
C132   C637    1.403   .     S
C132   Cl647   1.762   .     S
C133   Cl142   1.774   .     S
C133   C628    1.431   1_554 S
C133   C636    1.403   1_554 S
C134   C138    1.415   .     A
C135   C139    1.396   .     A
C135   C628    1.425   1_554 S
C135   C640    1.419   1_554 S
C136   C137    1.388   .     A
C136   C633    1.403   .     S
C136   C639    1.419   .     S
C137   C138    1.385   .     A
C137   H157    1.084   .     S
C138   H149    1.080   .     S
C139   H147    1.078   .     S
C140   H146    1.083   .     S
Cl143  C636    1.762   1_554 S
Cu144  O167    1.950   .     S
Cu144  Cu145   2.681   .     S
Cu144  O163    1.961   .     S
Cu144  N159    2.014   .     S
Cu144  O161    1.964   .     S
Cu144  O165    1.965   .     S
Cu145  O168    1.961   .     S
Cu145  O164    1.950   .     S
Cu145  O166    1.964   .     S
Cu145  N160    2.014   .     S
Cu145  O162    1.965   .     S
H158   C633    1.084   .     S
C169   O218    1.293   .     A
C169   O217    1.291   .     A
C169   C177    1.450   .     S
C170   C190    1.418   .     A
C170   C172    1.473   .     S
C170   C187    1.399   .     A
C171   C177    1.401   .     A
C171   H206    1.083   .     S
C171   C341    1.383   .     S
C172   O220    1.294   .     A
C172   O219    1.301   .     A
C173   H207    1.083   .     S
C173   C174    1.402   .     A
C174   C175    1.401   .     A
C174   C183    1.450   .     S
C175   H208    1.083   .     S
C176   H209    1.083   .     S
C176   C177    1.402   .     A
C176   C343    1.383   .     S
C178   Cl197   1.756   .     S
C178   N216    1.379   .     A
C178   C235    1.412   .     S
C179   N215    1.359   .     A
C179   H210    1.082   .     S
C179   C290    1.412   1_455 S
C180   C190    1.421   .     A
C180   C693    1.431   .     S
C180   C695    1.425   .     S
C181   H211    1.082   .     S
C181   N215    1.368   .     A
C181   C294    1.418   1_455 S
C182   H212    1.082   .     S
C182   N216    1.367   .     A
C182   C237    1.418   .     S
C183   O221    1.293   .     A
C183   O222    1.291   .     A
C184   O224    1.295   .     A
C184   O223    1.294   .     A
C184   C186    1.461   .     S
C185   C196    1.392   .     A
C185   C696    1.403   1_554 S
C185   H718    1.084   1_554 S
C186   C195    1.397   .     A
C186   C196    1.400   .     A
C187   C188    1.388   .     A
C187   H204    1.084   .     S
C188   C693    1.403   .     S
C188   Cl703   1.762   .     S
C189   Cl198   1.774   .     S
C189   C684    1.431   1_554 S
C189   C692    1.403   1_554 S
C190   C194    1.415   .     A
C191   C195    1.396   .     A
C191   C684    1.425   1_554 S
C191   C696    1.419   1_554 S
C192   C193    1.388   .     A
C192   C689    1.403   .     S
C192   C695    1.419   .     S
C193   C194    1.385   .     A
C193   H213    1.084   .     S
C194   H205    1.080   .     S
C195   H203    1.078   .     S
C196   H202    1.083   .     S
Cl199  C692    1.762   1_554 S
Cu200  O223    1.950   .     S
Cu200  Cu201   2.681   .     S
Cu200  O219    1.961   .     S
Cu200  N215    2.014   .     S
Cu200  O217    1.964   .     S
Cu200  O221    1.965   .     S
Cu201  O224    1.961   .     S
Cu201  O220    1.950   .     S
Cu201  O222    1.964   .     S
Cu201  N216    2.014   .     S
Cu201  O218    1.965   .     S
H214   C689    1.084   .     S
C225   O274    1.293   .     A
C225   O273    1.291   .     A
C225   C233    1.450   .     S
C226   C246    1.418   .     A
C226   C228    1.473   .     S
C226   C243    1.399   .     A
C227   C233    1.401   .     A
C227   H262    1.083   .     S
C227   C397    1.383   .     S
C228   O276    1.294   .     A
C228   O275    1.301   .     A
C229   H263    1.083   .     S
C229   C230    1.402   .     A
C230   C231    1.401   .     A
C230   C239    1.450   .     S
C231   H264    1.083   .     S
C232   H265    1.083   .     S
C232   C233    1.402   .     A
C232   C399    1.383   .     S
C234   Cl253   1.756   .     S
C234   N272    1.379   .     A
C234   C291    1.412   .     S
C235   N271    1.359   .     A
C235   H266    1.082   .     S
C236   C246    1.421   .     A
C236   C749    1.431   .     S
C236   C751    1.425   .     S
C237   H267    1.082   .     S
C237   N271    1.368   .     A
C238   H268    1.082   .     S
C238   N272    1.367   .     A
C238   C293    1.418   .     S
C239   O277    1.293   .     A
C239   O278    1.291   .     A
C240   O280    1.295   .     A
C240   O279    1.294   .     A
C240   C242    1.461   .     S
C241   C252    1.392   .     A
C241   C752    1.403   1_554 S
C241   H774    1.084   1_554 S
C242   C251    1.397   .     A
C242   C252    1.400   .     A
C243   C244    1.388   .     A
C243   H260    1.084   .     S
C244   C749    1.403   .     S
C244   Cl759   1.762   .     S
C245   Cl254   1.774   .     S
C245   C740    1.431   1_554 S
C245   C748    1.403   1_554 S
C246   C250    1.415   .     A
C247   C251    1.396   .     A
C247   C740    1.425   1_554 S
C247   C752    1.419   1_554 S
C248   C249    1.388   .     A
C248   C745    1.403   .     S
C248   C751    1.419   .     S
C249   C250    1.385   .     A
C249   H269    1.084   .     S
C250   H261    1.080   .     S
C251   H259    1.078   .     S
C252   H258    1.083   .     S
Cl255  C748    1.762   1_554 S
Cu256  O279    1.950   .     S
Cu256  Cu257   2.681   .     S
Cu256  O275    1.961   .     S
Cu256  N271    2.014   .     S
Cu256  O273    1.964   .     S
Cu256  O277    1.965   .     S
Cu257  O280    1.961   .     S
Cu257  O276    1.950   .     S
Cu257  O278    1.964   .     S
Cu257  N272    2.014   .     S
Cu257  O274    1.965   .     S
H270   C745    1.084   .     S
C281   O330    1.293   .     A
C281   O329    1.291   .     A
C281   C289    1.450   .     S
C282   C302    1.418   .     A
C282   C284    1.473   .     S
C282   C299    1.399   .     A
C283   C289    1.401   .     A
C283   H318    1.083   .     S
C283   C453    1.383   .     S
C284   O332    1.294   .     A
C284   O331    1.301   .     A
C285   H319    1.083   .     S
C285   C286    1.402   .     A
C286   C287    1.401   .     A
C286   C295    1.450   .     S
C287   H320    1.083   .     S
C288   H321    1.083   .     S
C288   C289    1.402   .     A
C288   C455    1.383   .     S
C290   Cl309   1.756   .     S
C290   N328    1.379   .     A
C290   C179    1.412   1_655 S
C291   N327    1.359   .     A
C291   H322    1.082   .     S
C292   C302    1.421   .     A
C292   C805    1.431   .     S
C292   C807    1.425   .     S
C293   H323    1.082   .     S
C293   N327    1.368   .     A
C294   H324    1.082   .     S
C294   N328    1.367   .     A
C294   C181    1.418   1_655 S
C295   O333    1.293   .     A
C295   O334    1.291   .     A
C296   O336    1.295   .     A
C296   O335    1.294   .     A
C296   C298    1.461   .     S
C297   C308    1.392   .     A
C297   C808    1.403   1_554 S
C297   H830    1.084   1_554 S
C298   C307    1.397   .     A
C298   C308    1.400   .     A
C299   C300    1.388   .     A
C299   H316    1.084   .     S
C300   C805    1.403   .     S
C300   Cl815   1.762   .     S
C301   Cl310   1.774   .     S
C301   C796    1.431   1_554 S
C301   C804    1.403   1_554 S
C302   C306    1.415   .     A
C303   C307    1.396   .     A
C303   C796    1.425   1_554 S
C303   C808    1.419   1_554 S
C304   C305    1.388   .     A
C304   C801    1.403   .     S
C304   C807    1.419   .     S
C305   C306    1.385   .     A
C305   H325    1.084   .     S
C306   H317    1.080   .     S
C307   H315    1.078   .     S
C308   H314    1.083   .     S
Cl311  C804    1.762   1_554 S
Cu312  O335    1.950   .     S
Cu312  Cu313   2.681   .     S
Cu312  O331    1.961   .     S
Cu312  N327    2.014   .     S
Cu312  O329    1.964   .     S
Cu312  O333    1.965   .     S
Cu313  O336    1.961   .     S
Cu313  O332    1.950   .     S
Cu313  O334    1.964   .     S
Cu313  N328    2.014   .     S
Cu313  O330    1.965   .     S
H326   C801    1.084   .     S
C337   O386    1.293   .     A
C337   O385    1.291   .     A
C337   C345    1.450   .     S
C338   C358    1.418   .     A
C338   C340    1.473   .     S
C338   C355    1.399   .     A
C339   C345    1.401   .     A
C339   H374    1.083   .     S
C339   C5      1.383   1_565 S
C340   O388    1.294   .     A
C340   O387    1.301   .     A
C341   H375    1.083   .     S
C341   C342    1.402   .     A
C342   C343    1.401   .     A
C342   C351    1.450   .     S
C343   H376    1.083   .     S
C344   H377    1.083   .     S
C344   C345    1.402   .     A
C344   C7      1.383   1_565 S
C346   Cl365   1.756   .     S
C346   N384    1.379   .     A
C346   C403    1.412   .     S
C347   N383    1.359   .     A
C347   H378    1.082   .     S
C347   C458    1.412   1_455 S
C348   C358    1.421   .     A
C348   C861    1.431   .     S
C348   C863    1.425   .     S
C349   H379    1.082   .     S
C349   N383    1.368   .     A
C349   C462    1.418   1_455 S
C350   H380    1.082   .     S
C350   N384    1.367   .     A
C350   C405    1.418   .     S
C351   O389    1.293   .     A
C351   O390    1.291   .     A
C352   O392    1.295   .     A
C352   O391    1.294   .     A
C352   C354    1.461   .     S
C353   C364    1.392   .     A
C353   C864    1.403   1_554 S
C353   H886    1.084   1_554 S
C354   C363    1.397   .     A
C354   C364    1.400   .     A
C355   C356    1.388   .     A
C355   H372    1.084   .     S
C356   C861    1.403   .     S
C356   Cl871   1.762   .     S
C357   Cl366   1.774   .     S
C357   C852    1.431   1_554 S
C357   C860    1.403   1_554 S
C358   C362    1.415   .     A
C359   C363    1.396   .     A
C359   C852    1.425   1_554 S
C359   C864    1.419   1_554 S
C360   C361    1.388   .     A
C360   C857    1.403   .     S
C360   C863    1.419   .     S
C361   C362    1.385   .     A
C361   H381    1.084   .     S
C362   H373    1.080   .     S
C363   H371    1.078   .     S
C364   H370    1.083   .     S
Cl367  C860    1.762   1_554 S
Cu368  O391    1.950   .     S
Cu368  Cu369   2.681   .     S
Cu368  O387    1.961   .     S
Cu368  N383    2.014   .     S
Cu368  O385    1.964   .     S
Cu368  O389    1.965   .     S
Cu369  O392    1.961   .     S
Cu369  O388    1.950   .     S
Cu369  O390    1.964   .     S
Cu369  N384    2.014   .     S
Cu369  O386    1.965   .     S
H382   C857    1.084   .     S
C393   O442    1.293   .     A
C393   O441    1.291   .     A
C393   C401    1.450   .     S
C394   C414    1.418   .     A
C394   C396    1.473   .     S
C394   C411    1.399   .     A
C395   C401    1.401   .     A
C395   H430    1.083   .     S
C395   C61     1.383   1_565 S
C396   O444    1.294   .     A
C396   O443    1.301   .     A
C397   H431    1.083   .     S
C397   C398    1.402   .     A
C398   C399    1.401   .     A
C398   C407    1.450   .     S
C399   H432    1.083   .     S
C400   H433    1.083   .     S
C400   C401    1.402   .     A
C400   C63     1.383   1_565 S
C402   Cl421   1.756   .     S
C402   N440    1.379   .     A
C402   C459    1.412   .     S
C403   N439    1.359   .     A
C403   H434    1.082   .     S
C404   C414    1.421   .     A
C404   C917    1.431   .     S
C404   C919    1.425   .     S
C405   H435    1.082   .     S
C405   N439    1.368   .     A
C406   H436    1.082   .     S
C406   N440    1.367   .     A
C406   C461    1.418   .     S
C407   O445    1.293   .     A
C407   O446    1.291   .     A
C408   O448    1.295   .     A
C408   O447    1.294   .     A
C408   C410    1.461   .     S
C409   C420    1.392   .     A
C409   C920    1.403   1_554 S
C409   H942    1.084   1_554 S
C410   C419    1.397   .     A
C410   C420    1.400   .     A
C411   C412    1.388   .     A
C411   H428    1.084   .     S
C412   C917    1.403   .     S
C412   Cl927   1.762   .     S
C413   Cl422   1.774   .     S
C413   C908    1.431   1_554 S
C413   C916    1.403   1_554 S
C414   C418    1.415   .     A
C415   C419    1.396   .     A
C415   C908    1.425   1_554 S
C415   C920    1.419   1_554 S
C416   C417    1.388   .     A
C416   C913    1.403   .     S
C416   C919    1.419   .     S
C417   C418    1.385   .     A
C417   H437    1.084   .     S
C418   H429    1.080   .     S
C419   H427    1.078   .     S
C420   H426    1.083   .     S
Cl423  C916    1.762   1_554 S
Cu424  O447    1.950   .     S
Cu424  Cu425   2.681   .     S
Cu424  O443    1.961   .     S
Cu424  N439    2.014   .     S
Cu424  O441    1.964   .     S
Cu424  O445    1.965   .     S
Cu425  O448    1.961   .     S
Cu425  O444    1.950   .     S
Cu425  O446    1.964   .     S
Cu425  N440    2.014   .     S
Cu425  O442    1.965   .     S
H438   C913    1.084   .     S
C449   O498    1.293   .     A
C449   O497    1.291   .     A
C449   C457    1.450   .     S
C450   C470    1.418   .     A
C450   C452    1.473   .     S
C450   C467    1.399   .     A
C451   C457    1.401   .     A
C451   H486    1.083   .     S
C451   C117    1.383   1_565 S
C452   O500    1.294   .     A
C452   O499    1.301   .     A
C453   H487    1.083   .     S
C453   C454    1.402   .     A
C454   C455    1.401   .     A
C454   C463    1.450   .     S
C455   H488    1.083   .     S
C456   H489    1.083   .     S
C456   C457    1.402   .     A
C456   C119    1.383   1_565 S
C458   Cl477   1.756   .     S
C458   N496    1.379   .     A
C458   C347    1.412   1_655 S
C459   N495    1.359   .     A
C459   H490    1.082   .     S
C460   C470    1.421   .     A
C460   C973    1.431   .     S
C460   C975    1.425   .     S
C461   H491    1.082   .     S
C461   N495    1.368   .     A
C462   H492    1.082   .     S
C462   N496    1.367   .     A
C462   C349    1.418   1_655 S
C463   O501    1.293   .     A
C463   O502    1.291   .     A
C464   O504    1.295   .     A
C464   O503    1.294   .     A
C464   C466    1.461   .     S
C465   C476    1.392   .     A
C465   C976    1.403   1_554 S
C465   H998    1.084   1_554 S
C466   C475    1.397   .     A
C466   C476    1.400   .     A
C467   C468    1.388   .     A
C467   H484    1.084   .     S
C468   C973    1.403   .     S
C468   Cl983   1.762   .     S
C469   Cl478   1.774   .     S
C469   C964    1.431   1_554 S
C469   C972    1.403   1_554 S
C470   C474    1.415   .     A
C471   C475    1.396   .     A
C471   C964    1.425   1_554 S
C471   C976    1.419   1_554 S
C472   C473    1.388   .     A
C472   C969    1.403   .     S
C472   C975    1.419   .     S
C473   C474    1.385   .     A
C473   H493    1.084   .     S
C474   H485    1.080   .     S
C475   H483    1.078   .     S
C476   H482    1.083   .     S
Cl479  C972    1.762   1_554 S
Cu480  O503    1.950   .     S
Cu480  Cu481   2.681   .     S
Cu480  O499    1.961   .     S
Cu480  N495    2.014   .     S
Cu480  O497    1.964   .     S
Cu480  O501    1.965   .     S
Cu481  O504    1.961   .     S
Cu481  O500    1.950   .     S
Cu481  O502    1.964   .     S
Cu481  N496    2.014   .     S
Cu481  O498    1.965   .     S
H494   C969    1.084   .     S
C505   O554    1.293   .     A
C505   O553    1.291   .     A
C505   C513    1.450   .     S
C506   C526    1.418   .     A
C506   C508    1.473   .     S
C506   C523    1.399   .     A
C507   C513    1.401   .     A
C507   H542    1.083   .     S
C507   C677    1.383   .     S
C508   O556    1.294   .     A
C508   O555    1.301   .     A
C509   H543    1.083   .     S
C509   C510    1.402   .     A
C509   C843    1.383   1_545 S
C510   C511    1.401   .     A
C510   C519    1.450   .     S
C511   H544    1.083   .     S
C511   C848    1.383   1_545 S
C512   H545    1.083   .     S
C512   C513    1.402   .     A
C512   C679    1.383   .     S
C514   Cl533   1.756   .     S
C514   N552    1.379   .     A
C514   C571    1.412   .     S
C515   N551    1.359   .     A
C515   H546    1.082   .     S
C515   C626    1.412   1_455 S
C516   C526    1.421   .     A
C516   C21     1.431   1_556 S
C516   C23     1.425   1_556 S
C517   H547    1.082   .     S
C517   N551    1.368   .     A
C517   C630    1.418   1_455 S
C518   H548    1.082   .     S
C518   N552    1.367   .     A
C518   C573    1.418   .     S
C519   O557    1.293   .     A
C519   O558    1.291   .     A
C520   O560    1.295   .     A
C520   O559    1.294   .     A
C520   C522    1.461   .     S
C521   C532    1.392   .     A
C522   C531    1.397   .     A
C522   C532    1.400   .     A
C523   C524    1.388   .     A
C523   H540    1.084   .     S
C524   C21     1.403   1_556 S
C524   Cl31    1.762   1_556 S
C525   Cl534   1.774   .     S
C526   C530    1.415   .     A
C527   C531    1.396   .     A
C528   C529    1.388   .     A
C528   C17     1.403   1_556 S
C528   C23     1.419   1_556 S
C529   C530    1.385   .     A
C529   H549    1.084   .     S
C530   H541    1.080   .     S
C531   H539    1.078   .     S
C532   H538    1.083   .     S
Cu536  O559    1.950   .     S
Cu536  Cu537   2.681   .     S
Cu536  O555    1.961   .     S
Cu536  N551    2.014   .     S
Cu536  O553    1.964   .     S
Cu536  O557    1.965   .     S
Cu537  O560    1.961   .     S
Cu537  O556    1.950   .     S
Cu537  O558    1.964   .     S
Cu537  N552    2.014   .     S
Cu537  O554    1.965   .     S
H550   C17     1.084   1_556 S
C561   O610    1.293   .     A
C561   O609    1.291   .     A
C561   C569    1.450   .     S
C562   C582    1.418   .     A
C562   C564    1.473   .     S
C562   C579    1.399   .     A
C563   C569    1.401   .     A
C563   H598    1.083   .     S
C563   C733    1.383   .     S
C564   O612    1.294   .     A
C564   O611    1.301   .     A
C565   H599    1.083   .     S
C565   C566    1.402   .     A
C565   C899    1.383   1_545 S
C566   C567    1.401   .     A
C566   C575    1.450   .     S
C567   H600    1.083   .     S
C567   C904    1.383   1_545 S
C568   H601    1.083   .     S
C568   C569    1.402   .     A
C568   C735    1.383   .     S
C570   Cl589   1.756   .     S
C570   N608    1.379   .     A
C570   C627    1.412   .     S
C571   N607    1.359   .     A
C571   H602    1.082   .     S
C572   C582    1.421   .     A
C572   C77     1.431   1_556 S
C572   C79     1.425   1_556 S
C573   H603    1.082   .     S
C573   N607    1.368   .     A
C574   H604    1.082   .     S
C574   N608    1.367   .     A
C574   C629    1.418   .     S
C575   O613    1.293   .     A
C575   O614    1.291   .     A
C576   O616    1.295   .     A
C576   O615    1.294   .     A
C576   C578    1.461   .     S
C577   C588    1.392   .     A
C578   C587    1.397   .     A
C578   C588    1.400   .     A
C579   C580    1.388   .     A
C579   H596    1.084   .     S
C580   C77     1.403   1_556 S
C580   Cl87    1.762   1_556 S
C581   Cl590   1.774   .     S
C582   C586    1.415   .     A
C583   C587    1.396   .     A
C584   C585    1.388   .     A
C584   C73     1.403   1_556 S
C584   C79     1.419   1_556 S
C585   C586    1.385   .     A
C585   H605    1.084   .     S
C586   H597    1.080   .     S
C587   H595    1.078   .     S
C588   H594    1.083   .     S
Cu592  O615    1.950   .     S
Cu592  Cu593   2.681   .     S
Cu592  O611    1.961   .     S
Cu592  N607    2.014   .     S
Cu592  O609    1.964   .     S
Cu592  O613    1.965   .     S
Cu593  O616    1.961   .     S
Cu593  O612    1.950   .     S
Cu593  O614    1.964   .     S
Cu593  N608    2.014   .     S
Cu593  O610    1.965   .     S
H606   C73     1.084   1_556 S
C617   O666    1.293   .     A
C617   O665    1.291   .     A
C617   C625    1.450   .     S
C618   C638    1.418   .     A
C618   C620    1.473   .     S
C618   C635    1.399   .     A
C619   C625    1.401   .     A
C619   H654    1.083   .     S
C619   C789    1.383   .     S
C620   O668    1.294   .     A
C620   O667    1.301   .     A
C621   H655    1.083   .     S
C621   C622    1.402   .     A
C621   C955    1.383   1_545 S
C622   C623    1.401   .     A
C622   C631    1.450   .     S
C623   H656    1.083   .     S
C623   C960    1.383   1_545 S
C624   H657    1.083   .     S
C624   C625    1.402   .     A
C624   C791    1.383   .     S
C626   Cl645   1.756   .     S
C626   N664    1.379   .     A
C626   C515    1.412   1_655 S
C627   N663    1.359   .     A
C627   H658    1.082   .     S
C628   C638    1.421   .     A
C628   C133    1.431   1_556 S
C628   C135    1.425   1_556 S
C629   H659    1.082   .     S
C629   N663    1.368   .     A
C630   H660    1.082   .     S
C630   N664    1.367   .     A
C630   C517    1.418   1_655 S
C631   O669    1.293   .     A
C631   O670    1.291   .     A
C632   O672    1.295   .     A
C632   O671    1.294   .     A
C632   C634    1.461   .     S
C633   C644    1.392   .     A
C634   C643    1.397   .     A
C634   C644    1.400   .     A
C635   C636    1.388   .     A
C635   H652    1.084   .     S
C636   C133    1.403   1_556 S
C636   Cl143   1.762   1_556 S
C637   Cl646   1.774   .     S
C638   C642    1.415   .     A
C639   C643    1.396   .     A
C640   C641    1.388   .     A
C640   C129    1.403   1_556 S
C640   C135    1.419   1_556 S
C641   C642    1.385   .     A
C641   H661    1.084   .     S
C642   H653    1.080   .     S
C643   H651    1.078   .     S
C644   H650    1.083   .     S
Cu648  O671    1.950   .     S
Cu648  Cu649   2.681   .     S
Cu648  O667    1.961   .     S
Cu648  N663    2.014   .     S
Cu648  O665    1.964   .     S
Cu648  O669    1.965   .     S
Cu649  O672    1.961   .     S
Cu649  O668    1.950   .     S
Cu649  O670    1.964   .     S
Cu649  N664    2.014   .     S
Cu649  O666    1.965   .     S
H662   C129    1.084   1_556 S
C673   O722    1.293   .     A
C673   O721    1.291   .     A
C673   C681    1.450   .     S
C674   C694    1.418   .     A
C674   C676    1.473   .     S
C674   C691    1.399   .     A
C675   C681    1.401   .     A
C675   H710    1.083   .     S
C675   C845    1.383   .     S
C676   O724    1.294   .     A
C676   O723    1.301   .     A
C677   H711    1.083   .     S
C677   C678    1.402   .     A
C678   C679    1.401   .     A
C678   C687    1.450   .     S
C679   H712    1.083   .     S
C680   H713    1.083   .     S
C680   C681    1.402   .     A
C680   C847    1.383   .     S
C682   Cl701   1.756   .     S
C682   N720    1.379   .     A
C682   C739    1.412   .     S
C683   N719    1.359   .     A
C683   H714    1.082   .     S
C683   C794    1.412   1_455 S
C684   C694    1.421   .     A
C684   C189    1.431   1_556 S
C684   C191    1.425   1_556 S
C685   H715    1.082   .     S
C685   N719    1.368   .     A
C685   C798    1.418   1_455 S
C686   H716    1.082   .     S
C686   N720    1.367   .     A
C686   C741    1.418   .     S
C687   O725    1.293   .     A
C687   O726    1.291   .     A
C688   O728    1.295   .     A
C688   O727    1.294   .     A
C688   C690    1.461   .     S
C689   C700    1.392   .     A
C690   C699    1.397   .     A
C690   C700    1.400   .     A
C691   C692    1.388   .     A
C691   H708    1.084   .     S
C692   C189    1.403   1_556 S
C692   Cl199   1.762   1_556 S
C693   Cl702   1.774   .     S
C694   C698    1.415   .     A
C695   C699    1.396   .     A
C696   C697    1.388   .     A
C696   C185    1.403   1_556 S
C696   C191    1.419   1_556 S
C697   C698    1.385   .     A
C697   H717    1.084   .     S
C698   H709    1.080   .     S
C699   H707    1.078   .     S
C700   H706    1.083   .     S
Cu704  O727    1.950   .     S
Cu704  Cu705   2.681   .     S
Cu704  O723    1.961   .     S
Cu704  N719    2.014   .     S
Cu704  O721    1.964   .     S
Cu704  O725    1.965   .     S
Cu705  O728    1.961   .     S
Cu705  O724    1.950   .     S
Cu705  O726    1.964   .     S
Cu705  N720    2.014   .     S
Cu705  O722    1.965   .     S
H718   C185    1.084   1_556 S
C729   O778    1.293   .     A
C729   O777    1.291   .     A
C729   C737    1.450   .     S
C730   C750    1.418   .     A
C730   C732    1.473   .     S
C730   C747    1.399   .     A
C731   C737    1.401   .     A
C731   H766    1.083   .     S
C731   C901    1.383   .     S
C732   O780    1.294   .     A
C732   O779    1.301   .     A
C733   H767    1.083   .     S
C733   C734    1.402   .     A
C734   C735    1.401   .     A
C734   C743    1.450   .     S
C735   H768    1.083   .     S
C736   H769    1.083   .     S
C736   C737    1.402   .     A
C736   C903    1.383   .     S
C738   Cl757   1.756   .     S
C738   N776    1.379   .     A
C738   C795    1.412   .     S
C739   N775    1.359   .     A
C739   H770    1.082   .     S
C740   C750    1.421   .     A
C740   C245    1.431   1_556 S
C740   C247    1.425   1_556 S
C741   H771    1.082   .     S
C741   N775    1.368   .     A
C742   H772    1.082   .     S
C742   N776    1.367   .     A
C742   C797    1.418   .     S
C743   O781    1.293   .     A
C743   O782    1.291   .     A
C744   O784    1.295   .     A
C744   O783    1.294   .     A
C744   C746    1.461   .     S
C745   C756    1.392   .     A
C746   C755    1.397   .     A
C746   C756    1.400   .     A
C747   C748    1.388   .     A
C747   H764    1.084   .     S
C748   C245    1.403   1_556 S
C748   Cl255   1.762   1_556 S
C749   Cl758   1.774   .     S
C750   C754    1.415   .     A
C751   C755    1.396   .     A
C752   C753    1.388   .     A
C752   C241    1.403   1_556 S
C752   C247    1.419   1_556 S
C753   C754    1.385   .     A
C753   H773    1.084   .     S
C754   H765    1.080   .     S
C755   H763    1.078   .     S
C756   H762    1.083   .     S
Cu760  O783    1.950   .     S
Cu760  Cu761   2.681   .     S
Cu760  O779    1.961   .     S
Cu760  N775    2.014   .     S
Cu760  O777    1.964   .     S
Cu760  O781    1.965   .     S
Cu761  O784    1.961   .     S
Cu761  O780    1.950   .     S
Cu761  O782    1.964   .     S
Cu761  N776    2.014   .     S
Cu761  O778    1.965   .     S
H774   C241    1.084   1_556 S
C785   O834    1.293   .     A
C785   O833    1.291   .     A
C785   C793    1.450   .     S
C786   C806    1.418   .     A
C786   C788    1.473   .     S
C786   C803    1.399   .     A
C787   C793    1.401   .     A
C787   H822    1.083   .     S
C787   C957    1.383   .     S
C788   O836    1.294   .     A
C788   O835    1.301   .     A
C789   H823    1.083   .     S
C789   C790    1.402   .     A
C790   C791    1.401   .     A
C790   C799    1.450   .     S
C791   H824    1.083   .     S
C792   H825    1.083   .     S
C792   C793    1.402   .     A
C792   C959    1.383   .     S
C794   Cl813   1.756   .     S
C794   N832    1.379   .     A
C794   C683    1.412   1_655 S
C795   N831    1.359   .     A
C795   H826    1.082   .     S
C796   C806    1.421   .     A
C796   C301    1.431   1_556 S
C796   C303    1.425   1_556 S
C797   H827    1.082   .     S
C797   N831    1.368   .     A
C798   H828    1.082   .     S
C798   N832    1.367   .     A
C798   C685    1.418   1_655 S
C799   O837    1.293   .     A
C799   O838    1.291   .     A
C800   O840    1.295   .     A
C800   O839    1.294   .     A
C800   C802    1.461   .     S
C801   C812    1.392   .     A
C802   C811    1.397   .     A
C802   C812    1.400   .     A
C803   C804    1.388   .     A
C803   H820    1.084   .     S
C804   C301    1.403   1_556 S
C804   Cl311   1.762   1_556 S
C805   Cl814   1.774   .     S
C806   C810    1.415   .     A
C807   C811    1.396   .     A
C808   C809    1.388   .     A
C808   C297    1.403   1_556 S
C808   C303    1.419   1_556 S
C809   C810    1.385   .     A
C809   H829    1.084   .     S
C810   H821    1.080   .     S
C811   H819    1.078   .     S
C812   H818    1.083   .     S
Cu816  O839    1.950   .     S
Cu816  Cu817   2.681   .     S
Cu816  O835    1.961   .     S
Cu816  N831    2.014   .     S
Cu816  O833    1.964   .     S
Cu816  O837    1.965   .     S
Cu817  O840    1.961   .     S
Cu817  O836    1.950   .     S
Cu817  O838    1.964   .     S
Cu817  N832    2.014   .     S
Cu817  O834    1.965   .     S
H830   C297    1.084   1_556 S
C841   O890    1.293   .     A
C841   O889    1.291   .     A
C841   C849    1.450   .     S
C842   C862    1.418   .     A
C842   C844    1.473   .     S
C842   C859    1.399   .     A
C843   C849    1.401   .     A
C843   H878    1.083   .     S
C843   C509    1.383   1_565 S
C844   O892    1.294   .     A
C844   O891    1.301   .     A
C845   H879    1.083   .     S
C845   C846    1.402   .     A
C846   C847    1.401   .     A
C846   C855    1.450   .     S
C847   H880    1.083   .     S
C848   H881    1.083   .     S
C848   C849    1.402   .     A
C848   C511    1.383   1_565 S
C850   Cl869   1.756   .     S
C850   N888    1.379   .     A
C850   C907    1.412   .     S
C851   N887    1.359   .     A
C851   H882    1.082   .     S
C851   C962    1.412   1_455 S
C852   C862    1.421   .     A
C852   C357    1.431   1_556 S
C852   C359    1.425   1_556 S
C853   H883    1.082   .     S
C853   N887    1.368   .     A
C853   C966    1.418   1_455 S
C854   H884    1.082   .     S
C854   N888    1.367   .     A
C854   C909    1.418   .     S
C855   O893    1.293   .     A
C855   O894    1.291   .     A
C856   O896    1.295   .     A
C856   O895    1.294   .     A
C856   C858    1.461   .     S
C857   C868    1.392   .     A
C858   C867    1.397   .     A
C858   C868    1.400   .     A
C859   C860    1.388   .     A
C859   H876    1.084   .     S
C860   C357    1.403   1_556 S
C860   Cl367   1.762   1_556 S
C861   Cl870   1.774   .     S
C862   C866    1.415   .     A
C863   C867    1.396   .     A
C864   C865    1.388   .     A
C864   C353    1.403   1_556 S
C864   C359    1.419   1_556 S
C865   C866    1.385   .     A
C865   H885    1.084   .     S
C866   H877    1.080   .     S
C867   H875    1.078   .     S
C868   H874    1.083   .     S
Cu872  O895    1.950   .     S
Cu872  Cu873   2.681   .     S
Cu872  O891    1.961   .     S
Cu872  N887    2.014   .     S
Cu872  O889    1.964   .     S
Cu872  O893    1.965   .     S
Cu873  O896    1.961   .     S
Cu873  O892    1.950   .     S
Cu873  O894    1.964   .     S
Cu873  N888    2.014   .     S
Cu873  O890    1.965   .     S
H886   C353    1.084   1_556 S
C897   O946    1.293   .     A
C897   O945    1.291   .     A
C897   C905    1.450   .     S
C898   C918    1.418   .     A
C898   C900    1.473   .     S
C898   C915    1.399   .     A
C899   C905    1.401   .     A
C899   H934    1.083   .     S
C899   C565    1.383   1_565 S
C900   O948    1.294   .     A
C900   O947    1.301   .     A
C901   H935    1.083   .     S
C901   C902    1.402   .     A
C902   C903    1.401   .     A
C902   C911    1.450   .     S
C903   H936    1.083   .     S
C904   H937    1.083   .     S
C904   C905    1.402   .     A
C904   C567    1.383   1_565 S
C906   Cl925   1.756   .     S
C906   N944    1.379   .     A
C906   C963    1.412   .     S
C907   N943    1.359   .     A
C907   H938    1.082   .     S
C908   C918    1.421   .     A
C908   C413    1.431   1_556 S
C908   C415    1.425   1_556 S
C909   H939    1.082   .     S
C909   N943    1.368   .     A
C910   H940    1.082   .     S
C910   N944    1.367   .     A
C910   C965    1.418   .     S
C911   O949    1.293   .     A
C911   O950    1.291   .     A
C912   O952    1.295   .     A
C912   O951    1.294   .     A
C912   C914    1.461   .     S
C913   C924    1.392   .     A
C914   C923    1.397   .     A
C914   C924    1.400   .     A
C915   C916    1.388   .     A
C915   H932    1.084   .     S
C916   C413    1.403   1_556 S
C916   Cl423   1.762   1_556 S
C917   Cl926   1.774   .     S
C918   C922    1.415   .     A
C919   C923    1.396   .     A
C920   C921    1.388   .     A
C920   C409    1.403   1_556 S
C920   C415    1.419   1_556 S
C921   C922    1.385   .     A
C921   H941    1.084   .     S
C922   H933    1.080   .     S
C923   H931    1.078   .     S
C924   H930    1.083   .     S
Cu928  O951    1.950   .     S
Cu928  Cu929   2.681   .     S
Cu928  O947    1.961   .     S
Cu928  N943    2.014   .     S
Cu928  O945    1.964   .     S
Cu928  O949    1.965   .     S
Cu929  O952    1.961   .     S
Cu929  O948    1.950   .     S
Cu929  O950    1.964   .     S
Cu929  N944    2.014   .     S
Cu929  O946    1.965   .     S
H942   C409    1.084   1_556 S
C953   O1002   1.293   .     A
C953   O1001   1.291   .     A
C953   C961    1.450   .     S
C954   C974    1.418   .     A
C954   C956    1.473   .     S
C954   C971    1.399   .     A
C955   C961    1.401   .     A
C955   H990    1.083   .     S
C955   C621    1.383   1_565 S
C956   O1004   1.294   .     A
C956   O1003   1.301   .     A
C957   H991    1.083   .     S
C957   C958    1.402   .     A
C958   C959    1.401   .     A
C958   C967    1.450   .     S
C959   H992    1.083   .     S
C960   H993    1.083   .     S
C960   C961    1.402   .     A
C960   C623    1.383   1_565 S
C962   Cl981   1.756   .     S
C962   N1000   1.379   .     A
C962   C851    1.412   1_655 S
C963   N999    1.359   .     A
C963   H994    1.082   .     S
C964   C974    1.421   .     A
C964   C469    1.431   1_556 S
C964   C471    1.425   1_556 S
C965   H995    1.082   .     S
C965   N999    1.368   .     A
C966   H996    1.082   .     S
C966   N1000   1.367   .     A
C966   C853    1.418   1_655 S
C967   O1005   1.293   .     A
C967   O1006   1.291   .     A
C968   O1008   1.295   .     A
C968   O1007   1.294   .     A
C968   C970    1.461   .     S
C969   C980    1.392   .     A
C970   C979    1.397   .     A
C970   C980    1.400   .     A
C971   C972    1.388   .     A
C971   H988    1.084   .     S
C972   C469    1.403   1_556 S
C972   Cl479   1.762   1_556 S
C973   Cl982   1.774   .     S
C974   C978    1.415   .     A
C975   C979    1.396   .     A
C976   C977    1.388   .     A
C976   C465    1.403   1_556 S
C976   C471    1.419   1_556 S
C977   C978    1.385   .     A
C977   H997    1.084   .     S
C978   H989    1.080   .     S
C979   H987    1.078   .     S
C980   H986    1.083   .     S
Cu984  O1007   1.950   .     S
Cu984  Cu985   2.681   .     S
Cu984  O1003   1.961   .     S
Cu984  N999    2.014   .     S
Cu984  O1001   1.964   .     S
Cu984  O1005   1.965   .     S
Cu985  O1008   1.961   .     S
Cu985  O1004   1.950   .     S
Cu985  O1006   1.964   .     S
Cu985  N1000   2.014   .     S
Cu985  O1002   1.965   .     S
H998   C465    1.084   1_556 S
