data_str_m2_o1_o17_pcu_sym.93
_audit_creation_date              2020-01-03
_audit_creation_method            'Materials Studio'
_symmetry_space_group_name_H-M    'P1'
_symmetry_Int_Tables_number       1
_symmetry_cell_setting            triclinic
loop_
_symmetry_equiv_pos_as_xyz
  x,y,z
_cell_length_a                    32.5256
_cell_length_b                    28.5490
_cell_length_c                    30.1817
_cell_angle_alpha                 89.7731
_cell_angle_beta                  89.4823
_cell_angle_gamma                 91.0462
loop_
_atom_site_label
_atom_site_type_symbol
_atom_site_fract_x
_atom_site_fract_y
_atom_site_fract_z
_atom_site_U_iso_or_equiv
_atom_site_adp_type
_atom_site_occupancy
C1     C     0.08740   0.16607   0.24905   0.00000  Uiso   1.00
C2     C     0.04274   0.16455   0.24709   0.00000  Uiso   1.00
C3     C     0.14106   0.02440   0.22282   0.00000  Uiso   1.00
C4     C     0.19228   0.30893   0.27718   0.00000  Uiso   1.00
C5     C     0.19225   0.02521   0.27721   0.00000  Uiso   1.00
C6     C     0.14108   0.30812   0.22279   0.00000  Uiso   1.00
C7     C     0.16652   0.16674   0.16455   0.00000  Uiso   1.00
C8     C     0.16681   0.16659   0.33545   0.00000  Uiso   1.00
C9     C     0.20088   0.18672   0.40584   0.00000  Uiso   1.00
C10    C     0.13245   0.14661   0.09416   0.00000  Uiso   1.00
C11    C     0.16727   0.16649   0.38363   0.00000  Uiso   1.00
C12    C     0.24593   0.16726   0.25095   0.00000  Uiso   1.00
C13    C     0.16606   0.16684   0.11637   0.00000  Uiso   1.00
C14    C     0.13399   0.14629   0.40682   0.00000  Uiso   1.00
C15    C     0.19935   0.18704   0.09318   0.00000  Uiso   1.00
C16    C     0.13400   0.14583   0.45328   0.00000  Uiso   1.00
C17    C     0.19933   0.18750   0.04672   0.00000  Uiso   1.00
C18    C     0.16708   0.16680   0.47651   0.00000  Uiso   1.00
C19    C     0.16626   0.16653   0.02349   0.00000  Uiso   1.00
C20    C     0.20084   0.18797   0.45283   0.00000  Uiso   1.00
C21    C     0.13249   0.14535   0.04717   0.00000  Uiso   1.00
C22    C     0.10135   0.12461   0.47679   0.00000  Uiso   1.00
C23    C     0.10015   0.12374   0.02305   0.00000  Uiso   1.00
C24    C     0.23198   0.20872   0.02321   0.00000  Uiso   1.00
C25    C     0.23318   0.20959   0.47695   0.00000  Uiso   1.00
C26    C     0.02035   0.13036   0.27178   0.00000  Uiso   1.00
C27    C     0.31298   0.20298   0.22822   0.00000  Uiso   1.00
C28    C     0.31139   0.13368   0.27640   0.00000  Uiso   1.00
C29    C     0.02194   0.19966   0.22361   0.00000  Uiso   1.00
C30    C     0.29060   0.16878   0.25291   0.00000  Uiso   1.00
Cl31   Cl    0.24308   0.20750   0.37283   0.00000  Uiso   1.00
Cl32   Cl    0.09025   0.12583   0.12717   0.00000  Uiso   1.00
Cl33   Cl    0.09164   0.12304   0.37675   0.00000  Uiso   1.00
Cl34   Cl    0.24170   0.21029   0.12325   0.00000  Uiso   1.00
Cu35   Cu    0.16667   0.21355   0.25000   0.00000  Uiso   1.00
Cu36   Cu    0.16667   0.11978   0.25000   0.00000  Uiso   1.00
H37    H     0.07623   0.10787   0.45938   0.00000  Uiso   1.00
H38    H     0.28117   0.25840   0.22887   0.00000  Uiso   1.00
H39    H     0.26683   0.11686   0.31703   0.00000  Uiso   1.00
H40    H     0.06650   0.21647   0.18297   0.00000  Uiso   1.00
H41    H     0.25711   0.22546   0.04062   0.00000  Uiso   1.00
H42    H     0.12053   0.04278   0.20106   0.00000  Uiso   1.00
H43    H     0.21280   0.29055   0.29894   0.00000  Uiso   1.00
H44    H     0.21271   0.04423   0.29905   0.00000  Uiso   1.00
H45    H     0.12062   0.28911   0.20095   0.00000  Uiso   1.00
H46    H     0.04808   0.08802   0.02281   0.00000  Uiso   1.00
H47    H     0.28527   0.24529   0.47719   0.00000  Uiso   1.00
H48    H     0.05217   0.07493   0.27113   0.00000  Uiso   1.00
N49    N     0.16667   0.28402   0.25000   0.00000  Uiso   1.00
N50    N     0.16667   0.04931   0.25000   0.00000  Uiso   1.00
O51    O     0.10655   0.20625   0.25000   0.00000  Uiso   1.00
O52    O     0.26555   0.23226   0.45539   0.00000  Uiso   1.00
O53    O     0.03935   0.09480   0.29409   0.00000  Uiso   1.00
O54    O     0.29399   0.23854   0.20591   0.00000  Uiso   1.00
O55    O     0.29154   0.10199   0.30435   0.00000  Uiso   1.00
O56    O     0.04179   0.23134   0.19565   0.00000  Uiso   1.00
O57    O     0.22679   0.12709   0.25001   0.00000  Uiso   1.00
O58    O     0.22679   0.20625   0.25001   0.00000  Uiso   1.00
O59    O     0.10655   0.12709   0.25000   0.00000  Uiso   1.00
O60    O     0.16666   0.20627   0.18513   0.00000  Uiso   1.00
O61    O     0.16668   0.12707   0.31487   0.00000  Uiso   1.00
O62    O     0.16668   0.20627   0.31487   0.00000  Uiso   1.00
O63    O     0.16666   0.12707   0.18513   0.00000  Uiso   1.00
O64    O     0.06779   0.10106   0.04461   0.00000  Uiso   1.00
C65    C     0.42073   0.16607   0.24905   0.00000  Uiso   1.00
C66    C     0.37607   0.16455   0.24709   0.00000  Uiso   1.00
C67    C     0.47439   0.02440   0.22282   0.00000  Uiso   1.00
C68    C     0.52561   0.30893   0.27718   0.00000  Uiso   1.00
C69    C     0.52558   0.02521   0.27721   0.00000  Uiso   1.00
C70    C     0.47442   0.30812   0.22279   0.00000  Uiso   1.00
C71    C     0.49985   0.16674   0.16455   0.00000  Uiso   1.00
C72    C     0.50015   0.16659   0.33545   0.00000  Uiso   1.00
C73    C     0.53421   0.18672   0.40584   0.00000  Uiso   1.00
C74    C     0.46579   0.14661   0.09416   0.00000  Uiso   1.00
C75    C     0.50061   0.16649   0.38363   0.00000  Uiso   1.00
C76    C     0.57927   0.16726   0.25095   0.00000  Uiso   1.00
C77    C     0.49939   0.16684   0.11637   0.00000  Uiso   1.00
C78    C     0.46732   0.14629   0.40682   0.00000  Uiso   1.00
C79    C     0.53268   0.18704   0.09318   0.00000  Uiso   1.00
C80    C     0.46733   0.14583   0.45328   0.00000  Uiso   1.00
C81    C     0.53267   0.18750   0.04672   0.00000  Uiso   1.00
C82    C     0.50041   0.16680   0.47651   0.00000  Uiso   1.00
C83    C     0.49959   0.16653   0.02349   0.00000  Uiso   1.00
C84    C     0.53418   0.18797   0.45283   0.00000  Uiso   1.00
C85    C     0.46583   0.14535   0.04717   0.00000  Uiso   1.00
C86    C     0.43469   0.12461   0.47679   0.00000  Uiso   1.00
C87    C     0.43349   0.12374   0.02305   0.00000  Uiso   1.00
C88    C     0.56532   0.20872   0.02321   0.00000  Uiso   1.00
C89    C     0.56652   0.20959   0.47695   0.00000  Uiso   1.00
C90    C     0.35368   0.13036   0.27178   0.00000  Uiso   1.00
C91    C     0.64632   0.20298   0.22822   0.00000  Uiso   1.00
C92    C     0.64472   0.13368   0.27640   0.00000  Uiso   1.00
C93    C     0.35528   0.19966   0.22361   0.00000  Uiso   1.00
C94    C     0.62393   0.16878   0.25291   0.00000  Uiso   1.00
Cl95   Cl    0.57642   0.20750   0.37283   0.00000  Uiso   1.00
Cl96   Cl    0.42358   0.12583   0.12717   0.00000  Uiso   1.00
Cl97   Cl    0.42497   0.12304   0.37675   0.00000  Uiso   1.00
Cl98   Cl    0.57503   0.21029   0.12325   0.00000  Uiso   1.00
Cu99   Cu    0.50000   0.21355   0.25000   0.00000  Uiso   1.00
Cu100  Cu    0.50000   0.11978   0.25000   0.00000  Uiso   1.00
H101   H     0.40957   0.10787   0.45938   0.00000  Uiso   1.00
H102   H     0.61450   0.25840   0.22887   0.00000  Uiso   1.00
H103   H     0.60017   0.11686   0.31703   0.00000  Uiso   1.00
H104   H     0.39983   0.21647   0.18297   0.00000  Uiso   1.00
H105   H     0.59044   0.22546   0.04062   0.00000  Uiso   1.00
H106   H     0.45386   0.04278   0.20106   0.00000  Uiso   1.00
H107   H     0.54614   0.29055   0.29894   0.00000  Uiso   1.00
H108   H     0.54605   0.04423   0.29905   0.00000  Uiso   1.00
H109   H     0.45395   0.28911   0.20095   0.00000  Uiso   1.00
H110   H     0.38141   0.08802   0.02281   0.00000  Uiso   1.00
H111   H     0.61860   0.24529   0.47719   0.00000  Uiso   1.00
H112   H     0.38550   0.07493   0.27113   0.00000  Uiso   1.00
N113   N     0.50000   0.28402   0.25000   0.00000  Uiso   1.00
N114   N     0.50000   0.04931   0.25000   0.00000  Uiso   1.00
O115   O     0.43988   0.20625   0.25000   0.00000  Uiso   1.00
O116   O     0.59889   0.23226   0.45539   0.00000  Uiso   1.00
O117   O     0.37268   0.09480   0.29409   0.00000  Uiso   1.00
O118   O     0.62732   0.23854   0.20591   0.00000  Uiso   1.00
O119   O     0.62488   0.10199   0.30435   0.00000  Uiso   1.00
O120   O     0.37512   0.23134   0.19565   0.00000  Uiso   1.00
O121   O     0.56012   0.12709   0.25001   0.00000  Uiso   1.00
O122   O     0.56012   0.20625   0.25001   0.00000  Uiso   1.00
O123   O     0.43988   0.12709   0.25000   0.00000  Uiso   1.00
O124   O     0.49999   0.20627   0.18513   0.00000  Uiso   1.00
O125   O     0.50001   0.12707   0.31487   0.00000  Uiso   1.00
O126   O     0.50001   0.20627   0.31487   0.00000  Uiso   1.00
O127   O     0.49999   0.12707   0.18513   0.00000  Uiso   1.00
O128   O     0.40112   0.10106   0.04461   0.00000  Uiso   1.00
C129   C     0.75407   0.16607   0.24905   0.00000  Uiso   1.00
C130   C     0.70940   0.16455   0.24709   0.00000  Uiso   1.00
C131   C     0.80772   0.02440   0.22282   0.00000  Uiso   1.00
C132   C     0.85894   0.30893   0.27718   0.00000  Uiso   1.00
C133   C     0.85892   0.02521   0.27721   0.00000  Uiso   1.00
C134   C     0.80775   0.30812   0.22279   0.00000  Uiso   1.00
C135   C     0.83319   0.16674   0.16455   0.00000  Uiso   1.00
C136   C     0.83348   0.16659   0.33545   0.00000  Uiso   1.00
C137   C     0.86755   0.18672   0.40584   0.00000  Uiso   1.00
C138   C     0.79912   0.14661   0.09416   0.00000  Uiso   1.00
C139   C     0.83394   0.16649   0.38363   0.00000  Uiso   1.00
C140   C     0.91260   0.16726   0.25095   0.00000  Uiso   1.00
C141   C     0.83273   0.16684   0.11637   0.00000  Uiso   1.00
C142   C     0.80065   0.14629   0.40682   0.00000  Uiso   1.00
C143   C     0.86602   0.18704   0.09318   0.00000  Uiso   1.00
C144   C     0.80067   0.14583   0.45328   0.00000  Uiso   1.00
C145   C     0.86600   0.18750   0.04672   0.00000  Uiso   1.00
C146   C     0.83374   0.16680   0.47651   0.00000  Uiso   1.00
C147   C     0.83292   0.16653   0.02349   0.00000  Uiso   1.00
C148   C     0.86751   0.18797   0.45283   0.00000  Uiso   1.00
C149   C     0.79916   0.14535   0.04717   0.00000  Uiso   1.00
C150   C     0.76802   0.12461   0.47679   0.00000  Uiso   1.00
C151   C     0.76682   0.12374   0.02305   0.00000  Uiso   1.00
C152   C     0.89865   0.20872   0.02321   0.00000  Uiso   1.00
C153   C     0.89985   0.20959   0.47695   0.00000  Uiso   1.00
C154   C     0.68702   0.13036   0.27178   0.00000  Uiso   1.00
C155   C     0.97965   0.20298   0.22822   0.00000  Uiso   1.00
C156   C     0.97806   0.13368   0.27640   0.00000  Uiso   1.00
C157   C     0.68861   0.19966   0.22361   0.00000  Uiso   1.00
C158   C     0.95726   0.16878   0.25291   0.00000  Uiso   1.00
Cl159  Cl    0.90975   0.20750   0.37283   0.00000  Uiso   1.00
Cl160  Cl    0.75691   0.12583   0.12717   0.00000  Uiso   1.00
Cl161  Cl    0.75830   0.12304   0.37675   0.00000  Uiso   1.00
Cl162  Cl    0.90836   0.21029   0.12325   0.00000  Uiso   1.00
Cu163  Cu    0.83333   0.21355   0.25000   0.00000  Uiso   1.00
Cu164  Cu    0.83333   0.11978   0.25000   0.00000  Uiso   1.00
H165   H     0.74290   0.10787   0.45938   0.00000  Uiso   1.00
H166   H     0.94783   0.25840   0.22887   0.00000  Uiso   1.00
H167   H     0.93350   0.11686   0.31703   0.00000  Uiso   1.00
H168   H     0.73317   0.21647   0.18297   0.00000  Uiso   1.00
H169   H     0.92377   0.22546   0.04062   0.00000  Uiso   1.00
H170   H     0.78720   0.04278   0.20106   0.00000  Uiso   1.00
H171   H     0.87947   0.29055   0.29894   0.00000  Uiso   1.00
H172   H     0.87938   0.04423   0.29905   0.00000  Uiso   1.00
H173   H     0.78729   0.28911   0.20095   0.00000  Uiso   1.00
H174   H     0.71474   0.08802   0.02281   0.00000  Uiso   1.00
H175   H     0.95193   0.24529   0.47719   0.00000  Uiso   1.00
H176   H     0.71883   0.07493   0.27113   0.00000  Uiso   1.00
N177   N     0.83333   0.28402   0.25000   0.00000  Uiso   1.00
N178   N     0.83333   0.04931   0.25000   0.00000  Uiso   1.00
O179   O     0.77321   0.20625   0.25000   0.00000  Uiso   1.00
O180   O     0.93222   0.23226   0.45539   0.00000  Uiso   1.00
O181   O     0.70601   0.09480   0.29409   0.00000  Uiso   1.00
O182   O     0.96065   0.23854   0.20591   0.00000  Uiso   1.00
O183   O     0.95821   0.10199   0.30435   0.00000  Uiso   1.00
O184   O     0.70846   0.23134   0.19565   0.00000  Uiso   1.00
O185   O     0.89345   0.12709   0.25001   0.00000  Uiso   1.00
O186   O     0.89345   0.20625   0.25001   0.00000  Uiso   1.00
O187   O     0.77321   0.12709   0.25000   0.00000  Uiso   1.00
O188   O     0.83332   0.20627   0.18513   0.00000  Uiso   1.00
O189   O     0.83334   0.12707   0.31487   0.00000  Uiso   1.00
O190   O     0.83334   0.20627   0.31487   0.00000  Uiso   1.00
O191   O     0.83332   0.12707   0.18513   0.00000  Uiso   1.00
O192   O     0.73445   0.10106   0.04461   0.00000  Uiso   1.00
C193   C     0.08740   0.49941   0.24905   0.00000  Uiso   1.00
C194   C     0.04274   0.49788   0.24709   0.00000  Uiso   1.00
C195   C     0.14106   0.35774   0.22282   0.00000  Uiso   1.00
C196   C     0.19228   0.64226   0.27718   0.00000  Uiso   1.00
C197   C     0.19225   0.35854   0.27721   0.00000  Uiso   1.00
C198   C     0.14108   0.64146   0.22279   0.00000  Uiso   1.00
C199   C     0.16652   0.50007   0.16455   0.00000  Uiso   1.00
C200   C     0.16681   0.49993   0.33545   0.00000  Uiso   1.00
C201   C     0.20088   0.52006   0.40584   0.00000  Uiso   1.00
C202   C     0.13245   0.47994   0.09416   0.00000  Uiso   1.00
C203   C     0.16727   0.49982   0.38363   0.00000  Uiso   1.00
C204   C     0.24593   0.50059   0.25095   0.00000  Uiso   1.00
C205   C     0.16606   0.50018   0.11637   0.00000  Uiso   1.00
C206   C     0.13399   0.47963   0.40682   0.00000  Uiso   1.00
C207   C     0.19935   0.52037   0.09318   0.00000  Uiso   1.00
C208   C     0.13400   0.47916   0.45328   0.00000  Uiso   1.00
C209   C     0.19933   0.52083   0.04672   0.00000  Uiso   1.00
C210   C     0.16708   0.50013   0.47651   0.00000  Uiso   1.00
C211   C     0.16626   0.49987   0.02349   0.00000  Uiso   1.00
C212   C     0.20084   0.52131   0.45283   0.00000  Uiso   1.00
C213   C     0.13249   0.47869   0.04717   0.00000  Uiso   1.00
C214   C     0.10135   0.45794   0.47679   0.00000  Uiso   1.00
C215   C     0.10015   0.45707   0.02305   0.00000  Uiso   1.00
C216   C     0.23198   0.54205   0.02321   0.00000  Uiso   1.00
C217   C     0.23318   0.54292   0.47695   0.00000  Uiso   1.00
C218   C     0.02035   0.46369   0.27178   0.00000  Uiso   1.00
C219   C     0.31298   0.53631   0.22822   0.00000  Uiso   1.00
C220   C     0.31139   0.46701   0.27640   0.00000  Uiso   1.00
C221   C     0.02194   0.53299   0.22361   0.00000  Uiso   1.00
C222   C     0.29060   0.50212   0.25291   0.00000  Uiso   1.00
Cl223  Cl    0.24308   0.54084   0.37283   0.00000  Uiso   1.00
Cl224  Cl    0.09025   0.45917   0.12717   0.00000  Uiso   1.00
Cl225  Cl    0.09164   0.45637   0.37675   0.00000  Uiso   1.00
Cl226  Cl    0.24170   0.54362   0.12325   0.00000  Uiso   1.00
Cu227  Cu    0.16667   0.54689   0.25000   0.00000  Uiso   1.00
Cu228  Cu    0.16667   0.45311   0.25000   0.00000  Uiso   1.00
H229   H     0.07623   0.44120   0.45938   0.00000  Uiso   1.00
H230   H     0.28117   0.59173   0.22887   0.00000  Uiso   1.00
H231   H     0.26683   0.45019   0.31703   0.00000  Uiso   1.00
H232   H     0.06650   0.54981   0.18297   0.00000  Uiso   1.00
H233   H     0.25711   0.55879   0.04062   0.00000  Uiso   1.00
H234   H     0.12053   0.37612   0.20106   0.00000  Uiso   1.00
H235   H     0.21280   0.62388   0.29894   0.00000  Uiso   1.00
H236   H     0.21271   0.37756   0.29905   0.00000  Uiso   1.00
H237   H     0.12062   0.62244   0.20095   0.00000  Uiso   1.00
H238   H     0.04808   0.42135   0.02281   0.00000  Uiso   1.00
H239   H     0.28527   0.57863   0.47719   0.00000  Uiso   1.00
H240   H     0.05217   0.40827   0.27113   0.00000  Uiso   1.00
N241   N     0.16667   0.61736   0.25000   0.00000  Uiso   1.00
N242   N     0.16667   0.38264   0.25000   0.00000  Uiso   1.00
O243   O     0.10655   0.53958   0.25000   0.00000  Uiso   1.00
O244   O     0.26555   0.56560   0.45539   0.00000  Uiso   1.00
O245   O     0.03935   0.42813   0.29409   0.00000  Uiso   1.00
O246   O     0.29399   0.57187   0.20591   0.00000  Uiso   1.00
O247   O     0.29154   0.43532   0.30435   0.00000  Uiso   1.00
O248   O     0.04179   0.56468   0.19565   0.00000  Uiso   1.00
O249   O     0.22679   0.46042   0.25001   0.00000  Uiso   1.00
O250   O     0.22679   0.53958   0.25001   0.00000  Uiso   1.00
O251   O     0.10655   0.46042   0.25000   0.00000  Uiso   1.00
O252   O     0.16666   0.53960   0.18513   0.00000  Uiso   1.00
O253   O     0.16668   0.46040   0.31487   0.00000  Uiso   1.00
O254   O     0.16668   0.53960   0.31487   0.00000  Uiso   1.00
O255   O     0.16666   0.46040   0.18513   0.00000  Uiso   1.00
O256   O     0.06779   0.43439   0.04461   0.00000  Uiso   1.00
C257   C     0.42073   0.49941   0.24905   0.00000  Uiso   1.00
C258   C     0.37607   0.49788   0.24709   0.00000  Uiso   1.00
C259   C     0.47439   0.35774   0.22282   0.00000  Uiso   1.00
C260   C     0.52561   0.64226   0.27718   0.00000  Uiso   1.00
C261   C     0.52558   0.35854   0.27721   0.00000  Uiso   1.00
C262   C     0.47442   0.64146   0.22279   0.00000  Uiso   1.00
C263   C     0.49985   0.50007   0.16455   0.00000  Uiso   1.00
C264   C     0.50015   0.49993   0.33545   0.00000  Uiso   1.00
C265   C     0.53421   0.52006   0.40584   0.00000  Uiso   1.00
C266   C     0.46579   0.47994   0.09416   0.00000  Uiso   1.00
C267   C     0.50061   0.49982   0.38363   0.00000  Uiso   1.00
C268   C     0.57927   0.50059   0.25095   0.00000  Uiso   1.00
C269   C     0.49939   0.50018   0.11637   0.00000  Uiso   1.00
C270   C     0.46732   0.47963   0.40682   0.00000  Uiso   1.00
C271   C     0.53268   0.52037   0.09318   0.00000  Uiso   1.00
C272   C     0.46733   0.47916   0.45328   0.00000  Uiso   1.00
C273   C     0.53267   0.52083   0.04672   0.00000  Uiso   1.00
C274   C     0.50041   0.50013   0.47651   0.00000  Uiso   1.00
C275   C     0.49959   0.49987   0.02349   0.00000  Uiso   1.00
C276   C     0.53418   0.52131   0.45283   0.00000  Uiso   1.00
C277   C     0.46583   0.47869   0.04717   0.00000  Uiso   1.00
C278   C     0.43469   0.45794   0.47679   0.00000  Uiso   1.00
C279   C     0.43349   0.45707   0.02305   0.00000  Uiso   1.00
C280   C     0.56532   0.54205   0.02321   0.00000  Uiso   1.00
C281   C     0.56652   0.54292   0.47695   0.00000  Uiso   1.00
C282   C     0.35368   0.46369   0.27178   0.00000  Uiso   1.00
C283   C     0.64632   0.53631   0.22822   0.00000  Uiso   1.00
C284   C     0.64472   0.46701   0.27640   0.00000  Uiso   1.00
C285   C     0.35528   0.53299   0.22361   0.00000  Uiso   1.00
C286   C     0.62393   0.50212   0.25291   0.00000  Uiso   1.00
Cl287  Cl    0.57642   0.54084   0.37283   0.00000  Uiso   1.00
Cl288  Cl    0.42358   0.45917   0.12717   0.00000  Uiso   1.00
Cl289  Cl    0.42497   0.45637   0.37675   0.00000  Uiso   1.00
Cl290  Cl    0.57503   0.54362   0.12325   0.00000  Uiso   1.00
Cu291  Cu    0.50000   0.54689   0.25000   0.00000  Uiso   1.00
Cu292  Cu    0.50000   0.45311   0.25000   0.00000  Uiso   1.00
H293   H     0.40957   0.44120   0.45938   0.00000  Uiso   1.00
H294   H     0.61450   0.59173   0.22887   0.00000  Uiso   1.00
H295   H     0.60017   0.45019   0.31703   0.00000  Uiso   1.00
H296   H     0.39983   0.54981   0.18297   0.00000  Uiso   1.00
H297   H     0.59044   0.55879   0.04062   0.00000  Uiso   1.00
H298   H     0.45386   0.37612   0.20106   0.00000  Uiso   1.00
H299   H     0.54614   0.62388   0.29894   0.00000  Uiso   1.00
H300   H     0.54605   0.37756   0.29905   0.00000  Uiso   1.00
H301   H     0.45395   0.62244   0.20095   0.00000  Uiso   1.00
H302   H     0.38141   0.42135   0.02281   0.00000  Uiso   1.00
H303   H     0.61860   0.57863   0.47719   0.00000  Uiso   1.00
H304   H     0.38550   0.40827   0.27113   0.00000  Uiso   1.00
N305   N     0.50000   0.61736   0.25000   0.00000  Uiso   1.00
N306   N     0.50000   0.38264   0.25000   0.00000  Uiso   1.00
O307   O     0.43988   0.53958   0.25000   0.00000  Uiso   1.00
O308   O     0.59889   0.56560   0.45539   0.00000  Uiso   1.00
O309   O     0.37268   0.42813   0.29409   0.00000  Uiso   1.00
O310   O     0.62732   0.57187   0.20591   0.00000  Uiso   1.00
O311   O     0.62488   0.43532   0.30435   0.00000  Uiso   1.00
O312   O     0.37512   0.56468   0.19565   0.00000  Uiso   1.00
O313   O     0.56012   0.46042   0.25001   0.00000  Uiso   1.00
O314   O     0.56012   0.53958   0.25001   0.00000  Uiso   1.00
O315   O     0.43988   0.46042   0.25000   0.00000  Uiso   1.00
O316   O     0.49999   0.53960   0.18513   0.00000  Uiso   1.00
O317   O     0.50001   0.46040   0.31487   0.00000  Uiso   1.00
O318   O     0.50001   0.53960   0.31487   0.00000  Uiso   1.00
O319   O     0.49999   0.46040   0.18513   0.00000  Uiso   1.00
O320   O     0.40112   0.43439   0.04461   0.00000  Uiso   1.00
C321   C     0.75407   0.49941   0.24905   0.00000  Uiso   1.00
C322   C     0.70940   0.49788   0.24709   0.00000  Uiso   1.00
C323   C     0.80772   0.35774   0.22282   0.00000  Uiso   1.00
C324   C     0.85894   0.64226   0.27718   0.00000  Uiso   1.00
C325   C     0.85892   0.35854   0.27721   0.00000  Uiso   1.00
C326   C     0.80775   0.64146   0.22279   0.00000  Uiso   1.00
C327   C     0.83319   0.50007   0.16455   0.00000  Uiso   1.00
C328   C     0.83348   0.49993   0.33545   0.00000  Uiso   1.00
C329   C     0.86755   0.52006   0.40584   0.00000  Uiso   1.00
C330   C     0.79912   0.47994   0.09416   0.00000  Uiso   1.00
C331   C     0.83394   0.49982   0.38363   0.00000  Uiso   1.00
C332   C     0.91260   0.50059   0.25095   0.00000  Uiso   1.00
C333   C     0.83273   0.50018   0.11637   0.00000  Uiso   1.00
C334   C     0.80065   0.47963   0.40682   0.00000  Uiso   1.00
C335   C     0.86602   0.52037   0.09318   0.00000  Uiso   1.00
C336   C     0.80067   0.47916   0.45328   0.00000  Uiso   1.00
C337   C     0.86600   0.52083   0.04672   0.00000  Uiso   1.00
C338   C     0.83374   0.50013   0.47651   0.00000  Uiso   1.00
C339   C     0.83292   0.49987   0.02349   0.00000  Uiso   1.00
C340   C     0.86751   0.52131   0.45283   0.00000  Uiso   1.00
C341   C     0.79916   0.47869   0.04717   0.00000  Uiso   1.00
C342   C     0.76802   0.45794   0.47679   0.00000  Uiso   1.00
C343   C     0.76682   0.45707   0.02305   0.00000  Uiso   1.00
C344   C     0.89865   0.54205   0.02321   0.00000  Uiso   1.00
C345   C     0.89985   0.54292   0.47695   0.00000  Uiso   1.00
C346   C     0.68702   0.46369   0.27178   0.00000  Uiso   1.00
C347   C     0.97965   0.53631   0.22822   0.00000  Uiso   1.00
C348   C     0.97806   0.46701   0.27640   0.00000  Uiso   1.00
C349   C     0.68861   0.53299   0.22361   0.00000  Uiso   1.00
C350   C     0.95726   0.50212   0.25291   0.00000  Uiso   1.00
Cl351  Cl    0.90975   0.54084   0.37283   0.00000  Uiso   1.00
Cl352  Cl    0.75691   0.45917   0.12717   0.00000  Uiso   1.00
Cl353  Cl    0.75830   0.45637   0.37675   0.00000  Uiso   1.00
Cl354  Cl    0.90836   0.54362   0.12325   0.00000  Uiso   1.00
Cu355  Cu    0.83333   0.54689   0.25000   0.00000  Uiso   1.00
Cu356  Cu    0.83333   0.45311   0.25000   0.00000  Uiso   1.00
H357   H     0.74290   0.44120   0.45938   0.00000  Uiso   1.00
H358   H     0.94783   0.59173   0.22887   0.00000  Uiso   1.00
H359   H     0.93350   0.45019   0.31703   0.00000  Uiso   1.00
H360   H     0.73317   0.54981   0.18297   0.00000  Uiso   1.00
H361   H     0.92377   0.55879   0.04062   0.00000  Uiso   1.00
H362   H     0.78720   0.37612   0.20106   0.00000  Uiso   1.00
H363   H     0.87947   0.62388   0.29894   0.00000  Uiso   1.00
H364   H     0.87938   0.37756   0.29905   0.00000  Uiso   1.00
H365   H     0.78729   0.62244   0.20095   0.00000  Uiso   1.00
H366   H     0.71474   0.42135   0.02281   0.00000  Uiso   1.00
H367   H     0.95193   0.57863   0.47719   0.00000  Uiso   1.00
H368   H     0.71883   0.40827   0.27113   0.00000  Uiso   1.00
N369   N     0.83333   0.61736   0.25000   0.00000  Uiso   1.00
N370   N     0.83333   0.38264   0.25000   0.00000  Uiso   1.00
O371   O     0.77321   0.53958   0.25000   0.00000  Uiso   1.00
O372   O     0.93222   0.56560   0.45539   0.00000  Uiso   1.00
O373   O     0.70601   0.42813   0.29409   0.00000  Uiso   1.00
O374   O     0.96065   0.57187   0.20591   0.00000  Uiso   1.00
O375   O     0.95821   0.43532   0.30435   0.00000  Uiso   1.00
O376   O     0.70846   0.56468   0.19565   0.00000  Uiso   1.00
O377   O     0.89345   0.46042   0.25001   0.00000  Uiso   1.00
O378   O     0.89345   0.53958   0.25001   0.00000  Uiso   1.00
O379   O     0.77321   0.46042   0.25000   0.00000  Uiso   1.00
O380   O     0.83332   0.53960   0.18513   0.00000  Uiso   1.00
O381   O     0.83334   0.46040   0.31487   0.00000  Uiso   1.00
O382   O     0.83334   0.53960   0.31487   0.00000  Uiso   1.00
O383   O     0.83332   0.46040   0.18513   0.00000  Uiso   1.00
O384   O     0.73445   0.43439   0.04461   0.00000  Uiso   1.00
C385   C     0.08740   0.83274   0.24905   0.00000  Uiso   1.00
C386   C     0.04274   0.83122   0.24709   0.00000  Uiso   1.00
C387   C     0.14106   0.69107   0.22282   0.00000  Uiso   1.00
C388   C     0.19228   0.97560   0.27718   0.00000  Uiso   1.00
C389   C     0.19225   0.69188   0.27721   0.00000  Uiso   1.00
C390   C     0.14108   0.97479   0.22279   0.00000  Uiso   1.00
C391   C     0.16652   0.83341   0.16455   0.00000  Uiso   1.00
C392   C     0.16681   0.83326   0.33545   0.00000  Uiso   1.00
C393   C     0.20088   0.85339   0.40584   0.00000  Uiso   1.00
C394   C     0.13245   0.81327   0.09416   0.00000  Uiso   1.00
C395   C     0.16727   0.83316   0.38363   0.00000  Uiso   1.00
C396   C     0.24593   0.83393   0.25095   0.00000  Uiso   1.00
C397   C     0.16606   0.83351   0.11637   0.00000  Uiso   1.00
C398   C     0.13399   0.81296   0.40682   0.00000  Uiso   1.00
C399   C     0.19935   0.85370   0.09318   0.00000  Uiso   1.00
C400   C     0.13400   0.81250   0.45328   0.00000  Uiso   1.00
C401   C     0.19933   0.85417   0.04672   0.00000  Uiso   1.00
C402   C     0.16708   0.83346   0.47651   0.00000  Uiso   1.00
C403   C     0.16626   0.83320   0.02349   0.00000  Uiso   1.00
C404   C     0.20084   0.85464   0.45283   0.00000  Uiso   1.00
C405   C     0.13249   0.81202   0.04717   0.00000  Uiso   1.00
C406   C     0.10135   0.79128   0.47679   0.00000  Uiso   1.00
C407   C     0.10015   0.79040   0.02305   0.00000  Uiso   1.00
C408   C     0.23198   0.87538   0.02321   0.00000  Uiso   1.00
C409   C     0.23318   0.87626   0.47695   0.00000  Uiso   1.00
C410   C     0.02035   0.79702   0.27178   0.00000  Uiso   1.00
C411   C     0.31298   0.86964   0.22822   0.00000  Uiso   1.00
C412   C     0.31139   0.80034   0.27640   0.00000  Uiso   1.00
C413   C     0.02194   0.86632   0.22361   0.00000  Uiso   1.00
C414   C     0.29060   0.83545   0.25291   0.00000  Uiso   1.00
Cl415  Cl    0.24308   0.87417   0.37283   0.00000  Uiso   1.00
Cl416  Cl    0.09025   0.79250   0.12717   0.00000  Uiso   1.00
Cl417  Cl    0.09164   0.78971   0.37675   0.00000  Uiso   1.00
Cl418  Cl    0.24170   0.87696   0.12325   0.00000  Uiso   1.00
Cu419  Cu    0.16667   0.88022   0.25000   0.00000  Uiso   1.00
Cu420  Cu    0.16667   0.78645   0.25000   0.00000  Uiso   1.00
H421   H     0.07623   0.77453   0.45938   0.00000  Uiso   1.00
H422   H     0.28117   0.92507   0.22887   0.00000  Uiso   1.00
H423   H     0.26683   0.78353   0.31703   0.00000  Uiso   1.00
H424   H     0.06650   0.88314   0.18297   0.00000  Uiso   1.00
H425   H     0.25711   0.89212   0.04062   0.00000  Uiso   1.00
H426   H     0.12053   0.70945   0.20106   0.00000  Uiso   1.00
H427   H     0.21280   0.95722   0.29894   0.00000  Uiso   1.00
H428   H     0.21271   0.71089   0.29905   0.00000  Uiso   1.00
H429   H     0.12062   0.95577   0.20095   0.00000  Uiso   1.00
H430   H     0.04808   0.75469   0.02281   0.00000  Uiso   1.00
H431   H     0.28527   0.91196   0.47719   0.00000  Uiso   1.00
H432   H     0.05217   0.74160   0.27113   0.00000  Uiso   1.00
N433   N     0.16667   0.95069   0.25000   0.00000  Uiso   1.00
N434   N     0.16667   0.71598   0.25000   0.00000  Uiso   1.00
O435   O     0.10655   0.87291   0.25000   0.00000  Uiso   1.00
O436   O     0.26555   0.89893   0.45539   0.00000  Uiso   1.00
O437   O     0.03935   0.76146   0.29409   0.00000  Uiso   1.00
O438   O     0.29399   0.90520   0.20591   0.00000  Uiso   1.00
O439   O     0.29154   0.76866   0.30435   0.00000  Uiso   1.00
O440   O     0.04179   0.89801   0.19565   0.00000  Uiso   1.00
O441   O     0.22679   0.79375   0.25001   0.00000  Uiso   1.00
O442   O     0.22679   0.87291   0.25001   0.00000  Uiso   1.00
O443   O     0.10655   0.79375   0.25000   0.00000  Uiso   1.00
O444   O     0.16666   0.87293   0.18513   0.00000  Uiso   1.00
O445   O     0.16668   0.79373   0.31487   0.00000  Uiso   1.00
O446   O     0.16668   0.87293   0.31487   0.00000  Uiso   1.00
O447   O     0.16666   0.79373   0.18513   0.00000  Uiso   1.00
O448   O     0.06779   0.76772   0.04461   0.00000  Uiso   1.00
C449   C     0.42073   0.83274   0.24905   0.00000  Uiso   1.00
C450   C     0.37607   0.83122   0.24709   0.00000  Uiso   1.00
C451   C     0.47439   0.69107   0.22282   0.00000  Uiso   1.00
C452   C     0.52561   0.97560   0.27718   0.00000  Uiso   1.00
C453   C     0.52558   0.69188   0.27721   0.00000  Uiso   1.00
C454   C     0.47442   0.97479   0.22279   0.00000  Uiso   1.00
C455   C     0.49985   0.83341   0.16455   0.00000  Uiso   1.00
C456   C     0.50015   0.83326   0.33545   0.00000  Uiso   1.00
C457   C     0.53421   0.85339   0.40584   0.00000  Uiso   1.00
C458   C     0.46579   0.81327   0.09416   0.00000  Uiso   1.00
C459   C     0.50061   0.83316   0.38363   0.00000  Uiso   1.00
C460   C     0.57927   0.83393   0.25095   0.00000  Uiso   1.00
C461   C     0.49939   0.83351   0.11637   0.00000  Uiso   1.00
C462   C     0.46732   0.81296   0.40682   0.00000  Uiso   1.00
C463   C     0.53268   0.85370   0.09318   0.00000  Uiso   1.00
C464   C     0.46733   0.81250   0.45328   0.00000  Uiso   1.00
C465   C     0.53267   0.85417   0.04672   0.00000  Uiso   1.00
C466   C     0.50041   0.83346   0.47651   0.00000  Uiso   1.00
C467   C     0.49959   0.83320   0.02349   0.00000  Uiso   1.00
C468   C     0.53418   0.85464   0.45283   0.00000  Uiso   1.00
C469   C     0.46583   0.81202   0.04717   0.00000  Uiso   1.00
C470   C     0.43469   0.79128   0.47679   0.00000  Uiso   1.00
C471   C     0.43349   0.79040   0.02305   0.00000  Uiso   1.00
C472   C     0.56532   0.87538   0.02321   0.00000  Uiso   1.00
C473   C     0.56652   0.87626   0.47695   0.00000  Uiso   1.00
C474   C     0.35368   0.79702   0.27178   0.00000  Uiso   1.00
C475   C     0.64632   0.86964   0.22822   0.00000  Uiso   1.00
C476   C     0.64472   0.80034   0.27640   0.00000  Uiso   1.00
C477   C     0.35528   0.86632   0.22361   0.00000  Uiso   1.00
C478   C     0.62393   0.83545   0.25291   0.00000  Uiso   1.00
Cl479  Cl    0.57642   0.87417   0.37283   0.00000  Uiso   1.00
Cl480  Cl    0.42358   0.79250   0.12717   0.00000  Uiso   1.00
Cl481  Cl    0.42497   0.78971   0.37675   0.00000  Uiso   1.00
Cl482  Cl    0.57503   0.87696   0.12325   0.00000  Uiso   1.00
Cu483  Cu    0.50000   0.88022   0.25000   0.00000  Uiso   1.00
Cu484  Cu    0.50000   0.78645   0.25000   0.00000  Uiso   1.00
H485   H     0.40957   0.77453   0.45938   0.00000  Uiso   1.00
H486   H     0.61450   0.92507   0.22887   0.00000  Uiso   1.00
H487   H     0.60017   0.78353   0.31703   0.00000  Uiso   1.00
H488   H     0.39983   0.88314   0.18297   0.00000  Uiso   1.00
H489   H     0.59044   0.89212   0.04062   0.00000  Uiso   1.00
H490   H     0.45386   0.70945   0.20106   0.00000  Uiso   1.00
H491   H     0.54614   0.95722   0.29894   0.00000  Uiso   1.00
H492   H     0.54605   0.71089   0.29905   0.00000  Uiso   1.00
H493   H     0.45395   0.95577   0.20095   0.00000  Uiso   1.00
H494   H     0.38141   0.75469   0.02281   0.00000  Uiso   1.00
H495   H     0.61860   0.91196   0.47719   0.00000  Uiso   1.00
H496   H     0.38550   0.74160   0.27113   0.00000  Uiso   1.00
N497   N     0.50000   0.95069   0.25000   0.00000  Uiso   1.00
N498   N     0.50000   0.71598   0.25000   0.00000  Uiso   1.00
O499   O     0.43988   0.87291   0.25000   0.00000  Uiso   1.00
O500   O     0.59889   0.89893   0.45539   0.00000  Uiso   1.00
O501   O     0.37268   0.76146   0.29409   0.00000  Uiso   1.00
O502   O     0.62732   0.90520   0.20591   0.00000  Uiso   1.00
O503   O     0.62488   0.76866   0.30435   0.00000  Uiso   1.00
O504   O     0.37512   0.89801   0.19565   0.00000  Uiso   1.00
O505   O     0.56012   0.79375   0.25001   0.00000  Uiso   1.00
O506   O     0.56012   0.87291   0.25001   0.00000  Uiso   1.00
O507   O     0.43988   0.79375   0.25000   0.00000  Uiso   1.00
O508   O     0.49999   0.87293   0.18513   0.00000  Uiso   1.00
O509   O     0.50001   0.79373   0.31487   0.00000  Uiso   1.00
O510   O     0.50001   0.87293   0.31487   0.00000  Uiso   1.00
O511   O     0.49999   0.79373   0.18513   0.00000  Uiso   1.00
O512   O     0.40112   0.76772   0.04461   0.00000  Uiso   1.00
C513   C     0.75407   0.83274   0.24905   0.00000  Uiso   1.00
C514   C     0.70940   0.83122   0.24709   0.00000  Uiso   1.00
C515   C     0.80772   0.69107   0.22282   0.00000  Uiso   1.00
C516   C     0.85894   0.97560   0.27718   0.00000  Uiso   1.00
C517   C     0.85892   0.69188   0.27721   0.00000  Uiso   1.00
C518   C     0.80775   0.97479   0.22279   0.00000  Uiso   1.00
C519   C     0.83319   0.83341   0.16455   0.00000  Uiso   1.00
C520   C     0.83348   0.83326   0.33545   0.00000  Uiso   1.00
C521   C     0.86755   0.85339   0.40584   0.00000  Uiso   1.00
C522   C     0.79912   0.81327   0.09416   0.00000  Uiso   1.00
C523   C     0.83394   0.83316   0.38363   0.00000  Uiso   1.00
C524   C     0.91260   0.83393   0.25095   0.00000  Uiso   1.00
C525   C     0.83273   0.83351   0.11637   0.00000  Uiso   1.00
C526   C     0.80065   0.81296   0.40682   0.00000  Uiso   1.00
C527   C     0.86602   0.85370   0.09318   0.00000  Uiso   1.00
C528   C     0.80067   0.81250   0.45328   0.00000  Uiso   1.00
C529   C     0.86600   0.85417   0.04672   0.00000  Uiso   1.00
C530   C     0.83374   0.83346   0.47651   0.00000  Uiso   1.00
C531   C     0.83292   0.83320   0.02349   0.00000  Uiso   1.00
C532   C     0.86751   0.85464   0.45283   0.00000  Uiso   1.00
C533   C     0.79916   0.81202   0.04717   0.00000  Uiso   1.00
C534   C     0.76802   0.79128   0.47679   0.00000  Uiso   1.00
C535   C     0.76682   0.79040   0.02305   0.00000  Uiso   1.00
C536   C     0.89865   0.87538   0.02321   0.00000  Uiso   1.00
C537   C     0.89985   0.87626   0.47695   0.00000  Uiso   1.00
C538   C     0.68702   0.79702   0.27178   0.00000  Uiso   1.00
C539   C     0.97965   0.86964   0.22822   0.00000  Uiso   1.00
C540   C     0.97806   0.80034   0.27640   0.00000  Uiso   1.00
C541   C     0.68861   0.86632   0.22361   0.00000  Uiso   1.00
C542   C     0.95726   0.83545   0.25291   0.00000  Uiso   1.00
Cl543  Cl    0.90975   0.87417   0.37283   0.00000  Uiso   1.00
Cl544  Cl    0.75691   0.79250   0.12717   0.00000  Uiso   1.00
Cl545  Cl    0.75830   0.78971   0.37675   0.00000  Uiso   1.00
Cl546  Cl    0.90836   0.87696   0.12325   0.00000  Uiso   1.00
Cu547  Cu    0.83333   0.88022   0.25000   0.00000  Uiso   1.00
Cu548  Cu    0.83333   0.78645   0.25000   0.00000  Uiso   1.00
H549   H     0.74290   0.77453   0.45938   0.00000  Uiso   1.00
H550   H     0.94783   0.92507   0.22887   0.00000  Uiso   1.00
H551   H     0.93350   0.78353   0.31703   0.00000  Uiso   1.00
H552   H     0.73317   0.88314   0.18297   0.00000  Uiso   1.00
H553   H     0.92377   0.89212   0.04062   0.00000  Uiso   1.00
H554   H     0.78720   0.70945   0.20106   0.00000  Uiso   1.00
H555   H     0.87947   0.95722   0.29894   0.00000  Uiso   1.00
H556   H     0.87938   0.71089   0.29905   0.00000  Uiso   1.00
H557   H     0.78729   0.95577   0.20095   0.00000  Uiso   1.00
H558   H     0.71474   0.75469   0.02281   0.00000  Uiso   1.00
H559   H     0.95193   0.91196   0.47719   0.00000  Uiso   1.00
H560   H     0.71883   0.74160   0.27113   0.00000  Uiso   1.00
N561   N     0.83333   0.95069   0.25000   0.00000  Uiso   1.00
N562   N     0.83333   0.71598   0.25000   0.00000  Uiso   1.00
O563   O     0.77321   0.87291   0.25000   0.00000  Uiso   1.00
O564   O     0.93222   0.89893   0.45539   0.00000  Uiso   1.00
O565   O     0.70601   0.76146   0.29409   0.00000  Uiso   1.00
O566   O     0.96065   0.90520   0.20591   0.00000  Uiso   1.00
O567   O     0.95821   0.76866   0.30435   0.00000  Uiso   1.00
O568   O     0.70846   0.89801   0.19565   0.00000  Uiso   1.00
O569   O     0.89345   0.79375   0.25001   0.00000  Uiso   1.00
O570   O     0.89345   0.87291   0.25001   0.00000  Uiso   1.00
O571   O     0.77321   0.79375   0.25000   0.00000  Uiso   1.00
O572   O     0.83332   0.87293   0.18513   0.00000  Uiso   1.00
O573   O     0.83334   0.79373   0.31487   0.00000  Uiso   1.00
O574   O     0.83334   0.87293   0.31487   0.00000  Uiso   1.00
O575   O     0.83332   0.79373   0.18513   0.00000  Uiso   1.00
O576   O     0.73445   0.76772   0.04461   0.00000  Uiso   1.00
C577   C     0.08740   0.16607   0.74905   0.00000  Uiso   1.00
C578   C     0.04274   0.16455   0.74709   0.00000  Uiso   1.00
C579   C     0.14106   0.02440   0.72282   0.00000  Uiso   1.00
C580   C     0.19228   0.30893   0.77718   0.00000  Uiso   1.00
C581   C     0.19225   0.02521   0.77721   0.00000  Uiso   1.00
C582   C     0.14108   0.30812   0.72279   0.00000  Uiso   1.00
C583   C     0.16652   0.16674   0.66455   0.00000  Uiso   1.00
C584   C     0.16681   0.16659   0.83545   0.00000  Uiso   1.00
C585   C     0.20088   0.18672   0.90584   0.00000  Uiso   1.00
C586   C     0.13245   0.14661   0.59416   0.00000  Uiso   1.00
C587   C     0.16727   0.16649   0.88363   0.00000  Uiso   1.00
C588   C     0.24593   0.16726   0.75095   0.00000  Uiso   1.00
C589   C     0.16606   0.16684   0.61637   0.00000  Uiso   1.00
C590   C     0.13399   0.14629   0.90682   0.00000  Uiso   1.00
C591   C     0.19935   0.18704   0.59318   0.00000  Uiso   1.00
C592   C     0.13400   0.14583   0.95328   0.00000  Uiso   1.00
C593   C     0.19933   0.18750   0.54672   0.00000  Uiso   1.00
C594   C     0.16708   0.16680   0.97651   0.00000  Uiso   1.00
C595   C     0.16626   0.16653   0.52349   0.00000  Uiso   1.00
C596   C     0.20084   0.18797   0.95283   0.00000  Uiso   1.00
C597   C     0.13249   0.14535   0.54717   0.00000  Uiso   1.00
C598   C     0.10135   0.12461   0.97679   0.00000  Uiso   1.00
C599   C     0.10015   0.12374   0.52305   0.00000  Uiso   1.00
C600   C     0.23198   0.20872   0.52321   0.00000  Uiso   1.00
C601   C     0.23318   0.20959   0.97695   0.00000  Uiso   1.00
C602   C     0.02035   0.13036   0.77178   0.00000  Uiso   1.00
C603   C     0.31298   0.20298   0.72822   0.00000  Uiso   1.00
C604   C     0.31139   0.13368   0.77640   0.00000  Uiso   1.00
C605   C     0.02194   0.19966   0.72361   0.00000  Uiso   1.00
C606   C     0.29060   0.16878   0.75291   0.00000  Uiso   1.00
Cl607  Cl    0.24308   0.20750   0.87283   0.00000  Uiso   1.00
Cl608  Cl    0.09025   0.12583   0.62717   0.00000  Uiso   1.00
Cl609  Cl    0.09164   0.12304   0.87675   0.00000  Uiso   1.00
Cl610  Cl    0.24170   0.21029   0.62325   0.00000  Uiso   1.00
Cu611  Cu    0.16667   0.21355   0.75000   0.00000  Uiso   1.00
Cu612  Cu    0.16667   0.11978   0.75000   0.00000  Uiso   1.00
H613   H     0.07623   0.10787   0.95938   0.00000  Uiso   1.00
H614   H     0.28117   0.25840   0.72887   0.00000  Uiso   1.00
H615   H     0.26683   0.11686   0.81703   0.00000  Uiso   1.00
H616   H     0.06650   0.21647   0.68297   0.00000  Uiso   1.00
H617   H     0.25711   0.22546   0.54062   0.00000  Uiso   1.00
H618   H     0.12053   0.04278   0.70106   0.00000  Uiso   1.00
H619   H     0.21280   0.29055   0.79894   0.00000  Uiso   1.00
H620   H     0.21271   0.04423   0.79905   0.00000  Uiso   1.00
H621   H     0.12062   0.28911   0.70095   0.00000  Uiso   1.00
H622   H     0.04808   0.08802   0.52281   0.00000  Uiso   1.00
H623   H     0.28527   0.24529   0.97719   0.00000  Uiso   1.00
H624   H     0.05217   0.07493   0.77113   0.00000  Uiso   1.00
N625   N     0.16667   0.28402   0.75000   0.00000  Uiso   1.00
N626   N     0.16667   0.04931   0.75000   0.00000  Uiso   1.00
O627   O     0.10655   0.20625   0.75000   0.00000  Uiso   1.00
O628   O     0.26555   0.23226   0.95539   0.00000  Uiso   1.00
O629   O     0.03935   0.09480   0.79409   0.00000  Uiso   1.00
O630   O     0.29399   0.23854   0.70591   0.00000  Uiso   1.00
O631   O     0.29154   0.10199   0.80435   0.00000  Uiso   1.00
O632   O     0.04179   0.23134   0.69565   0.00000  Uiso   1.00
O633   O     0.22679   0.12709   0.75001   0.00000  Uiso   1.00
O634   O     0.22679   0.20625   0.75001   0.00000  Uiso   1.00
O635   O     0.10655   0.12709   0.75000   0.00000  Uiso   1.00
O636   O     0.16666   0.20627   0.68513   0.00000  Uiso   1.00
O637   O     0.16668   0.12707   0.81487   0.00000  Uiso   1.00
O638   O     0.16668   0.20627   0.81487   0.00000  Uiso   1.00
O639   O     0.16666   0.12707   0.68513   0.00000  Uiso   1.00
O640   O     0.06779   0.10106   0.54461   0.00000  Uiso   1.00
C641   C     0.42073   0.16607   0.74905   0.00000  Uiso   1.00
C642   C     0.37607   0.16455   0.74709   0.00000  Uiso   1.00
C643   C     0.47439   0.02440   0.72282   0.00000  Uiso   1.00
C644   C     0.52561   0.30893   0.77718   0.00000  Uiso   1.00
C645   C     0.52558   0.02521   0.77721   0.00000  Uiso   1.00
C646   C     0.47442   0.30812   0.72279   0.00000  Uiso   1.00
C647   C     0.49985   0.16674   0.66455   0.00000  Uiso   1.00
C648   C     0.50015   0.16659   0.83545   0.00000  Uiso   1.00
C649   C     0.53421   0.18672   0.90584   0.00000  Uiso   1.00
C650   C     0.46579   0.14661   0.59416   0.00000  Uiso   1.00
C651   C     0.50061   0.16649   0.88363   0.00000  Uiso   1.00
C652   C     0.57927   0.16726   0.75095   0.00000  Uiso   1.00
C653   C     0.49939   0.16684   0.61637   0.00000  Uiso   1.00
C654   C     0.46732   0.14629   0.90682   0.00000  Uiso   1.00
C655   C     0.53268   0.18704   0.59318   0.00000  Uiso   1.00
C656   C     0.46733   0.14583   0.95328   0.00000  Uiso   1.00
C657   C     0.53267   0.18750   0.54672   0.00000  Uiso   1.00
C658   C     0.50041   0.16680   0.97651   0.00000  Uiso   1.00
C659   C     0.49959   0.16653   0.52349   0.00000  Uiso   1.00
C660   C     0.53418   0.18797   0.95283   0.00000  Uiso   1.00
C661   C     0.46583   0.14535   0.54717   0.00000  Uiso   1.00
C662   C     0.43469   0.12461   0.97679   0.00000  Uiso   1.00
C663   C     0.43349   0.12374   0.52305   0.00000  Uiso   1.00
C664   C     0.56532   0.20872   0.52321   0.00000  Uiso   1.00
C665   C     0.56652   0.20959   0.97695   0.00000  Uiso   1.00
C666   C     0.35368   0.13036   0.77178   0.00000  Uiso   1.00
C667   C     0.64632   0.20298   0.72822   0.00000  Uiso   1.00
C668   C     0.64472   0.13368   0.77640   0.00000  Uiso   1.00
C669   C     0.35528   0.19966   0.72361   0.00000  Uiso   1.00
C670   C     0.62393   0.16878   0.75291   0.00000  Uiso   1.00
Cl671  Cl    0.57642   0.20750   0.87283   0.00000  Uiso   1.00
Cl672  Cl    0.42358   0.12583   0.62717   0.00000  Uiso   1.00
Cl673  Cl    0.42497   0.12304   0.87675   0.00000  Uiso   1.00
Cl674  Cl    0.57503   0.21029   0.62325   0.00000  Uiso   1.00
Cu675  Cu    0.50000   0.21355   0.75000   0.00000  Uiso   1.00
Cu676  Cu    0.50000   0.11978   0.75000   0.00000  Uiso   1.00
H677   H     0.40957   0.10787   0.95938   0.00000  Uiso   1.00
H678   H     0.61450   0.25840   0.72887   0.00000  Uiso   1.00
H679   H     0.60017   0.11686   0.81703   0.00000  Uiso   1.00
H680   H     0.39983   0.21647   0.68297   0.00000  Uiso   1.00
H681   H     0.59044   0.22546   0.54062   0.00000  Uiso   1.00
H682   H     0.45386   0.04278   0.70106   0.00000  Uiso   1.00
H683   H     0.54614   0.29055   0.79894   0.00000  Uiso   1.00
H684   H     0.54605   0.04423   0.79905   0.00000  Uiso   1.00
H685   H     0.45395   0.28911   0.70095   0.00000  Uiso   1.00
H686   H     0.38141   0.08802   0.52281   0.00000  Uiso   1.00
H687   H     0.61860   0.24529   0.97719   0.00000  Uiso   1.00
H688   H     0.38550   0.07493   0.77113   0.00000  Uiso   1.00
N689   N     0.50000   0.28402   0.75000   0.00000  Uiso   1.00
N690   N     0.50000   0.04931   0.75000   0.00000  Uiso   1.00
O691   O     0.43988   0.20625   0.75000   0.00000  Uiso   1.00
O692   O     0.59889   0.23226   0.95539   0.00000  Uiso   1.00
O693   O     0.37268   0.09480   0.79409   0.00000  Uiso   1.00
O694   O     0.62732   0.23854   0.70591   0.00000  Uiso   1.00
O695   O     0.62488   0.10199   0.80435   0.00000  Uiso   1.00
O696   O     0.37512   0.23134   0.69565   0.00000  Uiso   1.00
O697   O     0.56012   0.12709   0.75001   0.00000  Uiso   1.00
O698   O     0.56012   0.20625   0.75001   0.00000  Uiso   1.00
O699   O     0.43988   0.12709   0.75000   0.00000  Uiso   1.00
O700   O     0.49999   0.20627   0.68513   0.00000  Uiso   1.00
O701   O     0.50001   0.12707   0.81487   0.00000  Uiso   1.00
O702   O     0.50001   0.20627   0.81487   0.00000  Uiso   1.00
O703   O     0.49999   0.12707   0.68513   0.00000  Uiso   1.00
O704   O     0.40112   0.10106   0.54461   0.00000  Uiso   1.00
C705   C     0.75407   0.16607   0.74905   0.00000  Uiso   1.00
C706   C     0.70940   0.16455   0.74709   0.00000  Uiso   1.00
C707   C     0.80772   0.02440   0.72282   0.00000  Uiso   1.00
C708   C     0.85894   0.30893   0.77718   0.00000  Uiso   1.00
C709   C     0.85892   0.02521   0.77721   0.00000  Uiso   1.00
C710   C     0.80775   0.30812   0.72279   0.00000  Uiso   1.00
C711   C     0.83319   0.16674   0.66455   0.00000  Uiso   1.00
C712   C     0.83348   0.16659   0.83545   0.00000  Uiso   1.00
C713   C     0.86755   0.18672   0.90584   0.00000  Uiso   1.00
C714   C     0.79912   0.14661   0.59416   0.00000  Uiso   1.00
C715   C     0.83394   0.16649   0.88363   0.00000  Uiso   1.00
C716   C     0.91260   0.16726   0.75095   0.00000  Uiso   1.00
C717   C     0.83273   0.16684   0.61637   0.00000  Uiso   1.00
C718   C     0.80065   0.14629   0.90682   0.00000  Uiso   1.00
C719   C     0.86602   0.18704   0.59318   0.00000  Uiso   1.00
C720   C     0.80067   0.14583   0.95328   0.00000  Uiso   1.00
C721   C     0.86600   0.18750   0.54672   0.00000  Uiso   1.00
C722   C     0.83374   0.16680   0.97651   0.00000  Uiso   1.00
C723   C     0.83292   0.16653   0.52349   0.00000  Uiso   1.00
C724   C     0.86751   0.18797   0.95283   0.00000  Uiso   1.00
C725   C     0.79916   0.14535   0.54717   0.00000  Uiso   1.00
C726   C     0.76802   0.12461   0.97679   0.00000  Uiso   1.00
C727   C     0.76682   0.12374   0.52305   0.00000  Uiso   1.00
C728   C     0.89865   0.20872   0.52321   0.00000  Uiso   1.00
C729   C     0.89985   0.20959   0.97695   0.00000  Uiso   1.00
C730   C     0.68702   0.13036   0.77178   0.00000  Uiso   1.00
C731   C     0.97965   0.20298   0.72822   0.00000  Uiso   1.00
C732   C     0.97806   0.13368   0.77640   0.00000  Uiso   1.00
C733   C     0.68861   0.19966   0.72361   0.00000  Uiso   1.00
C734   C     0.95726   0.16878   0.75291   0.00000  Uiso   1.00
Cl735  Cl    0.90975   0.20750   0.87283   0.00000  Uiso   1.00
Cl736  Cl    0.75691   0.12583   0.62717   0.00000  Uiso   1.00
Cl737  Cl    0.75830   0.12304   0.87675   0.00000  Uiso   1.00
Cl738  Cl    0.90836   0.21029   0.62325   0.00000  Uiso   1.00
Cu739  Cu    0.83333   0.21355   0.75000   0.00000  Uiso   1.00
Cu740  Cu    0.83333   0.11978   0.75000   0.00000  Uiso   1.00
H741   H     0.74290   0.10787   0.95938   0.00000  Uiso   1.00
H742   H     0.94783   0.25840   0.72887   0.00000  Uiso   1.00
H743   H     0.93350   0.11686   0.81703   0.00000  Uiso   1.00
H744   H     0.73317   0.21647   0.68297   0.00000  Uiso   1.00
H745   H     0.92377   0.22546   0.54062   0.00000  Uiso   1.00
H746   H     0.78720   0.04278   0.70106   0.00000  Uiso   1.00
H747   H     0.87947   0.29055   0.79894   0.00000  Uiso   1.00
H748   H     0.87938   0.04423   0.79905   0.00000  Uiso   1.00
H749   H     0.78729   0.28911   0.70095   0.00000  Uiso   1.00
H750   H     0.71474   0.08802   0.52281   0.00000  Uiso   1.00
H751   H     0.95193   0.24529   0.97719   0.00000  Uiso   1.00
H752   H     0.71883   0.07493   0.77113   0.00000  Uiso   1.00
N753   N     0.83333   0.28402   0.75000   0.00000  Uiso   1.00
N754   N     0.83333   0.04931   0.75000   0.00000  Uiso   1.00
O755   O     0.77321   0.20625   0.75000   0.00000  Uiso   1.00
O756   O     0.93222   0.23226   0.95539   0.00000  Uiso   1.00
O757   O     0.70601   0.09480   0.79409   0.00000  Uiso   1.00
O758   O     0.96065   0.23854   0.70591   0.00000  Uiso   1.00
O759   O     0.95821   0.10199   0.80435   0.00000  Uiso   1.00
O760   O     0.70846   0.23134   0.69565   0.00000  Uiso   1.00
O761   O     0.89345   0.12709   0.75001   0.00000  Uiso   1.00
O762   O     0.89345   0.20625   0.75001   0.00000  Uiso   1.00
O763   O     0.77321   0.12709   0.75000   0.00000  Uiso   1.00
O764   O     0.83332   0.20627   0.68513   0.00000  Uiso   1.00
O765   O     0.83334   0.12707   0.81487   0.00000  Uiso   1.00
O766   O     0.83334   0.20627   0.81487   0.00000  Uiso   1.00
O767   O     0.83332   0.12707   0.68513   0.00000  Uiso   1.00
O768   O     0.73445   0.10106   0.54461   0.00000  Uiso   1.00
C769   C     0.08740   0.49941   0.74905   0.00000  Uiso   1.00
C770   C     0.04274   0.49788   0.74709   0.00000  Uiso   1.00
C771   C     0.14106   0.35774   0.72282   0.00000  Uiso   1.00
C772   C     0.19228   0.64226   0.77718   0.00000  Uiso   1.00
C773   C     0.19225   0.35854   0.77721   0.00000  Uiso   1.00
C774   C     0.14108   0.64146   0.72279   0.00000  Uiso   1.00
C775   C     0.16652   0.50007   0.66455   0.00000  Uiso   1.00
C776   C     0.16681   0.49993   0.83545   0.00000  Uiso   1.00
C777   C     0.20088   0.52006   0.90584   0.00000  Uiso   1.00
C778   C     0.13245   0.47994   0.59416   0.00000  Uiso   1.00
C779   C     0.16727   0.49982   0.88363   0.00000  Uiso   1.00
C780   C     0.24593   0.50059   0.75095   0.00000  Uiso   1.00
C781   C     0.16606   0.50018   0.61637   0.00000  Uiso   1.00
C782   C     0.13399   0.47963   0.90682   0.00000  Uiso   1.00
C783   C     0.19935   0.52037   0.59318   0.00000  Uiso   1.00
C784   C     0.13400   0.47916   0.95328   0.00000  Uiso   1.00
C785   C     0.19933   0.52083   0.54672   0.00000  Uiso   1.00
C786   C     0.16708   0.50013   0.97651   0.00000  Uiso   1.00
C787   C     0.16626   0.49987   0.52349   0.00000  Uiso   1.00
C788   C     0.20084   0.52131   0.95283   0.00000  Uiso   1.00
C789   C     0.13249   0.47869   0.54717   0.00000  Uiso   1.00
C790   C     0.10135   0.45794   0.97679   0.00000  Uiso   1.00
C791   C     0.10015   0.45707   0.52305   0.00000  Uiso   1.00
C792   C     0.23198   0.54205   0.52321   0.00000  Uiso   1.00
C793   C     0.23318   0.54292   0.97695   0.00000  Uiso   1.00
C794   C     0.02035   0.46369   0.77178   0.00000  Uiso   1.00
C795   C     0.31298   0.53631   0.72822   0.00000  Uiso   1.00
C796   C     0.31139   0.46701   0.77640   0.00000  Uiso   1.00
C797   C     0.02194   0.53299   0.72361   0.00000  Uiso   1.00
C798   C     0.29060   0.50212   0.75291   0.00000  Uiso   1.00
Cl799  Cl    0.24308   0.54084   0.87283   0.00000  Uiso   1.00
Cl800  Cl    0.09025   0.45917   0.62717   0.00000  Uiso   1.00
Cl801  Cl    0.09164   0.45637   0.87675   0.00000  Uiso   1.00
Cl802  Cl    0.24170   0.54362   0.62325   0.00000  Uiso   1.00
Cu803  Cu    0.16667   0.54689   0.75000   0.00000  Uiso   1.00
Cu804  Cu    0.16667   0.45311   0.75000   0.00000  Uiso   1.00
H805   H     0.07623   0.44120   0.95938   0.00000  Uiso   1.00
H806   H     0.28117   0.59173   0.72887   0.00000  Uiso   1.00
H807   H     0.26683   0.45019   0.81703   0.00000  Uiso   1.00
H808   H     0.06650   0.54981   0.68297   0.00000  Uiso   1.00
H809   H     0.25711   0.55879   0.54062   0.00000  Uiso   1.00
H810   H     0.12053   0.37612   0.70106   0.00000  Uiso   1.00
H811   H     0.21280   0.62388   0.79894   0.00000  Uiso   1.00
H812   H     0.21271   0.37756   0.79905   0.00000  Uiso   1.00
H813   H     0.12062   0.62244   0.70095   0.00000  Uiso   1.00
H814   H     0.04808   0.42135   0.52281   0.00000  Uiso   1.00
H815   H     0.28527   0.57863   0.97719   0.00000  Uiso   1.00
H816   H     0.05217   0.40827   0.77113   0.00000  Uiso   1.00
N817   N     0.16667   0.61736   0.75000   0.00000  Uiso   1.00
N818   N     0.16667   0.38264   0.75000   0.00000  Uiso   1.00
O819   O     0.10655   0.53958   0.75000   0.00000  Uiso   1.00
O820   O     0.26555   0.56560   0.95539   0.00000  Uiso   1.00
O821   O     0.03935   0.42813   0.79409   0.00000  Uiso   1.00
O822   O     0.29399   0.57187   0.70591   0.00000  Uiso   1.00
O823   O     0.29154   0.43532   0.80435   0.00000  Uiso   1.00
O824   O     0.04179   0.56468   0.69565   0.00000  Uiso   1.00
O825   O     0.22679   0.46042   0.75001   0.00000  Uiso   1.00
O826   O     0.22679   0.53958   0.75001   0.00000  Uiso   1.00
O827   O     0.10655   0.46042   0.75000   0.00000  Uiso   1.00
O828   O     0.16666   0.53960   0.68513   0.00000  Uiso   1.00
O829   O     0.16668   0.46040   0.81487   0.00000  Uiso   1.00
O830   O     0.16668   0.53960   0.81487   0.00000  Uiso   1.00
O831   O     0.16666   0.46040   0.68513   0.00000  Uiso   1.00
O832   O     0.06779   0.43439   0.54461   0.00000  Uiso   1.00
C833   C     0.42073   0.49941   0.74905   0.00000  Uiso   1.00
C834   C     0.37607   0.49788   0.74709   0.00000  Uiso   1.00
C835   C     0.47439   0.35774   0.72282   0.00000  Uiso   1.00
C836   C     0.52561   0.64226   0.77718   0.00000  Uiso   1.00
C837   C     0.52558   0.35854   0.77721   0.00000  Uiso   1.00
C838   C     0.47442   0.64146   0.72279   0.00000  Uiso   1.00
C839   C     0.49985   0.50007   0.66455   0.00000  Uiso   1.00
C840   C     0.50015   0.49993   0.83545   0.00000  Uiso   1.00
C841   C     0.53421   0.52006   0.90584   0.00000  Uiso   1.00
C842   C     0.46579   0.47994   0.59416   0.00000  Uiso   1.00
C843   C     0.50061   0.49982   0.88363   0.00000  Uiso   1.00
C844   C     0.57927   0.50059   0.75095   0.00000  Uiso   1.00
C845   C     0.49939   0.50018   0.61637   0.00000  Uiso   1.00
C846   C     0.46732   0.47963   0.90682   0.00000  Uiso   1.00
C847   C     0.53268   0.52037   0.59318   0.00000  Uiso   1.00
C848   C     0.46733   0.47916   0.95328   0.00000  Uiso   1.00
C849   C     0.53267   0.52083   0.54672   0.00000  Uiso   1.00
C850   C     0.50041   0.50013   0.97651   0.00000  Uiso   1.00
C851   C     0.49959   0.49987   0.52349   0.00000  Uiso   1.00
C852   C     0.53418   0.52131   0.95283   0.00000  Uiso   1.00
C853   C     0.46583   0.47869   0.54717   0.00000  Uiso   1.00
C854   C     0.43469   0.45794   0.97679   0.00000  Uiso   1.00
C855   C     0.43349   0.45707   0.52305   0.00000  Uiso   1.00
C856   C     0.56532   0.54205   0.52321   0.00000  Uiso   1.00
C857   C     0.56652   0.54292   0.97695   0.00000  Uiso   1.00
C858   C     0.35368   0.46369   0.77178   0.00000  Uiso   1.00
C859   C     0.64632   0.53631   0.72822   0.00000  Uiso   1.00
C860   C     0.64472   0.46701   0.77640   0.00000  Uiso   1.00
C861   C     0.35528   0.53299   0.72361   0.00000  Uiso   1.00
C862   C     0.62393   0.50212   0.75291   0.00000  Uiso   1.00
Cl863  Cl    0.57642   0.54084   0.87283   0.00000  Uiso   1.00
Cl864  Cl    0.42358   0.45917   0.62717   0.00000  Uiso   1.00
Cl865  Cl    0.42497   0.45637   0.87675   0.00000  Uiso   1.00
Cl866  Cl    0.57503   0.54362   0.62325   0.00000  Uiso   1.00
Cu867  Cu    0.50000   0.54689   0.75000   0.00000  Uiso   1.00
Cu868  Cu    0.50000   0.45311   0.75000   0.00000  Uiso   1.00
H869   H     0.40957   0.44120   0.95938   0.00000  Uiso   1.00
H870   H     0.61450   0.59173   0.72887   0.00000  Uiso   1.00
H871   H     0.60017   0.45019   0.81703   0.00000  Uiso   1.00
H872   H     0.39983   0.54981   0.68297   0.00000  Uiso   1.00
H873   H     0.59044   0.55879   0.54062   0.00000  Uiso   1.00
H874   H     0.45386   0.37612   0.70106   0.00000  Uiso   1.00
H875   H     0.54614   0.62388   0.79894   0.00000  Uiso   1.00
H876   H     0.54605   0.37756   0.79905   0.00000  Uiso   1.00
H877   H     0.45395   0.62244   0.70095   0.00000  Uiso   1.00
H878   H     0.38141   0.42135   0.52281   0.00000  Uiso   1.00
H879   H     0.61860   0.57863   0.97719   0.00000  Uiso   1.00
H880   H     0.38550   0.40827   0.77113   0.00000  Uiso   1.00
N881   N     0.50000   0.61736   0.75000   0.00000  Uiso   1.00
N882   N     0.50000   0.38264   0.75000   0.00000  Uiso   1.00
O883   O     0.43988   0.53958   0.75000   0.00000  Uiso   1.00
O884   O     0.59889   0.56560   0.95539   0.00000  Uiso   1.00
O885   O     0.37268   0.42813   0.79409   0.00000  Uiso   1.00
O886   O     0.62732   0.57187   0.70591   0.00000  Uiso   1.00
O887   O     0.62488   0.43532   0.80435   0.00000  Uiso   1.00
O888   O     0.37512   0.56468   0.69565   0.00000  Uiso   1.00
O889   O     0.56012   0.46042   0.75001   0.00000  Uiso   1.00
O890   O     0.56012   0.53958   0.75001   0.00000  Uiso   1.00
O891   O     0.43988   0.46042   0.75000   0.00000  Uiso   1.00
O892   O     0.49999   0.53960   0.68513   0.00000  Uiso   1.00
O893   O     0.50001   0.46040   0.81487   0.00000  Uiso   1.00
O894   O     0.50001   0.53960   0.81487   0.00000  Uiso   1.00
O895   O     0.49999   0.46040   0.68513   0.00000  Uiso   1.00
O896   O     0.40112   0.43439   0.54461   0.00000  Uiso   1.00
C897   C     0.75407   0.49941   0.74905   0.00000  Uiso   1.00
C898   C     0.70940   0.49788   0.74709   0.00000  Uiso   1.00
C899   C     0.80772   0.35774   0.72282   0.00000  Uiso   1.00
C900   C     0.85894   0.64226   0.77718   0.00000  Uiso   1.00
C901   C     0.85892   0.35854   0.77721   0.00000  Uiso   1.00
C902   C     0.80775   0.64146   0.72279   0.00000  Uiso   1.00
C903   C     0.83319   0.50007   0.66455   0.00000  Uiso   1.00
C904   C     0.83348   0.49993   0.83545   0.00000  Uiso   1.00
C905   C     0.86755   0.52006   0.90584   0.00000  Uiso   1.00
C906   C     0.79912   0.47994   0.59416   0.00000  Uiso   1.00
C907   C     0.83394   0.49982   0.88363   0.00000  Uiso   1.00
C908   C     0.91260   0.50059   0.75095   0.00000  Uiso   1.00
C909   C     0.83273   0.50018   0.61637   0.00000  Uiso   1.00
C910   C     0.80065   0.47963   0.90682   0.00000  Uiso   1.00
C911   C     0.86602   0.52037   0.59318   0.00000  Uiso   1.00
C912   C     0.80067   0.47916   0.95328   0.00000  Uiso   1.00
C913   C     0.86600   0.52083   0.54672   0.00000  Uiso   1.00
C914   C     0.83374   0.50013   0.97651   0.00000  Uiso   1.00
C915   C     0.83292   0.49987   0.52349   0.00000  Uiso   1.00
C916   C     0.86751   0.52131   0.95283   0.00000  Uiso   1.00
C917   C     0.79916   0.47869   0.54717   0.00000  Uiso   1.00
C918   C     0.76802   0.45794   0.97679   0.00000  Uiso   1.00
C919   C     0.76682   0.45707   0.52305   0.00000  Uiso   1.00
C920   C     0.89865   0.54205   0.52321   0.00000  Uiso   1.00
C921   C     0.89985   0.54292   0.97695   0.00000  Uiso   1.00
C922   C     0.68702   0.46369   0.77178   0.00000  Uiso   1.00
C923   C     0.97965   0.53631   0.72822   0.00000  Uiso   1.00
C924   C     0.97806   0.46701   0.77640   0.00000  Uiso   1.00
C925   C     0.68861   0.53299   0.72361   0.00000  Uiso   1.00
C926   C     0.95726   0.50212   0.75291   0.00000  Uiso   1.00
Cl927  Cl    0.90975   0.54084   0.87283   0.00000  Uiso   1.00
Cl928  Cl    0.75691   0.45917   0.62717   0.00000  Uiso   1.00
Cl929  Cl    0.75830   0.45637   0.87675   0.00000  Uiso   1.00
Cl930  Cl    0.90836   0.54362   0.62325   0.00000  Uiso   1.00
Cu931  Cu    0.83333   0.54689   0.75000   0.00000  Uiso   1.00
Cu932  Cu    0.83333   0.45311   0.75000   0.00000  Uiso   1.00
H933   H     0.74290   0.44120   0.95938   0.00000  Uiso   1.00
H934   H     0.94783   0.59173   0.72887   0.00000  Uiso   1.00
H935   H     0.93350   0.45019   0.81703   0.00000  Uiso   1.00
H936   H     0.73317   0.54981   0.68297   0.00000  Uiso   1.00
H937   H     0.92377   0.55879   0.54062   0.00000  Uiso   1.00
H938   H     0.78720   0.37612   0.70106   0.00000  Uiso   1.00
H939   H     0.87947   0.62388   0.79894   0.00000  Uiso   1.00
H940   H     0.87938   0.37756   0.79905   0.00000  Uiso   1.00
H941   H     0.78729   0.62244   0.70095   0.00000  Uiso   1.00
H942   H     0.71474   0.42135   0.52281   0.00000  Uiso   1.00
H943   H     0.95193   0.57863   0.97719   0.00000  Uiso   1.00
H944   H     0.71883   0.40827   0.77113   0.00000  Uiso   1.00
N945   N     0.83333   0.61736   0.75000   0.00000  Uiso   1.00
N946   N     0.83333   0.38264   0.75000   0.00000  Uiso   1.00
O947   O     0.77321   0.53958   0.75000   0.00000  Uiso   1.00
O948   O     0.93222   0.56560   0.95539   0.00000  Uiso   1.00
O949   O     0.70601   0.42813   0.79409   0.00000  Uiso   1.00
O950   O     0.96065   0.57187   0.70591   0.00000  Uiso   1.00
O951   O     0.95821   0.43532   0.80435   0.00000  Uiso   1.00
O952   O     0.70846   0.56468   0.69565   0.00000  Uiso   1.00
O953   O     0.89345   0.46042   0.75001   0.00000  Uiso   1.00
O954   O     0.89345   0.53958   0.75001   0.00000  Uiso   1.00
O955   O     0.77321   0.46042   0.75000   0.00000  Uiso   1.00
O956   O     0.83332   0.53960   0.68513   0.00000  Uiso   1.00
O957   O     0.83334   0.46040   0.81487   0.00000  Uiso   1.00
O958   O     0.83334   0.53960   0.81487   0.00000  Uiso   1.00
O959   O     0.83332   0.46040   0.68513   0.00000  Uiso   1.00
O960   O     0.73445   0.43439   0.54461   0.00000  Uiso   1.00
C961   C     0.08740   0.83274   0.74905   0.00000  Uiso   1.00
C962   C     0.04274   0.83122   0.74709   0.00000  Uiso   1.00
C963   C     0.14106   0.69107   0.72282   0.00000  Uiso   1.00
C964   C     0.19228   0.97560   0.77718   0.00000  Uiso   1.00
C965   C     0.19225   0.69188   0.77721   0.00000  Uiso   1.00
C966   C     0.14108   0.97479   0.72279   0.00000  Uiso   1.00
C967   C     0.16652   0.83341   0.66455   0.00000  Uiso   1.00
C968   C     0.16681   0.83326   0.83545   0.00000  Uiso   1.00
C969   C     0.20088   0.85339   0.90584   0.00000  Uiso   1.00
C970   C     0.13245   0.81327   0.59416   0.00000  Uiso   1.00
C971   C     0.16727   0.83316   0.88363   0.00000  Uiso   1.00
C972   C     0.24593   0.83393   0.75095   0.00000  Uiso   1.00
C973   C     0.16606   0.83351   0.61637   0.00000  Uiso   1.00
C974   C     0.13399   0.81296   0.90682   0.00000  Uiso   1.00
C975   C     0.19935   0.85370   0.59318   0.00000  Uiso   1.00
C976   C     0.13400   0.81250   0.95328   0.00000  Uiso   1.00
C977   C     0.19933   0.85417   0.54672   0.00000  Uiso   1.00
C978   C     0.16708   0.83346   0.97651   0.00000  Uiso   1.00
C979   C     0.16626   0.83320   0.52349   0.00000  Uiso   1.00
C980   C     0.20084   0.85464   0.95283   0.00000  Uiso   1.00
C981   C     0.13249   0.81202   0.54717   0.00000  Uiso   1.00
C982   C     0.10135   0.79128   0.97679   0.00000  Uiso   1.00
C983   C     0.10015   0.79040   0.52305   0.00000  Uiso   1.00
C984   C     0.23198   0.87538   0.52321   0.00000  Uiso   1.00
C985   C     0.23318   0.87626   0.97695   0.00000  Uiso   1.00
C986   C     0.02035   0.79702   0.77178   0.00000  Uiso   1.00
C987   C     0.31298   0.86964   0.72822   0.00000  Uiso   1.00
C988   C     0.31139   0.80034   0.77640   0.00000  Uiso   1.00
C989   C     0.02194   0.86632   0.72361   0.00000  Uiso   1.00
C990   C     0.29060   0.83545   0.75291   0.00000  Uiso   1.00
Cl991  Cl    0.24308   0.87417   0.87283   0.00000  Uiso   1.00
Cl992  Cl    0.09025   0.79250   0.62717   0.00000  Uiso   1.00
Cl993  Cl    0.09164   0.78971   0.87675   0.00000  Uiso   1.00
Cl994  Cl    0.24170   0.87696   0.62325   0.00000  Uiso   1.00
Cu995  Cu    0.16667   0.88022   0.75000   0.00000  Uiso   1.00
Cu996  Cu    0.16667   0.78645   0.75000   0.00000  Uiso   1.00
H997   H     0.07623   0.77453   0.95938   0.00000  Uiso   1.00
H998   H     0.28117   0.92507   0.72887   0.00000  Uiso   1.00
H999   H     0.26683   0.78353   0.81703   0.00000  Uiso   1.00
H1000  H     0.06650   0.88314   0.68297   0.00000  Uiso   1.00
H1001  H     0.25711   0.89212   0.54062   0.00000  Uiso   1.00
H1002  H     0.12053   0.70945   0.70106   0.00000  Uiso   1.00
H1003  H     0.21280   0.95722   0.79894   0.00000  Uiso   1.00
H1004  H     0.21271   0.71089   0.79905   0.00000  Uiso   1.00
H1005  H     0.12062   0.95577   0.70095   0.00000  Uiso   1.00
H1006  H     0.04808   0.75469   0.52281   0.00000  Uiso   1.00
H1007  H     0.28527   0.91196   0.97719   0.00000  Uiso   1.00
H1008  H     0.05217   0.74160   0.77113   0.00000  Uiso   1.00
N1009  N     0.16667   0.95069   0.75000   0.00000  Uiso   1.00
N1010  N     0.16667   0.71598   0.75000   0.00000  Uiso   1.00
O1011  O     0.10655   0.87291   0.75000   0.00000  Uiso   1.00
O1012  O     0.26555   0.89893   0.95539   0.00000  Uiso   1.00
O1013  O     0.03935   0.76146   0.79409   0.00000  Uiso   1.00
O1014  O     0.29399   0.90520   0.70591   0.00000  Uiso   1.00
O1015  O     0.29154   0.76866   0.80435   0.00000  Uiso   1.00
O1016  O     0.04179   0.89801   0.69565   0.00000  Uiso   1.00
O1017  O     0.22679   0.79375   0.75001   0.00000  Uiso   1.00
O1018  O     0.22679   0.87291   0.75001   0.00000  Uiso   1.00
O1019  O     0.10655   0.79375   0.75000   0.00000  Uiso   1.00
O1020  O     0.16666   0.87293   0.68513   0.00000  Uiso   1.00
O1021  O     0.16668   0.79373   0.81487   0.00000  Uiso   1.00
O1022  O     0.16668   0.87293   0.81487   0.00000  Uiso   1.00
O1023  O     0.16666   0.79373   0.68513   0.00000  Uiso   1.00
O1024  O     0.06779   0.76772   0.54461   0.00000  Uiso   1.00
C1025  C     0.42073   0.83274   0.74905   0.00000  Uiso   1.00
C1026  C     0.37607   0.83122   0.74709   0.00000  Uiso   1.00
C1027  C     0.47439   0.69107   0.72282   0.00000  Uiso   1.00
C1028  C     0.52561   0.97560   0.77718   0.00000  Uiso   1.00
C1029  C     0.52558   0.69188   0.77721   0.00000  Uiso   1.00
C1030  C     0.47442   0.97479   0.72279   0.00000  Uiso   1.00
C1031  C     0.49985   0.83341   0.66455   0.00000  Uiso   1.00
C1032  C     0.50015   0.83326   0.83545   0.00000  Uiso   1.00
C1033  C     0.53421   0.85339   0.90584   0.00000  Uiso   1.00
C1034  C     0.46579   0.81327   0.59416   0.00000  Uiso   1.00
C1035  C     0.50061   0.83316   0.88363   0.00000  Uiso   1.00
C1036  C     0.57927   0.83393   0.75095   0.00000  Uiso   1.00
C1037  C     0.49939   0.83351   0.61637   0.00000  Uiso   1.00
C1038  C     0.46732   0.81296   0.90682   0.00000  Uiso   1.00
C1039  C     0.53268   0.85370   0.59318   0.00000  Uiso   1.00
C1040  C     0.46733   0.81250   0.95328   0.00000  Uiso   1.00
C1041  C     0.53267   0.85417   0.54672   0.00000  Uiso   1.00
C1042  C     0.50041   0.83346   0.97651   0.00000  Uiso   1.00
C1043  C     0.49959   0.83320   0.52349   0.00000  Uiso   1.00
C1044  C     0.53418   0.85464   0.95283   0.00000  Uiso   1.00
C1045  C     0.46583   0.81202   0.54717   0.00000  Uiso   1.00
C1046  C     0.43469   0.79128   0.97679   0.00000  Uiso   1.00
C1047  C     0.43349   0.79040   0.52305   0.00000  Uiso   1.00
C1048  C     0.56532   0.87538   0.52321   0.00000  Uiso   1.00
C1049  C     0.56652   0.87626   0.97695   0.00000  Uiso   1.00
C1050  C     0.35368   0.79702   0.77178   0.00000  Uiso   1.00
C1051  C     0.64632   0.86964   0.72822   0.00000  Uiso   1.00
C1052  C     0.64472   0.80034   0.77640   0.00000  Uiso   1.00
C1053  C     0.35528   0.86632   0.72361   0.00000  Uiso   1.00
C1054  C     0.62393   0.83545   0.75291   0.00000  Uiso   1.00
Cl1055 Cl    0.57642   0.87417   0.87283   0.00000  Uiso   1.00
Cl1056 Cl    0.42358   0.79250   0.62717   0.00000  Uiso   1.00
Cl1057 Cl    0.42497   0.78971   0.87675   0.00000  Uiso   1.00
Cl1058 Cl    0.57503   0.87696   0.62325   0.00000  Uiso   1.00
Cu1059 Cu    0.50000   0.88022   0.75000   0.00000  Uiso   1.00
Cu1060 Cu    0.50000   0.78645   0.75000   0.00000  Uiso   1.00
H1061  H     0.40957   0.77453   0.95938   0.00000  Uiso   1.00
H1062  H     0.61450   0.92507   0.72887   0.00000  Uiso   1.00
H1063  H     0.60017   0.78353   0.81703   0.00000  Uiso   1.00
H1064  H     0.39983   0.88314   0.68297   0.00000  Uiso   1.00
H1065  H     0.59044   0.89212   0.54062   0.00000  Uiso   1.00
H1066  H     0.45386   0.70945   0.70106   0.00000  Uiso   1.00
H1067  H     0.54614   0.95722   0.79894   0.00000  Uiso   1.00
H1068  H     0.54605   0.71089   0.79905   0.00000  Uiso   1.00
H1069  H     0.45395   0.95577   0.70095   0.00000  Uiso   1.00
H1070  H     0.38141   0.75469   0.52281   0.00000  Uiso   1.00
H1071  H     0.61860   0.91196   0.97719   0.00000  Uiso   1.00
H1072  H     0.38550   0.74160   0.77113   0.00000  Uiso   1.00
N1073  N     0.50000   0.95069   0.75000   0.00000  Uiso   1.00
N1074  N     0.50000   0.71598   0.75000   0.00000  Uiso   1.00
O1075  O     0.43988   0.87291   0.75000   0.00000  Uiso   1.00
O1076  O     0.59889   0.89893   0.95539   0.00000  Uiso   1.00
O1077  O     0.37268   0.76146   0.79409   0.00000  Uiso   1.00
O1078  O     0.62732   0.90520   0.70591   0.00000  Uiso   1.00
O1079  O     0.62488   0.76866   0.80435   0.00000  Uiso   1.00
O1080  O     0.37512   0.89801   0.69565   0.00000  Uiso   1.00
O1081  O     0.56012   0.79375   0.75001   0.00000  Uiso   1.00
O1082  O     0.56012   0.87291   0.75001   0.00000  Uiso   1.00
O1083  O     0.43988   0.79375   0.75000   0.00000  Uiso   1.00
O1084  O     0.49999   0.87293   0.68513   0.00000  Uiso   1.00
O1085  O     0.50001   0.79373   0.81487   0.00000  Uiso   1.00
O1086  O     0.50001   0.87293   0.81487   0.00000  Uiso   1.00
O1087  O     0.49999   0.79373   0.68513   0.00000  Uiso   1.00
O1088  O     0.40112   0.76772   0.54461   0.00000  Uiso   1.00
C1089  C     0.75407   0.83274   0.74905   0.00000  Uiso   1.00
C1090  C     0.70940   0.83122   0.74709   0.00000  Uiso   1.00
C1091  C     0.80772   0.69107   0.72282   0.00000  Uiso   1.00
C1092  C     0.85894   0.97560   0.77718   0.00000  Uiso   1.00
C1093  C     0.85892   0.69188   0.77721   0.00000  Uiso   1.00
C1094  C     0.80775   0.97479   0.72279   0.00000  Uiso   1.00
C1095  C     0.83319   0.83341   0.66455   0.00000  Uiso   1.00
C1096  C     0.83348   0.83326   0.83545   0.00000  Uiso   1.00
C1097  C     0.86755   0.85339   0.90584   0.00000  Uiso   1.00
C1098  C     0.79912   0.81327   0.59416   0.00000  Uiso   1.00
C1099  C     0.83394   0.83316   0.88363   0.00000  Uiso   1.00
C1100  C     0.91260   0.83393   0.75095   0.00000  Uiso   1.00
C1101  C     0.83273   0.83351   0.61637   0.00000  Uiso   1.00
C1102  C     0.80065   0.81296   0.90682   0.00000  Uiso   1.00
C1103  C     0.86602   0.85370   0.59318   0.00000  Uiso   1.00
C1104  C     0.80067   0.81250   0.95328   0.00000  Uiso   1.00
C1105  C     0.86600   0.85417   0.54672   0.00000  Uiso   1.00
C1106  C     0.83374   0.83346   0.97651   0.00000  Uiso   1.00
C1107  C     0.83292   0.83320   0.52349   0.00000  Uiso   1.00
C1108  C     0.86751   0.85464   0.95283   0.00000  Uiso   1.00
C1109  C     0.79916   0.81202   0.54717   0.00000  Uiso   1.00
C1110  C     0.76802   0.79128   0.97679   0.00000  Uiso   1.00
C1111  C     0.76682   0.79040   0.52305   0.00000  Uiso   1.00
C1112  C     0.89865   0.87538   0.52321   0.00000  Uiso   1.00
C1113  C     0.89985   0.87626   0.97695   0.00000  Uiso   1.00
C1114  C     0.68702   0.79702   0.77178   0.00000  Uiso   1.00
C1115  C     0.97965   0.86964   0.72822   0.00000  Uiso   1.00
C1116  C     0.97806   0.80034   0.77640   0.00000  Uiso   1.00
C1117  C     0.68861   0.86632   0.72361   0.00000  Uiso   1.00
C1118  C     0.95726   0.83545   0.75291   0.00000  Uiso   1.00
Cl1119 Cl    0.90975   0.87417   0.87283   0.00000  Uiso   1.00
Cl1120 Cl    0.75691   0.79250   0.62717   0.00000  Uiso   1.00
Cl1121 Cl    0.75830   0.78971   0.87675   0.00000  Uiso   1.00
Cl1122 Cl    0.90836   0.87696   0.62325   0.00000  Uiso   1.00
Cu1123 Cu    0.83333   0.88022   0.75000   0.00000  Uiso   1.00
Cu1124 Cu    0.83333   0.78645   0.75000   0.00000  Uiso   1.00
H1125  H     0.74290   0.77453   0.95938   0.00000  Uiso   1.00
H1126  H     0.94783   0.92507   0.72887   0.00000  Uiso   1.00
H1127  H     0.93350   0.78353   0.81703   0.00000  Uiso   1.00
H1128  H     0.73317   0.88314   0.68297   0.00000  Uiso   1.00
H1129  H     0.92377   0.89212   0.54062   0.00000  Uiso   1.00
H1130  H     0.78720   0.70945   0.70106   0.00000  Uiso   1.00
H1131  H     0.87947   0.95722   0.79894   0.00000  Uiso   1.00
H1132  H     0.87938   0.71089   0.79905   0.00000  Uiso   1.00
H1133  H     0.78729   0.95577   0.70095   0.00000  Uiso   1.00
H1134  H     0.71474   0.75469   0.52281   0.00000  Uiso   1.00
H1135  H     0.95193   0.91196   0.97719   0.00000  Uiso   1.00
H1136  H     0.71883   0.74160   0.77113   0.00000  Uiso   1.00
N1137  N     0.83333   0.95069   0.75000   0.00000  Uiso   1.00
N1138  N     0.83333   0.71598   0.75000   0.00000  Uiso   1.00
O1139  O     0.77321   0.87291   0.75000   0.00000  Uiso   1.00
O1140  O     0.93222   0.89893   0.95539   0.00000  Uiso   1.00
O1141  O     0.70601   0.76146   0.79409   0.00000  Uiso   1.00
O1142  O     0.96065   0.90520   0.70591   0.00000  Uiso   1.00
O1143  O     0.95821   0.76866   0.80435   0.00000  Uiso   1.00
O1144  O     0.70846   0.89801   0.69565   0.00000  Uiso   1.00
O1145  O     0.89345   0.79375   0.75001   0.00000  Uiso   1.00
O1146  O     0.89345   0.87291   0.75001   0.00000  Uiso   1.00
O1147  O     0.77321   0.79375   0.75000   0.00000  Uiso   1.00
O1148  O     0.83332   0.87293   0.68513   0.00000  Uiso   1.00
O1149  O     0.83334   0.79373   0.81487   0.00000  Uiso   1.00
O1150  O     0.83334   0.87293   0.81487   0.00000  Uiso   1.00
O1151  O     0.83332   0.79373   0.68513   0.00000  Uiso   1.00
O1152  O     0.73445   0.76772   0.54461   0.00000  Uiso   1.00
loop_
_geom_bond_atom_site_label_1
_geom_bond_atom_site_label_2
_geom_bond_distance
_geom_bond_site_symmetry_2
_ccdc_geom_bond_type
C1     O51     1.296   .     A
C1     O59     1.286   .     A
C1     C2      1.454   .     S
C2     C26     1.413   .     A
C2     C29     1.411   .     A
C3     H42     1.082   .     S
C3     N50     1.367   .     A
C3     C390    1.416   1_545 S
C4     N49     1.367   .     A
C4     H43     1.082   .     S
C4     C197    1.416   .     S
C5     H44     1.082   .     S
C5     N50     1.367   .     A
C5     C388    1.416   1_545 S
C6     H45     1.082   .     S
C6     N49     1.367   .     A
C6     C195    1.416   .     S
C7     O63     1.290   .     A
C7     O60     1.290   .     A
C7     C13     1.454   .     S
C8     O61     1.290   .     A
C8     C11     1.454   .     S
C8     O62     1.290   .     A
C9     C11     1.404   .     A
C9     Cl31    1.780   .     S
C9     C20     1.419   .     A
C10    C21     1.419   .     A
C10    Cl32    1.780   .     S
C10    C13     1.404   .     A
C11    C14     1.398   .     A
C12    O58     1.286   .     A
C12    O57     1.296   .     A
C12    C30     1.454   .     S
C13    C15     1.398   .     A
C14    Cl33    1.776   .     S
C14    C16     1.402   .     A
C15    Cl34    1.776   .     S
C15    C17     1.402   .     A
C16    C18     1.415   .     A
C16    C22     1.399   .     A
C17    C24     1.399   .     A
C17    C19     1.415   .     A
C18    C20     1.428   .     A
C18    C595    1.418   .     S
C19    C21     1.428   .     A
C19    C594    1.418   1_554 S
C20    C25     1.418   .     A
C21    C23     1.418   .     A
C22    H37     1.081   .     S
C22    C599    1.397   .     S
C23    O64     1.382   .     S
C23    C598    1.397   1_554 S
C24    H41     1.081   .     S
C24    C601    1.397   1_554 S
C25    O52     1.382   .     S
C25    C600    1.397   .     S
C26    O53     1.375   .     S
C26    C156    1.386   1_455 S
C27    C30     1.413   .     A
C27    O54     1.375   .     S
C27    C93     1.386   .     S
C28    C30     1.411   .     A
C28    O55     1.382   .     S
C28    C90     1.386   .     S
C29    O56     1.382   .     S
C29    C155    1.386   1_455 S
Cu35   N49     2.012   .     S
Cu35   Cu36    2.677   .     S
Cu35   O58     1.970   .     S
Cu35   O62     1.968   .     S
Cu35   O51     1.963   .     S
Cu35   O60     1.970   .     S
Cu36   O63     1.968   .     S
Cu36   O59     1.970   .     S
Cu36   N50     2.012   .     S
Cu36   O57     1.963   .     S
Cu36   O61     1.970   .     S
H38    O54     0.991   .     S
H39    O55     0.990   .     S
H40    O56     0.990   .     S
H46    O64     0.992   .     S
H47    O52     0.992   .     S
H48    O53     0.991   .     S
C65    O115    1.296   .     A
C65    O123    1.286   .     A
C65    C66     1.454   .     S
C66    C90     1.413   .     A
C66    C93     1.411   .     A
C67    H106    1.082   .     S
C67    N114    1.367   .     A
C67    C454    1.416   1_545 S
C68    N113    1.367   .     A
C68    H107    1.082   .     S
C68    C261    1.416   .     S
C69    H108    1.082   .     S
C69    N114    1.367   .     A
C69    C452    1.416   1_545 S
C70    H109    1.082   .     S
C70    N113    1.367   .     A
C70    C259    1.416   .     S
C71    O127    1.290   .     A
C71    O124    1.290   .     A
C71    C77     1.454   .     S
C72    O125    1.290   .     A
C72    C75     1.454   .     S
C72    O126    1.290   .     A
C73    C75     1.404   .     A
C73    Cl95    1.780   .     S
C73    C84     1.419   .     A
C74    C85     1.419   .     A
C74    Cl96    1.780   .     S
C74    C77     1.404   .     A
C75    C78     1.398   .     A
C76    O122    1.286   .     A
C76    O121    1.296   .     A
C76    C94     1.454   .     S
C77    C79     1.398   .     A
C78    Cl97    1.776   .     S
C78    C80     1.402   .     A
C79    Cl98    1.776   .     S
C79    C81     1.402   .     A
C80    C82     1.415   .     A
C80    C86     1.399   .     A
C81    C88     1.399   .     A
C81    C83     1.415   .     A
C82    C84     1.428   .     A
C82    C659    1.418   .     S
C83    C85     1.428   .     A
C83    C658    1.418   1_554 S
C84    C89     1.418   .     A
C85    C87     1.418   .     A
C86    H101    1.081   .     S
C86    C663    1.397   .     S
C87    O128    1.382   .     S
C87    C662    1.397   1_554 S
C88    H105    1.081   .     S
C88    C665    1.397   1_554 S
C89    O116    1.382   .     S
C89    C664    1.397   .     S
C90    O117    1.375   .     S
C91    C94     1.413   .     A
C91    O118    1.375   .     S
C91    C157    1.386   .     S
C92    C94     1.411   .     A
C92    O119    1.382   .     S
C92    C154    1.386   .     S
C93    O120    1.382   .     S
Cu99   N113    2.012   .     S
Cu99   Cu100   2.677   .     S
Cu99   O122    1.970   .     S
Cu99   O126    1.968   .     S
Cu99   O115    1.963   .     S
Cu99   O124    1.970   .     S
Cu100  O127    1.968   .     S
Cu100  O123    1.970   .     S
Cu100  N114    2.012   .     S
Cu100  O121    1.963   .     S
Cu100  O125    1.970   .     S
H102   O118    0.991   .     S
H103   O119    0.990   .     S
H104   O120    0.990   .     S
H110   O128    0.992   .     S
H111   O116    0.992   .     S
H112   O117    0.991   .     S
C129   O179    1.296   .     A
C129   O187    1.286   .     A
C129   C130    1.454   .     S
C130   C154    1.413   .     A
C130   C157    1.411   .     A
C131   H170    1.082   .     S
C131   N178    1.367   .     A
C131   C518    1.416   1_545 S
C132   N177    1.367   .     A
C132   H171    1.082   .     S
C132   C325    1.416   .     S
C133   H172    1.082   .     S
C133   N178    1.367   .     A
C133   C516    1.416   1_545 S
C134   H173    1.082   .     S
C134   N177    1.367   .     A
C134   C323    1.416   .     S
C135   O191    1.290   .     A
C135   O188    1.290   .     A
C135   C141    1.454   .     S
C136   O189    1.290   .     A
C136   C139    1.454   .     S
C136   O190    1.290   .     A
C137   C139    1.404   .     A
C137   Cl159   1.780   .     S
C137   C148    1.419   .     A
C138   C149    1.419   .     A
C138   Cl160   1.780   .     S
C138   C141    1.404   .     A
C139   C142    1.398   .     A
C140   O186    1.286   .     A
C140   O185    1.296   .     A
C140   C158    1.454   .     S
C141   C143    1.398   .     A
C142   Cl161   1.776   .     S
C142   C144    1.402   .     A
C143   Cl162   1.776   .     S
C143   C145    1.402   .     A
C144   C146    1.415   .     A
C144   C150    1.399   .     A
C145   C152    1.399   .     A
C145   C147    1.415   .     A
C146   C148    1.428   .     A
C146   C723    1.418   .     S
C147   C149    1.428   .     A
C147   C722    1.418   1_554 S
C148   C153    1.418   .     A
C149   C151    1.418   .     A
C150   H165    1.081   .     S
C150   C727    1.397   .     S
C151   O192    1.382   .     S
C151   C726    1.397   1_554 S
C152   H169    1.081   .     S
C152   C729    1.397   1_554 S
C153   O180    1.382   .     S
C153   C728    1.397   .     S
C154   O181    1.375   .     S
C155   C158    1.413   .     A
C155   O182    1.375   .     S
C155   C29     1.386   1_655 S
C156   C158    1.411   .     A
C156   O183    1.382   .     S
C156   C26     1.386   1_655 S
C157   O184    1.382   .     S
Cu163  N177    2.012   .     S
Cu163  Cu164   2.677   .     S
Cu163  O186    1.970   .     S
Cu163  O190    1.968   .     S
Cu163  O179    1.963   .     S
Cu163  O188    1.970   .     S
Cu164  O191    1.968   .     S
Cu164  O187    1.970   .     S
Cu164  N178    2.012   .     S
Cu164  O185    1.963   .     S
Cu164  O189    1.970   .     S
H166   O182    0.991   .     S
H167   O183    0.990   .     S
H168   O184    0.990   .     S
H174   O192    0.992   .     S
H175   O180    0.992   .     S
H176   O181    0.991   .     S
C193   O243    1.296   .     A
C193   O251    1.286   .     A
C193   C194    1.454   .     S
C194   C218    1.413   .     A
C194   C221    1.411   .     A
C195   H234    1.082   .     S
C195   N242    1.367   .     A
C196   N241    1.367   .     A
C196   H235    1.082   .     S
C196   C389    1.416   .     S
C197   H236    1.082   .     S
C197   N242    1.367   .     A
C198   H237    1.082   .     S
C198   N241    1.367   .     A
C198   C387    1.416   .     S
C199   O255    1.290   .     A
C199   O252    1.290   .     A
C199   C205    1.454   .     S
C200   O253    1.290   .     A
C200   C203    1.454   .     S
C200   O254    1.290   .     A
C201   C203    1.404   .     A
C201   Cl223   1.780   .     S
C201   C212    1.419   .     A
C202   C213    1.419   .     A
C202   Cl224   1.780   .     S
C202   C205    1.404   .     A
C203   C206    1.398   .     A
C204   O250    1.286   .     A
C204   O249    1.296   .     A
C204   C222    1.454   .     S
C205   C207    1.398   .     A
C206   Cl225   1.776   .     S
C206   C208    1.402   .     A
C207   Cl226   1.776   .     S
C207   C209    1.402   .     A
C208   C210    1.415   .     A
C208   C214    1.399   .     A
C209   C216    1.399   .     A
C209   C211    1.415   .     A
C210   C212    1.428   .     A
C210   C787    1.418   .     S
C211   C213    1.428   .     A
C211   C786    1.418   1_554 S
C212   C217    1.418   .     A
C213   C215    1.418   .     A
C214   H229    1.081   .     S
C214   C791    1.397   .     S
C215   O256    1.382   .     S
C215   C790    1.397   1_554 S
C216   H233    1.081   .     S
C216   C793    1.397   1_554 S
C217   O244    1.382   .     S
C217   C792    1.397   .     S
C218   O245    1.375   .     S
C218   C348    1.386   1_455 S
C219   C222    1.413   .     A
C219   O246    1.375   .     S
C219   C285    1.386   .     S
C220   C222    1.411   .     A
C220   O247    1.382   .     S
C220   C282    1.386   .     S
C221   O248    1.382   .     S
C221   C347    1.386   1_455 S
Cu227  N241    2.012   .     S
Cu227  Cu228   2.677   .     S
Cu227  O250    1.970   .     S
Cu227  O254    1.968   .     S
Cu227  O243    1.963   .     S
Cu227  O252    1.970   .     S
Cu228  O255    1.968   .     S
Cu228  O251    1.970   .     S
Cu228  N242    2.012   .     S
Cu228  O249    1.963   .     S
Cu228  O253    1.970   .     S
H230   O246    0.991   .     S
H231   O247    0.990   .     S
H232   O248    0.990   .     S
H238   O256    0.992   .     S
H239   O244    0.992   .     S
H240   O245    0.991   .     S
C257   O307    1.296   .     A
C257   O315    1.286   .     A
C257   C258    1.454   .     S
C258   C282    1.413   .     A
C258   C285    1.411   .     A
C259   H298    1.082   .     S
C259   N306    1.367   .     A
C260   N305    1.367   .     A
C260   H299    1.082   .     S
C260   C453    1.416   .     S
C261   H300    1.082   .     S
C261   N306    1.367   .     A
C262   H301    1.082   .     S
C262   N305    1.367   .     A
C262   C451    1.416   .     S
C263   O319    1.290   .     A
C263   O316    1.290   .     A
C263   C269    1.454   .     S
C264   O317    1.290   .     A
C264   C267    1.454   .     S
C264   O318    1.290   .     A
C265   C267    1.404   .     A
C265   Cl287   1.780   .     S
C265   C276    1.419   .     A
C266   C277    1.419   .     A
C266   Cl288   1.780   .     S
C266   C269    1.404   .     A
C267   C270    1.398   .     A
C268   O314    1.286   .     A
C268   O313    1.296   .     A
C268   C286    1.454   .     S
C269   C271    1.398   .     A
C270   Cl289   1.776   .     S
C270   C272    1.402   .     A
C271   Cl290   1.776   .     S
C271   C273    1.402   .     A
C272   C274    1.415   .     A
C272   C278    1.399   .     A
C273   C280    1.399   .     A
C273   C275    1.415   .     A
C274   C276    1.428   .     A
C274   C851    1.418   .     S
C275   C277    1.428   .     A
C275   C850    1.418   1_554 S
C276   C281    1.418   .     A
C277   C279    1.418   .     A
C278   H293    1.081   .     S
C278   C855    1.397   .     S
C279   O320    1.382   .     S
C279   C854    1.397   1_554 S
C280   H297    1.081   .     S
C280   C857    1.397   1_554 S
C281   O308    1.382   .     S
C281   C856    1.397   .     S
C282   O309    1.375   .     S
C283   C286    1.413   .     A
C283   O310    1.375   .     S
C283   C349    1.386   .     S
C284   C286    1.411   .     A
C284   O311    1.382   .     S
C284   C346    1.386   .     S
C285   O312    1.382   .     S
Cu291  N305    2.012   .     S
Cu291  Cu292   2.677   .     S
Cu291  O314    1.970   .     S
Cu291  O318    1.968   .     S
Cu291  O307    1.963   .     S
Cu291  O316    1.970   .     S
Cu292  O319    1.968   .     S
Cu292  O315    1.970   .     S
Cu292  N306    2.012   .     S
Cu292  O313    1.963   .     S
Cu292  O317    1.970   .     S
H294   O310    0.991   .     S
H295   O311    0.990   .     S
H296   O312    0.990   .     S
H302   O320    0.992   .     S
H303   O308    0.992   .     S
H304   O309    0.991   .     S
C321   O371    1.296   .     A
C321   O379    1.286   .     A
C321   C322    1.454   .     S
C322   C346    1.413   .     A
C322   C349    1.411   .     A
C323   H362    1.082   .     S
C323   N370    1.367   .     A
C324   N369    1.367   .     A
C324   H363    1.082   .     S
C324   C517    1.416   .     S
C325   H364    1.082   .     S
C325   N370    1.367   .     A
C326   H365    1.082   .     S
C326   N369    1.367   .     A
C326   C515    1.416   .     S
C327   O383    1.290   .     A
C327   O380    1.290   .     A
C327   C333    1.454   .     S
C328   O381    1.290   .     A
C328   C331    1.454   .     S
C328   O382    1.290   .     A
C329   C331    1.404   .     A
C329   Cl351   1.780   .     S
C329   C340    1.419   .     A
C330   C341    1.419   .     A
C330   Cl352   1.780   .     S
C330   C333    1.404   .     A
C331   C334    1.398   .     A
C332   O378    1.286   .     A
C332   O377    1.296   .     A
C332   C350    1.454   .     S
C333   C335    1.398   .     A
C334   Cl353   1.776   .     S
C334   C336    1.402   .     A
C335   Cl354   1.776   .     S
C335   C337    1.402   .     A
C336   C338    1.415   .     A
C336   C342    1.399   .     A
C337   C344    1.399   .     A
C337   C339    1.415   .     A
C338   C340    1.428   .     A
C338   C915    1.418   .     S
C339   C341    1.428   .     A
C339   C914    1.418   1_554 S
C340   C345    1.418   .     A
C341   C343    1.418   .     A
C342   H357    1.081   .     S
C342   C919    1.397   .     S
C343   O384    1.382   .     S
C343   C918    1.397   1_554 S
C344   H361    1.081   .     S
C344   C921    1.397   1_554 S
C345   O372    1.382   .     S
C345   C920    1.397   .     S
C346   O373    1.375   .     S
C347   C350    1.413   .     A
C347   O374    1.375   .     S
C347   C221    1.386   1_655 S
C348   C350    1.411   .     A
C348   O375    1.382   .     S
C348   C218    1.386   1_655 S
C349   O376    1.382   .     S
Cu355  N369    2.012   .     S
Cu355  Cu356   2.677   .     S
Cu355  O378    1.970   .     S
Cu355  O382    1.968   .     S
Cu355  O371    1.963   .     S
Cu355  O380    1.970   .     S
Cu356  O383    1.968   .     S
Cu356  O379    1.970   .     S
Cu356  N370    2.012   .     S
Cu356  O377    1.963   .     S
Cu356  O381    1.970   .     S
H358   O374    0.991   .     S
H359   O375    0.990   .     S
H360   O376    0.990   .     S
H366   O384    0.992   .     S
H367   O372    0.992   .     S
H368   O373    0.991   .     S
C385   O435    1.296   .     A
C385   O443    1.286   .     A
C385   C386    1.454   .     S
C386   C410    1.413   .     A
C386   C413    1.411   .     A
C387   H426    1.082   .     S
C387   N434    1.367   .     A
C388   N433    1.367   .     A
C388   H427    1.082   .     S
C388   C5      1.416   1_565 S
C389   H428    1.082   .     S
C389   N434    1.367   .     A
C390   H429    1.082   .     S
C390   N433    1.367   .     A
C390   C3      1.416   1_565 S
C391   O447    1.290   .     A
C391   O444    1.290   .     A
C391   C397    1.454   .     S
C392   O445    1.290   .     A
C392   C395    1.454   .     S
C392   O446    1.290   .     A
C393   C395    1.404   .     A
C393   Cl415   1.780   .     S
C393   C404    1.419   .     A
C394   C405    1.419   .     A
C394   Cl416   1.780   .     S
C394   C397    1.404   .     A
C395   C398    1.398   .     A
C396   O442    1.286   .     A
C396   O441    1.296   .     A
C396   C414    1.454   .     S
C397   C399    1.398   .     A
C398   Cl417   1.776   .     S
C398   C400    1.402   .     A
C399   Cl418   1.776   .     S
C399   C401    1.402   .     A
C400   C402    1.415   .     A
C400   C406    1.399   .     A
C401   C408    1.399   .     A
C401   C403    1.415   .     A
C402   C404    1.428   .     A
C402   C979    1.418   .     S
C403   C405    1.428   .     A
C403   C978    1.418   1_554 S
C404   C409    1.418   .     A
C405   C407    1.418   .     A
C406   H421    1.081   .     S
C406   C983    1.397   .     S
C407   O448    1.382   .     S
C407   C982    1.397   1_554 S
C408   H425    1.081   .     S
C408   C985    1.397   1_554 S
C409   O436    1.382   .     S
C409   C984    1.397   .     S
C410   O437    1.375   .     S
C410   C540    1.386   1_455 S
C411   C414    1.413   .     A
C411   O438    1.375   .     S
C411   C477    1.386   .     S
C412   C414    1.411   .     A
C412   O439    1.382   .     S
C412   C474    1.386   .     S
C413   O440    1.382   .     S
C413   C539    1.386   1_455 S
Cu419  N433    2.012   .     S
Cu419  Cu420   2.677   .     S
Cu419  O442    1.970   .     S
Cu419  O446    1.968   .     S
Cu419  O435    1.963   .     S
Cu419  O444    1.970   .     S
Cu420  O447    1.968   .     S
Cu420  O443    1.970   .     S
Cu420  N434    2.012   .     S
Cu420  O441    1.963   .     S
Cu420  O445    1.970   .     S
H422   O438    0.991   .     S
H423   O439    0.990   .     S
H424   O440    0.990   .     S
H430   O448    0.992   .     S
H431   O436    0.992   .     S
H432   O437    0.991   .     S
C449   O499    1.296   .     A
C449   O507    1.286   .     A
C449   C450    1.454   .     S
C450   C474    1.413   .     A
C450   C477    1.411   .     A
C451   H490    1.082   .     S
C451   N498    1.367   .     A
C452   N497    1.367   .     A
C452   H491    1.082   .     S
C452   C69     1.416   1_565 S
C453   H492    1.082   .     S
C453   N498    1.367   .     A
C454   H493    1.082   .     S
C454   N497    1.367   .     A
C454   C67     1.416   1_565 S
C455   O511    1.290   .     A
C455   O508    1.290   .     A
C455   C461    1.454   .     S
C456   O509    1.290   .     A
C456   C459    1.454   .     S
C456   O510    1.290   .     A
C457   C459    1.404   .     A
C457   Cl479   1.780   .     S
C457   C468    1.419   .     A
C458   C469    1.419   .     A
C458   Cl480   1.780   .     S
C458   C461    1.404   .     A
C459   C462    1.398   .     A
C460   O506    1.286   .     A
C460   O505    1.296   .     A
C460   C478    1.454   .     S
C461   C463    1.398   .     A
C462   Cl481   1.776   .     S
C462   C464    1.402   .     A
C463   Cl482   1.776   .     S
C463   C465    1.402   .     A
C464   C466    1.415   .     A
C464   C470    1.399   .     A
C465   C472    1.399   .     A
C465   C467    1.415   .     A
C466   C468    1.428   .     A
C466   C1043   1.418   .     S
C467   C469    1.428   .     A
C467   C1042   1.418   1_554 S
C468   C473    1.418   .     A
C469   C471    1.418   .     A
C470   H485    1.081   .     S
C470   C1047   1.397   .     S
C471   O512    1.382   .     S
C471   C1046   1.397   1_554 S
C472   H489    1.081   .     S
C472   C1049   1.397   1_554 S
C473   O500    1.382   .     S
C473   C1048   1.397   .     S
C474   O501    1.375   .     S
C475   C478    1.413   .     A
C475   O502    1.375   .     S
C475   C541    1.386   .     S
C476   C478    1.411   .     A
C476   O503    1.382   .     S
C476   C538    1.386   .     S
C477   O504    1.382   .     S
Cu483  N497    2.012   .     S
Cu483  Cu484   2.677   .     S
Cu483  O506    1.970   .     S
Cu483  O510    1.968   .     S
Cu483  O499    1.963   .     S
Cu483  O508    1.970   .     S
Cu484  O511    1.968   .     S
Cu484  O507    1.970   .     S
Cu484  N498    2.012   .     S
Cu484  O505    1.963   .     S
Cu484  O509    1.970   .     S
H486   O502    0.991   .     S
H487   O503    0.990   .     S
H488   O504    0.990   .     S
H494   O512    0.992   .     S
H495   O500    0.992   .     S
H496   O501    0.991   .     S
C513   O563    1.296   .     A
C513   O571    1.286   .     A
C513   C514    1.454   .     S
C514   C538    1.413   .     A
C514   C541    1.411   .     A
C515   H554    1.082   .     S
C515   N562    1.367   .     A
C516   N561    1.367   .     A
C516   H555    1.082   .     S
C516   C133    1.416   1_565 S
C517   H556    1.082   .     S
C517   N562    1.367   .     A
C518   H557    1.082   .     S
C518   N561    1.367   .     A
C518   C131    1.416   1_565 S
C519   O575    1.290   .     A
C519   O572    1.290   .     A
C519   C525    1.454   .     S
C520   O573    1.290   .     A
C520   C523    1.454   .     S
C520   O574    1.290   .     A
C521   C523    1.404   .     A
C521   Cl543   1.780   .     S
C521   C532    1.419   .     A
C522   C533    1.419   .     A
C522   Cl544   1.780   .     S
C522   C525    1.404   .     A
C523   C526    1.398   .     A
C524   O570    1.286   .     A
C524   O569    1.296   .     A
C524   C542    1.454   .     S
C525   C527    1.398   .     A
C526   Cl545   1.776   .     S
C526   C528    1.402   .     A
C527   Cl546   1.776   .     S
C527   C529    1.402   .     A
C528   C530    1.415   .     A
C528   C534    1.399   .     A
C529   C536    1.399   .     A
C529   C531    1.415   .     A
C530   C532    1.428   .     A
C530   C1107   1.418   .     S
C531   C533    1.428   .     A
C531   C1106   1.418   1_554 S
C532   C537    1.418   .     A
C533   C535    1.418   .     A
C534   H549    1.081   .     S
C534   C1111   1.397   .     S
C535   O576    1.382   .     S
C535   C1110   1.397   1_554 S
C536   H553    1.081   .     S
C536   C1113   1.397   1_554 S
C537   O564    1.382   .     S
C537   C1112   1.397   .     S
C538   O565    1.375   .     S
C539   C542    1.413   .     A
C539   O566    1.375   .     S
C539   C413    1.386   1_655 S
C540   C542    1.411   .     A
C540   O567    1.382   .     S
C540   C410    1.386   1_655 S
C541   O568    1.382   .     S
Cu547  N561    2.012   .     S
Cu547  Cu548   2.677   .     S
Cu547  O570    1.970   .     S
Cu547  O574    1.968   .     S
Cu547  O563    1.963   .     S
Cu547  O572    1.970   .     S
Cu548  O575    1.968   .     S
Cu548  O571    1.970   .     S
Cu548  N562    2.012   .     S
Cu548  O569    1.963   .     S
Cu548  O573    1.970   .     S
H550   O566    0.991   .     S
H551   O567    0.990   .     S
H552   O568    0.990   .     S
H558   O576    0.992   .     S
H559   O564    0.992   .     S
H560   O565    0.991   .     S
C577   O627    1.296   .     A
C577   O635    1.286   .     A
C577   C578    1.454   .     S
C578   C602    1.413   .     A
C578   C605    1.411   .     A
C579   H618    1.082   .     S
C579   N626    1.367   .     A
C579   C966    1.416   1_545 S
C580   N625    1.367   .     A
C580   H619    1.082   .     S
C580   C773    1.416   .     S
C581   H620    1.082   .     S
C581   N626    1.367   .     A
C581   C964    1.416   1_545 S
C582   H621    1.082   .     S
C582   N625    1.367   .     A
C582   C771    1.416   .     S
C583   O639    1.290   .     A
C583   O636    1.290   .     A
C583   C589    1.454   .     S
C584   O637    1.290   .     A
C584   C587    1.454   .     S
C584   O638    1.290   .     A
C585   C587    1.404   .     A
C585   Cl607   1.780   .     S
C585   C596    1.419   .     A
C586   C597    1.419   .     A
C586   Cl608   1.780   .     S
C586   C589    1.404   .     A
C587   C590    1.398   .     A
C588   O634    1.286   .     A
C588   O633    1.296   .     A
C588   C606    1.454   .     S
C589   C591    1.398   .     A
C590   Cl609   1.776   .     S
C590   C592    1.402   .     A
C591   Cl610   1.776   .     S
C591   C593    1.402   .     A
C592   C594    1.415   .     A
C592   C598    1.399   .     A
C593   C600    1.399   .     A
C593   C595    1.415   .     A
C594   C596    1.428   .     A
C594   C19     1.418   1_556 S
C595   C597    1.428   .     A
C596   C601    1.418   .     A
C597   C599    1.418   .     A
C598   H613    1.081   .     S
C598   C23     1.397   1_556 S
C599   O640    1.382   .     S
C600   H617    1.081   .     S
C601   O628    1.382   .     S
C601   C24     1.397   1_556 S
C602   O629    1.375   .     S
C602   C732    1.386   1_455 S
C603   C606    1.413   .     A
C603   O630    1.375   .     S
C603   C669    1.386   .     S
C604   C606    1.411   .     A
C604   O631    1.382   .     S
C604   C666    1.386   .     S
C605   O632    1.382   .     S
C605   C731    1.386   1_455 S
Cu611  N625    2.012   .     S
Cu611  Cu612   2.677   .     S
Cu611  O634    1.970   .     S
Cu611  O638    1.968   .     S
Cu611  O627    1.963   .     S
Cu611  O636    1.970   .     S
Cu612  O639    1.968   .     S
Cu612  O635    1.970   .     S
Cu612  N626    2.012   .     S
Cu612  O633    1.963   .     S
Cu612  O637    1.970   .     S
H614   O630    0.991   .     S
H615   O631    0.990   .     S
H616   O632    0.990   .     S
H622   O640    0.992   .     S
H623   O628    0.992   .     S
H624   O629    0.991   .     S
C641   O691    1.296   .     A
C641   O699    1.286   .     A
C641   C642    1.454   .     S
C642   C666    1.413   .     A
C642   C669    1.411   .     A
C643   H682    1.082   .     S
C643   N690    1.367   .     A
C643   C1030   1.416   1_545 S
C644   N689    1.367   .     A
C644   H683    1.082   .     S
C644   C837    1.416   .     S
C645   H684    1.082   .     S
C645   N690    1.367   .     A
C645   C1028   1.416   1_545 S
C646   H685    1.082   .     S
C646   N689    1.367   .     A
C646   C835    1.416   .     S
C647   O703    1.290   .     A
C647   O700    1.290   .     A
C647   C653    1.454   .     S
C648   O701    1.290   .     A
C648   C651    1.454   .     S
C648   O702    1.290   .     A
C649   C651    1.404   .     A
C649   Cl671   1.780   .     S
C649   C660    1.419   .     A
C650   C661    1.419   .     A
C650   Cl672   1.780   .     S
C650   C653    1.404   .     A
C651   C654    1.398   .     A
C652   O698    1.286   .     A
C652   O697    1.296   .     A
C652   C670    1.454   .     S
C653   C655    1.398   .     A
C654   Cl673   1.776   .     S
C654   C656    1.402   .     A
C655   Cl674   1.776   .     S
C655   C657    1.402   .     A
C656   C658    1.415   .     A
C656   C662    1.399   .     A
C657   C664    1.399   .     A
C657   C659    1.415   .     A
C658   C660    1.428   .     A
C658   C83     1.418   1_556 S
C659   C661    1.428   .     A
C660   C665    1.418   .     A
C661   C663    1.418   .     A
C662   H677    1.081   .     S
C662   C87     1.397   1_556 S
C663   O704    1.382   .     S
C664   H681    1.081   .     S
C665   O692    1.382   .     S
C665   C88     1.397   1_556 S
C666   O693    1.375   .     S
C667   C670    1.413   .     A
C667   O694    1.375   .     S
C667   C733    1.386   .     S
C668   C670    1.411   .     A
C668   O695    1.382   .     S
C668   C730    1.386   .     S
C669   O696    1.382   .     S
Cu675  N689    2.012   .     S
Cu675  Cu676   2.677   .     S
Cu675  O698    1.970   .     S
Cu675  O702    1.968   .     S
Cu675  O691    1.963   .     S
Cu675  O700    1.970   .     S
Cu676  O703    1.968   .     S
Cu676  O699    1.970   .     S
Cu676  N690    2.012   .     S
Cu676  O697    1.963   .     S
Cu676  O701    1.970   .     S
H678   O694    0.991   .     S
H679   O695    0.990   .     S
H680   O696    0.990   .     S
H686   O704    0.992   .     S
H687   O692    0.992   .     S
H688   O693    0.991   .     S
C705   O755    1.296   .     A
C705   O763    1.286   .     A
C705   C706    1.454   .     S
C706   C730    1.413   .     A
C706   C733    1.411   .     A
C707   H746    1.082   .     S
C707   N754    1.367   .     A
C707   C1094   1.416   1_545 S
C708   N753    1.367   .     A
C708   H747    1.082   .     S
C708   C901    1.416   .     S
C709   H748    1.082   .     S
C709   N754    1.367   .     A
C709   C1092   1.416   1_545 S
C710   H749    1.082   .     S
C710   N753    1.367   .     A
C710   C899    1.416   .     S
C711   O767    1.290   .     A
C711   O764    1.290   .     A
C711   C717    1.454   .     S
C712   O765    1.290   .     A
C712   C715    1.454   .     S
C712   O766    1.290   .     A
C713   C715    1.404   .     A
C713   Cl735   1.780   .     S
C713   C724    1.419   .     A
C714   C725    1.419   .     A
C714   Cl736   1.780   .     S
C714   C717    1.404   .     A
C715   C718    1.398   .     A
C716   O762    1.286   .     A
C716   O761    1.296   .     A
C716   C734    1.454   .     S
C717   C719    1.398   .     A
C718   Cl737   1.776   .     S
C718   C720    1.402   .     A
C719   Cl738   1.776   .     S
C719   C721    1.402   .     A
C720   C722    1.415   .     A
C720   C726    1.399   .     A
C721   C728    1.399   .     A
C721   C723    1.415   .     A
C722   C724    1.428   .     A
C722   C147    1.418   1_556 S
C723   C725    1.428   .     A
C724   C729    1.418   .     A
C725   C727    1.418   .     A
C726   H741    1.081   .     S
C726   C151    1.397   1_556 S
C727   O768    1.382   .     S
C728   H745    1.081   .     S
C729   O756    1.382   .     S
C729   C152    1.397   1_556 S
C730   O757    1.375   .     S
C731   C734    1.413   .     A
C731   O758    1.375   .     S
C731   C605    1.386   1_655 S
C732   C734    1.411   .     A
C732   O759    1.382   .     S
C732   C602    1.386   1_655 S
C733   O760    1.382   .     S
Cu739  N753    2.012   .     S
Cu739  Cu740   2.677   .     S
Cu739  O762    1.970   .     S
Cu739  O766    1.968   .     S
Cu739  O755    1.963   .     S
Cu739  O764    1.970   .     S
Cu740  O767    1.968   .     S
Cu740  O763    1.970   .     S
Cu740  N754    2.012   .     S
Cu740  O761    1.963   .     S
Cu740  O765    1.970   .     S
H742   O758    0.991   .     S
H743   O759    0.990   .     S
H744   O760    0.990   .     S
H750   O768    0.992   .     S
H751   O756    0.992   .     S
H752   O757    0.991   .     S
C769   O819    1.296   .     A
C769   O827    1.286   .     A
C769   C770    1.454   .     S
C770   C794    1.413   .     A
C770   C797    1.411   .     A
C771   H810    1.082   .     S
C771   N818    1.367   .     A
C772   N817    1.367   .     A
C772   H811    1.082   .     S
C772   C965    1.416   .     S
C773   H812    1.082   .     S
C773   N818    1.367   .     A
C774   H813    1.082   .     S
C774   N817    1.367   .     A
C774   C963    1.416   .     S
C775   O831    1.290   .     A
C775   O828    1.290   .     A
C775   C781    1.454   .     S
C776   O829    1.290   .     A
C776   C779    1.454   .     S
C776   O830    1.290   .     A
C777   C779    1.404   .     A
C777   Cl799   1.780   .     S
C777   C788    1.419   .     A
C778   C789    1.419   .     A
C778   Cl800   1.780   .     S
C778   C781    1.404   .     A
C779   C782    1.398   .     A
C780   O826    1.286   .     A
C780   O825    1.296   .     A
C780   C798    1.454   .     S
C781   C783    1.398   .     A
C782   Cl801   1.776   .     S
C782   C784    1.402   .     A
C783   Cl802   1.776   .     S
C783   C785    1.402   .     A
C784   C786    1.415   .     A
C784   C790    1.399   .     A
C785   C792    1.399   .     A
C785   C787    1.415   .     A
C786   C788    1.428   .     A
C786   C211    1.418   1_556 S
C787   C789    1.428   .     A
C788   C793    1.418   .     A
C789   C791    1.418   .     A
C790   H805    1.081   .     S
C790   C215    1.397   1_556 S
C791   O832    1.382   .     S
C792   H809    1.081   .     S
C793   O820    1.382   .     S
C793   C216    1.397   1_556 S
C794   O821    1.375   .     S
C794   C924    1.386   1_455 S
C795   C798    1.413   .     A
C795   O822    1.375   .     S
C795   C861    1.386   .     S
C796   C798    1.411   .     A
C796   O823    1.382   .     S
C796   C858    1.386   .     S
C797   O824    1.382   .     S
C797   C923    1.386   1_455 S
Cu803  N817    2.012   .     S
Cu803  Cu804   2.677   .     S
Cu803  O826    1.970   .     S
Cu803  O830    1.968   .     S
Cu803  O819    1.963   .     S
Cu803  O828    1.970   .     S
Cu804  O831    1.968   .     S
Cu804  O827    1.970   .     S
Cu804  N818    2.012   .     S
Cu804  O825    1.963   .     S
Cu804  O829    1.970   .     S
H806   O822    0.991   .     S
H807   O823    0.990   .     S
H808   O824    0.990   .     S
H814   O832    0.992   .     S
H815   O820    0.992   .     S
H816   O821    0.991   .     S
C833   O883    1.296   .     A
C833   O891    1.286   .     A
C833   C834    1.454   .     S
C834   C858    1.413   .     A
C834   C861    1.411   .     A
C835   H874    1.082   .     S
C835   N882    1.367   .     A
C836   N881    1.367   .     A
C836   H875    1.082   .     S
C836   C1029   1.416   .     S
C837   H876    1.082   .     S
C837   N882    1.367   .     A
C838   H877    1.082   .     S
C838   N881    1.367   .     A
C838   C1027   1.416   .     S
C839   O895    1.290   .     A
C839   O892    1.290   .     A
C839   C845    1.454   .     S
C840   O893    1.290   .     A
C840   C843    1.454   .     S
C840   O894    1.290   .     A
C841   C843    1.404   .     A
C841   Cl863   1.780   .     S
C841   C852    1.419   .     A
C842   C853    1.419   .     A
C842   Cl864   1.780   .     S
C842   C845    1.404   .     A
C843   C846    1.398   .     A
C844   O890    1.286   .     A
C844   O889    1.296   .     A
C844   C862    1.454   .     S
C845   C847    1.398   .     A
C846   Cl865   1.776   .     S
C846   C848    1.402   .     A
C847   Cl866   1.776   .     S
C847   C849    1.402   .     A
C848   C850    1.415   .     A
C848   C854    1.399   .     A
C849   C856    1.399   .     A
C849   C851    1.415   .     A
C850   C852    1.428   .     A
C850   C275    1.418   1_556 S
C851   C853    1.428   .     A
C852   C857    1.418   .     A
C853   C855    1.418   .     A
C854   H869    1.081   .     S
C854   C279    1.397   1_556 S
C855   O896    1.382   .     S
C856   H873    1.081   .     S
C857   O884    1.382   .     S
C857   C280    1.397   1_556 S
C858   O885    1.375   .     S
C859   C862    1.413   .     A
C859   O886    1.375   .     S
C859   C925    1.386   .     S
C860   C862    1.411   .     A
C860   O887    1.382   .     S
C860   C922    1.386   .     S
C861   O888    1.382   .     S
Cu867  N881    2.012   .     S
Cu867  Cu868   2.677   .     S
Cu867  O890    1.970   .     S
Cu867  O894    1.968   .     S
Cu867  O883    1.963   .     S
Cu867  O892    1.970   .     S
Cu868  O895    1.968   .     S
Cu868  O891    1.970   .     S
Cu868  N882    2.012   .     S
Cu868  O889    1.963   .     S
Cu868  O893    1.970   .     S
H870   O886    0.991   .     S
H871   O887    0.990   .     S
H872   O888    0.990   .     S
H878   O896    0.992   .     S
H879   O884    0.992   .     S
H880   O885    0.991   .     S
C897   O947    1.296   .     A
C897   O955    1.286   .     A
C897   C898    1.454   .     S
C898   C922    1.413   .     A
C898   C925    1.411   .     A
C899   H938    1.082   .     S
C899   N946    1.367   .     A
C900   N945    1.367   .     A
C900   H939    1.082   .     S
C900   C1093   1.416   .     S
C901   H940    1.082   .     S
C901   N946    1.367   .     A
C902   H941    1.082   .     S
C902   N945    1.367   .     A
C902   C1091   1.416   .     S
C903   O959    1.290   .     A
C903   O956    1.290   .     A
C903   C909    1.454   .     S
C904   O957    1.290   .     A
C904   C907    1.454   .     S
C904   O958    1.290   .     A
C905   C907    1.404   .     A
C905   Cl927   1.780   .     S
C905   C916    1.419   .     A
C906   C917    1.419   .     A
C906   Cl928   1.780   .     S
C906   C909    1.404   .     A
C907   C910    1.398   .     A
C908   O954    1.286   .     A
C908   O953    1.296   .     A
C908   C926    1.454   .     S
C909   C911    1.398   .     A
C910   Cl929   1.776   .     S
C910   C912    1.402   .     A
C911   Cl930   1.776   .     S
C911   C913    1.402   .     A
C912   C914    1.415   .     A
C912   C918    1.399   .     A
C913   C920    1.399   .     A
C913   C915    1.415   .     A
C914   C916    1.428   .     A
C914   C339    1.418   1_556 S
C915   C917    1.428   .     A
C916   C921    1.418   .     A
C917   C919    1.418   .     A
C918   H933    1.081   .     S
C918   C343    1.397   1_556 S
C919   O960    1.382   .     S
C920   H937    1.081   .     S
C921   O948    1.382   .     S
C921   C344    1.397   1_556 S
C922   O949    1.375   .     S
C923   C926    1.413   .     A
C923   O950    1.375   .     S
C923   C797    1.386   1_655 S
C924   C926    1.411   .     A
C924   O951    1.382   .     S
C924   C794    1.386   1_655 S
C925   O952    1.382   .     S
Cu931  N945    2.012   .     S
Cu931  Cu932   2.677   .     S
Cu931  O954    1.970   .     S
Cu931  O958    1.968   .     S
Cu931  O947    1.963   .     S
Cu931  O956    1.970   .     S
Cu932  O959    1.968   .     S
Cu932  O955    1.970   .     S
Cu932  N946    2.012   .     S
Cu932  O953    1.963   .     S
Cu932  O957    1.970   .     S
H934   O950    0.991   .     S
H935   O951    0.990   .     S
H936   O952    0.990   .     S
H942   O960    0.992   .     S
H943   O948    0.992   .     S
H944   O949    0.991   .     S
C961   O1011   1.296   .     A
C961   O1019   1.286   .     A
C961   C962    1.454   .     S
C962   C986    1.413   .     A
C962   C989    1.411   .     A
C963   H1002   1.082   .     S
C963   N1010   1.367   .     A
C964   N1009   1.367   .     A
C964   H1003   1.082   .     S
C964   C581    1.416   1_565 S
C965   H1004   1.082   .     S
C965   N1010   1.367   .     A
C966   H1005   1.082   .     S
C966   N1009   1.367   .     A
C966   C579    1.416   1_565 S
C967   O1023   1.290   .     A
C967   O1020   1.290   .     A
C967   C973    1.454   .     S
C968   O1021   1.290   .     A
C968   C971    1.454   .     S
C968   O1022   1.290   .     A
C969   C971    1.404   .     A
C969   Cl991   1.780   .     S
C969   C980    1.419   .     A
C970   C981    1.419   .     A
C970   Cl992   1.780   .     S
C970   C973    1.404   .     A
C971   C974    1.398   .     A
C972   O1018   1.286   .     A
C972   O1017   1.296   .     A
C972   C990    1.454   .     S
C973   C975    1.398   .     A
C974   Cl993   1.776   .     S
C974   C976    1.402   .     A
C975   Cl994   1.776   .     S
C975   C977    1.402   .     A
C976   C978    1.415   .     A
C976   C982    1.399   .     A
C977   C984    1.399   .     A
C977   C979    1.415   .     A
C978   C980    1.428   .     A
C978   C403    1.418   1_556 S
C979   C981    1.428   .     A
C980   C985    1.418   .     A
C981   C983    1.418   .     A
C982   H997    1.081   .     S
C982   C407    1.397   1_556 S
C983   O1024   1.382   .     S
C984   H1001   1.081   .     S
C985   O1012   1.382   .     S
C985   C408    1.397   1_556 S
C986   O1013   1.375   .     S
C986   C1116   1.386   1_455 S
C987   C990    1.413   .     A
C987   O1014   1.375   .     S
C987   C1053   1.386   .     S
C988   C990    1.411   .     A
C988   O1015   1.382   .     S
C988   C1050   1.386   .     S
C989   O1016   1.382   .     S
C989   C1115   1.386   1_455 S
Cu995  N1009   2.012   .     S
Cu995  Cu996   2.677   .     S
Cu995  O1018   1.970   .     S
Cu995  O1022   1.968   .     S
Cu995  O1011   1.963   .     S
Cu995  O1020   1.970   .     S
Cu996  O1023   1.968   .     S
Cu996  O1019   1.970   .     S
Cu996  N1010   2.012   .     S
Cu996  O1017   1.963   .     S
Cu996  O1021   1.970   .     S
H998   O1014   0.991   .     S
H999   O1015   0.990   .     S
H1000  O1016   0.990   .     S
H1006  O1024   0.992   .     S
H1007  O1012   0.992   .     S
H1008  O1013   0.991   .     S
C1025  O1075   1.296   .     A
C1025  O1083   1.286   .     A
C1025  C1026   1.454   .     S
C1026  C1050   1.413   .     A
C1026  C1053   1.411   .     A
C1027  H1066   1.082   .     S
C1027  N1074   1.367   .     A
C1028  N1073   1.367   .     A
C1028  H1067   1.082   .     S
C1028  C645    1.416   1_565 S
C1029  H1068   1.082   .     S
C1029  N1074   1.367   .     A
C1030  H1069   1.082   .     S
C1030  N1073   1.367   .     A
C1030  C643    1.416   1_565 S
C1031  O1087   1.290   .     A
C1031  O1084   1.290   .     A
C1031  C1037   1.454   .     S
C1032  O1085   1.290   .     A
C1032  C1035   1.454   .     S
C1032  O1086   1.290   .     A
C1033  C1035   1.404   .     A
C1033  Cl1055  1.780   .     S
C1033  C1044   1.419   .     A
C1034  C1045   1.419   .     A
C1034  Cl1056  1.780   .     S
C1034  C1037   1.404   .     A
C1035  C1038   1.398   .     A
C1036  O1082   1.286   .     A
C1036  O1081   1.296   .     A
C1036  C1054   1.454   .     S
C1037  C1039   1.398   .     A
C1038  Cl1057  1.776   .     S
C1038  C1040   1.402   .     A
C1039  Cl1058  1.776   .     S
C1039  C1041   1.402   .     A
C1040  C1042   1.415   .     A
C1040  C1046   1.399   .     A
C1041  C1048   1.399   .     A
C1041  C1043   1.415   .     A
C1042  C1044   1.428   .     A
C1042  C467    1.418   1_556 S
C1043  C1045   1.428   .     A
C1044  C1049   1.418   .     A
C1045  C1047   1.418   .     A
C1046  H1061   1.081   .     S
C1046  C471    1.397   1_556 S
C1047  O1088   1.382   .     S
C1048  H1065   1.081   .     S
C1049  O1076   1.382   .     S
C1049  C472    1.397   1_556 S
C1050  O1077   1.375   .     S
C1051  C1054   1.413   .     A
C1051  O1078   1.375   .     S
C1051  C1117   1.386   .     S
C1052  C1054   1.411   .     A
C1052  O1079   1.382   .     S
C1052  C1114   1.386   .     S
C1053  O1080   1.382   .     S
Cu1059 N1073   2.012   .     S
Cu1059 Cu1060  2.677   .     S
Cu1059 O1082   1.970   .     S
Cu1059 O1086   1.968   .     S
Cu1059 O1075   1.963   .     S
Cu1059 O1084   1.970   .     S
Cu1060 O1087   1.968   .     S
Cu1060 O1083   1.970   .     S
Cu1060 N1074   2.012   .     S
Cu1060 O1081   1.963   .     S
Cu1060 O1085   1.970   .     S
H1062  O1078   0.991   .     S
H1063  O1079   0.990   .     S
H1064  O1080   0.990   .     S
H1070  O1088   0.992   .     S
H1071  O1076   0.992   .     S
H1072  O1077   0.991   .     S
C1089  O1139   1.296   .     A
C1089  O1147   1.286   .     A
C1089  C1090   1.454   .     S
C1090  C1114   1.413   .     A
C1090  C1117   1.411   .     A
C1091  H1130   1.082   .     S
C1091  N1138   1.367   .     A
C1092  N1137   1.367   .     A
C1092  H1131   1.082   .     S
C1092  C709    1.416   1_565 S
C1093  H1132   1.082   .     S
C1093  N1138   1.367   .     A
C1094  H1133   1.082   .     S
C1094  N1137   1.367   .     A
C1094  C707    1.416   1_565 S
C1095  O1151   1.290   .     A
C1095  O1148   1.290   .     A
C1095  C1101   1.454   .     S
C1096  O1149   1.290   .     A
C1096  C1099   1.454   .     S
C1096  O1150   1.290   .     A
C1097  C1099   1.404   .     A
C1097  Cl1119  1.780   .     S
C1097  C1108   1.419   .     A
C1098  C1109   1.419   .     A
C1098  Cl1120  1.780   .     S
C1098  C1101   1.404   .     A
C1099  C1102   1.398   .     A
C1100  O1146   1.286   .     A
C1100  O1145   1.296   .     A
C1100  C1118   1.454   .     S
C1101  C1103   1.398   .     A
C1102  Cl1121  1.776   .     S
C1102  C1104   1.402   .     A
C1103  Cl1122  1.776   .     S
C1103  C1105   1.402   .     A
C1104  C1106   1.415   .     A
C1104  C1110   1.399   .     A
C1105  C1112   1.399   .     A
C1105  C1107   1.415   .     A
C1106  C1108   1.428   .     A
C1106  C531    1.418   1_556 S
C1107  C1109   1.428   .     A
C1108  C1113   1.418   .     A
C1109  C1111   1.418   .     A
C1110  H1125   1.081   .     S
C1110  C535    1.397   1_556 S
C1111  O1152   1.382   .     S
C1112  H1129   1.081   .     S
C1113  O1140   1.382   .     S
C1113  C536    1.397   1_556 S
C1114  O1141   1.375   .     S
C1115  C1118   1.413   .     A
C1115  O1142   1.375   .     S
C1115  C989    1.386   1_655 S
C1116  C1118   1.411   .     A
C1116  O1143   1.382   .     S
C1116  C986    1.386   1_655 S
C1117  O1144   1.382   .     S
Cu1123 N1137   2.012   .     S
Cu1123 Cu1124  2.677   .     S
Cu1123 O1146   1.970   .     S
Cu1123 O1150   1.968   .     S
Cu1123 O1139   1.963   .     S
Cu1123 O1148   1.970   .     S
Cu1124 O1151   1.968   .     S
Cu1124 O1147   1.970   .     S
Cu1124 N1138   2.012   .     S
Cu1124 O1145   1.963   .     S
Cu1124 O1149   1.970   .     S
H1126  O1142   0.991   .     S
H1127  O1143   0.990   .     S
H1128  O1144   0.990   .     S
H1134  O1152   0.992   .     S
H1135  O1140   0.992   .     S
H1136  O1141   0.991   .     S
