data_str_m2_o1_o16_pcu_sym.216
_audit_creation_date              2020-01-03
_audit_creation_method            'Materials Studio'
_symmetry_space_group_name_H-M    'P1'
_symmetry_Int_Tables_number       1
_symmetry_cell_setting            triclinic
loop_
_symmetry_equiv_pos_as_xyz
  x,y,z
_cell_length_a                    28.5236
_cell_length_b                    32.5008
_cell_length_c                    27.0026
_cell_angle_alpha                 90.2142
_cell_angle_beta                  73.1610
_cell_angle_gamma                 90.0078
loop_
_atom_site_label
_atom_site_type_symbol
_atom_site_fract_x
_atom_site_fract_y
_atom_site_fract_z
_atom_site_U_iso_or_equiv
_atom_site_adp_type
_atom_site_occupancy
C1     C     0.16666   0.24599   0.25008   0.00000  Uiso   1.00
C2     C     0.14789   0.15931   0.48815   0.00000  Uiso   1.00
C3     C     0.16032   0.15154   0.43435   0.00000  Uiso   1.00
C4     C     0.18331   0.15207   0.01467   0.00000  Uiso   1.00
C5     C     0.23294   0.14577   0.48630   0.00000  Uiso   1.00
C6     C     0.24412   0.13480   0.43380   0.00000  Uiso   1.00
C7     C     0.20687   0.13422   0.40985   0.00000  Uiso   1.00
C8     C     0.17070   0.15012   0.06871   0.00000  Uiso   1.00
C9     C     0.25627   0.15764   0.06482   0.00000  Uiso   1.00
C10    C     0.12643   0.16249   0.40674   0.00000  Uiso   1.00
C11    C     0.20905   0.31207   0.25080   0.00000  Uiso   1.00
C12    C     0.14089   0.16422   0.34984   0.00000  Uiso   1.00
C13    C     0.20906   0.02130   0.25075   0.00000  Uiso   1.00
C14    C     0.16664   0.04274   0.25006   0.00000  Uiso   1.00
C15    C     0.12421   0.02128   0.24945   0.00000  Uiso   1.00
C16    C     0.12420   0.31205   0.24952   0.00000  Uiso   1.00
C17    C     0.16663   0.29060   0.25015   0.00000  Uiso   1.00
C18    C     0.30120   0.19598   0.27675   0.00000  Uiso   1.00
C19    C     0.01753   0.19602   0.27666   0.00000  Uiso   1.00
C20    C     0.03183   0.13689   0.22416   0.00000  Uiso   1.00
C21    C     0.31567   0.13710   0.22377   0.00000  Uiso   1.00
C22    C     0.16665   0.08735   0.25000   0.00000  Uiso   1.00
C23    C     0.19250   0.16395   0.15023   0.00000  Uiso   1.00
C24    C     0.26930   0.14902   0.01194   0.00000  Uiso   1.00
C25    C     0.20676   0.15770   0.09389   0.00000  Uiso   1.00
C26    C     0.07985   0.17744   0.43384   0.00000  Uiso   1.00
C27    C     0.06805   0.18516   0.48655   0.00000  Uiso   1.00
C28    C     0.10211   0.17755   0.01315   0.00000  Uiso   1.00
Cu29   Cu    0.11978   0.16666   0.25000   0.00000  Uiso   1.00
Cu30   Cu    0.21355   0.16667   0.25000   0.00000  Uiso   1.00
H31    H     0.28491   0.16193   0.08334   0.00000  Uiso   1.00
H32    H     0.24222   0.03733   0.25127   0.00000  Uiso   1.00
H33    H     0.09105   0.03729   0.24890   0.00000  Uiso   1.00
H34    H     0.09103   0.29603   0.24902   0.00000  Uiso   1.00
H35    H     0.27662   0.21939   0.29831   0.00000  Uiso   1.00
H36    H     0.03035   0.21946   0.29812   0.00000  Uiso   1.00
H37    H     0.05594   0.11272   0.20402   0.00000  Uiso   1.00
H38    H     0.30277   0.11345   0.20265   0.00000  Uiso   1.00
H39    H     0.30771   0.14570   0.49121   0.00000  Uiso   1.00
H40    H     0.05348   0.18581   0.41370   0.00000  Uiso   1.00
H41    H     0.09286   0.18773   0.05297   0.00000  Uiso   1.00
H42    H     0.03312   0.19896   0.00651   0.00000  Uiso   1.00
H43    H     0.21550   0.12076   0.37166   0.00000  Uiso   1.00
H44    H     0.24221   0.29607   0.25135   0.00000  Uiso   1.00
N45    N     0.04931   0.16666   0.24998   0.00000  Uiso   1.00
N46    N     0.28402   0.16669   0.24999   0.00000  Uiso   1.00
O47    O     0.12708   0.22678   0.25000   0.00000  Uiso   1.00
O48    O     0.20627   0.22679   0.25000   0.00000  Uiso   1.00
O49    O     0.10775   0.16665   0.32549   0.00000  Uiso   1.00
O50    O     0.18694   0.16666   0.32549   0.00000  Uiso   1.00
O51    O     0.12706   0.10654   0.24999   0.00000  Uiso   1.00
O52    O     0.20625   0.10655   0.24999   0.00000  Uiso   1.00
O53    O     0.14640   0.16667   0.17451   0.00000  Uiso   1.00
O54    O     0.22559   0.16668   0.17451   0.00000  Uiso   1.00
C55    C     0.29295   0.12266   0.40392   0.00000  Uiso   1.00
N56    N     0.33199   0.11299   0.37992   0.00000  Uiso   1.00
Cl57   Cl    0.11545   0.12444   0.10138   0.00000  Uiso   1.00
C58    C     0.49999   0.24599   0.25008   0.00000  Uiso   1.00
C59    C     0.48122   0.15931   0.48815   0.00000  Uiso   1.00
C60    C     0.49366   0.15154   0.43435   0.00000  Uiso   1.00
C61    C     0.51664   0.15207   0.01467   0.00000  Uiso   1.00
C62    C     0.56627   0.14577   0.48630   0.00000  Uiso   1.00
C63    C     0.57746   0.13480   0.43380   0.00000  Uiso   1.00
C64    C     0.54020   0.13422   0.40985   0.00000  Uiso   1.00
C65    C     0.50404   0.15012   0.06871   0.00000  Uiso   1.00
C66    C     0.58960   0.15764   0.06482   0.00000  Uiso   1.00
C67    C     0.45976   0.16249   0.40674   0.00000  Uiso   1.00
C68    C     0.54238   0.31207   0.25080   0.00000  Uiso   1.00
C69    C     0.47423   0.16422   0.34984   0.00000  Uiso   1.00
C70    C     0.54239   0.02130   0.25075   0.00000  Uiso   1.00
C71    C     0.49997   0.04274   0.25006   0.00000  Uiso   1.00
C72    C     0.45754   0.02128   0.24945   0.00000  Uiso   1.00
C73    C     0.45753   0.31205   0.24952   0.00000  Uiso   1.00
C74    C     0.49996   0.29060   0.25015   0.00000  Uiso   1.00
C75    C     0.63454   0.19598   0.27675   0.00000  Uiso   1.00
C76    C     0.35086   0.19602   0.27666   0.00000  Uiso   1.00
C77    C     0.36516   0.13689   0.22416   0.00000  Uiso   1.00
C78    C     0.64901   0.13710   0.22377   0.00000  Uiso   1.00
C79    C     0.49999   0.08735   0.25000   0.00000  Uiso   1.00
C80    C     0.52584   0.16395   0.15023   0.00000  Uiso   1.00
C81    C     0.60263   0.14902   0.01194   0.00000  Uiso   1.00
C82    C     0.54010   0.15770   0.09389   0.00000  Uiso   1.00
C83    C     0.41318   0.17744   0.43384   0.00000  Uiso   1.00
C84    C     0.40139   0.18516   0.48655   0.00000  Uiso   1.00
C85    C     0.43544   0.17755   0.01315   0.00000  Uiso   1.00
Cu86   Cu    0.45311   0.16666   0.25000   0.00000  Uiso   1.00
Cu87   Cu    0.54689   0.16667   0.25000   0.00000  Uiso   1.00
H88    H     0.61825   0.16193   0.08334   0.00000  Uiso   1.00
H89    H     0.57555   0.03733   0.25127   0.00000  Uiso   1.00
H90    H     0.42438   0.03729   0.24890   0.00000  Uiso   1.00
H91    H     0.42436   0.29603   0.24902   0.00000  Uiso   1.00
H92    H     0.60995   0.21939   0.29831   0.00000  Uiso   1.00
H93    H     0.36368   0.21946   0.29812   0.00000  Uiso   1.00
H94    H     0.38927   0.11272   0.20402   0.00000  Uiso   1.00
H95    H     0.63611   0.11345   0.20265   0.00000  Uiso   1.00
H96    H     0.64104   0.14570   0.49121   0.00000  Uiso   1.00
H97    H     0.38681   0.18581   0.41370   0.00000  Uiso   1.00
H98    H     0.42619   0.18773   0.05297   0.00000  Uiso   1.00
H99    H     0.36645   0.19896   0.00651   0.00000  Uiso   1.00
H100   H     0.54884   0.12076   0.37166   0.00000  Uiso   1.00
H101   H     0.57554   0.29607   0.25135   0.00000  Uiso   1.00
N102   N     0.38265   0.16666   0.24998   0.00000  Uiso   1.00
N103   N     0.61735   0.16669   0.24999   0.00000  Uiso   1.00
O104   O     0.46042   0.22678   0.25000   0.00000  Uiso   1.00
O105   O     0.53961   0.22679   0.25000   0.00000  Uiso   1.00
O106   O     0.44108   0.16665   0.32549   0.00000  Uiso   1.00
O107   O     0.52027   0.16666   0.32549   0.00000  Uiso   1.00
O108   O     0.46039   0.10654   0.24999   0.00000  Uiso   1.00
O109   O     0.53958   0.10655   0.24999   0.00000  Uiso   1.00
O110   O     0.47973   0.16667   0.17451   0.00000  Uiso   1.00
O111   O     0.55892   0.16668   0.17451   0.00000  Uiso   1.00
C112   C     0.62628   0.12266   0.40392   0.00000  Uiso   1.00
N113   N     0.66533   0.11299   0.37992   0.00000  Uiso   1.00
Cl114  Cl    0.44879   0.12444   0.10138   0.00000  Uiso   1.00
C115   C     0.83332   0.24599   0.25008   0.00000  Uiso   1.00
C116   C     0.81456   0.15931   0.48815   0.00000  Uiso   1.00
C117   C     0.82699   0.15154   0.43435   0.00000  Uiso   1.00
C118   C     0.84998   0.15207   0.01467   0.00000  Uiso   1.00
C119   C     0.89961   0.14577   0.48630   0.00000  Uiso   1.00
C120   C     0.91079   0.13480   0.43380   0.00000  Uiso   1.00
C121   C     0.87354   0.13422   0.40985   0.00000  Uiso   1.00
C122   C     0.83737   0.15012   0.06871   0.00000  Uiso   1.00
C123   C     0.92294   0.15764   0.06482   0.00000  Uiso   1.00
C124   C     0.79310   0.16249   0.40674   0.00000  Uiso   1.00
C125   C     0.87572   0.31207   0.25080   0.00000  Uiso   1.00
C126   C     0.80756   0.16422   0.34984   0.00000  Uiso   1.00
C127   C     0.87572   0.02130   0.25075   0.00000  Uiso   1.00
C128   C     0.83331   0.04274   0.25006   0.00000  Uiso   1.00
C129   C     0.79087   0.02128   0.24945   0.00000  Uiso   1.00
C130   C     0.79086   0.31205   0.24952   0.00000  Uiso   1.00
C131   C     0.83330   0.29060   0.25015   0.00000  Uiso   1.00
C132   C     0.96787   0.19598   0.27675   0.00000  Uiso   1.00
C133   C     0.68419   0.19602   0.27666   0.00000  Uiso   1.00
C134   C     0.69849   0.13689   0.22416   0.00000  Uiso   1.00
C135   C     0.98234   0.13710   0.22377   0.00000  Uiso   1.00
C136   C     0.83332   0.08735   0.25000   0.00000  Uiso   1.00
C137   C     0.85917   0.16395   0.15023   0.00000  Uiso   1.00
C138   C     0.93597   0.14902   0.01194   0.00000  Uiso   1.00
C139   C     0.87343   0.15770   0.09389   0.00000  Uiso   1.00
C140   C     0.74652   0.17744   0.43384   0.00000  Uiso   1.00
C141   C     0.73472   0.18516   0.48655   0.00000  Uiso   1.00
C142   C     0.76877   0.17755   0.01315   0.00000  Uiso   1.00
Cu143  Cu    0.78645   0.16666   0.25000   0.00000  Uiso   1.00
Cu144  Cu    0.88022   0.16667   0.25000   0.00000  Uiso   1.00
H145   H     0.95158   0.16193   0.08334   0.00000  Uiso   1.00
H146   H     0.90889   0.03733   0.25127   0.00000  Uiso   1.00
H147   H     0.75772   0.03729   0.24890   0.00000  Uiso   1.00
H148   H     0.75769   0.29603   0.24902   0.00000  Uiso   1.00
H149   H     0.94328   0.21939   0.29831   0.00000  Uiso   1.00
H150   H     0.69702   0.21946   0.29812   0.00000  Uiso   1.00
H151   H     0.72260   0.11272   0.20402   0.00000  Uiso   1.00
H152   H     0.96944   0.11345   0.20265   0.00000  Uiso   1.00
H153   H     0.97438   0.14570   0.49121   0.00000  Uiso   1.00
H154   H     0.72015   0.18581   0.41370   0.00000  Uiso   1.00
H155   H     0.75953   0.18773   0.05297   0.00000  Uiso   1.00
H156   H     0.69978   0.19896   0.00651   0.00000  Uiso   1.00
H157   H     0.88217   0.12076   0.37166   0.00000  Uiso   1.00
H158   H     0.90887   0.29607   0.25135   0.00000  Uiso   1.00
N159   N     0.71598   0.16666   0.24998   0.00000  Uiso   1.00
N160   N     0.95069   0.16669   0.24999   0.00000  Uiso   1.00
O161   O     0.79375   0.22678   0.25000   0.00000  Uiso   1.00
O162   O     0.87294   0.22679   0.25000   0.00000  Uiso   1.00
O163   O     0.77441   0.16665   0.32549   0.00000  Uiso   1.00
O164   O     0.85360   0.16666   0.32549   0.00000  Uiso   1.00
O165   O     0.79373   0.10654   0.24999   0.00000  Uiso   1.00
O166   O     0.87292   0.10655   0.24999   0.00000  Uiso   1.00
O167   O     0.81306   0.16667   0.17451   0.00000  Uiso   1.00
O168   O     0.89225   0.16668   0.17451   0.00000  Uiso   1.00
C169   C     0.95961   0.12266   0.40392   0.00000  Uiso   1.00
N170   N     0.99866   0.11299   0.37992   0.00000  Uiso   1.00
Cl171  Cl    0.78212   0.12444   0.10138   0.00000  Uiso   1.00
C172   C     0.16666   0.57932   0.25008   0.00000  Uiso   1.00
C173   C     0.14789   0.49264   0.48815   0.00000  Uiso   1.00
C174   C     0.16032   0.48488   0.43435   0.00000  Uiso   1.00
C175   C     0.18331   0.48540   0.01467   0.00000  Uiso   1.00
C176   C     0.23294   0.47910   0.48630   0.00000  Uiso   1.00
C177   C     0.24412   0.46813   0.43380   0.00000  Uiso   1.00
C178   C     0.20687   0.46756   0.40985   0.00000  Uiso   1.00
C179   C     0.17070   0.48345   0.06871   0.00000  Uiso   1.00
C180   C     0.25627   0.49097   0.06482   0.00000  Uiso   1.00
C181   C     0.12643   0.49582   0.40674   0.00000  Uiso   1.00
C182   C     0.20905   0.64540   0.25080   0.00000  Uiso   1.00
C183   C     0.14089   0.49756   0.34984   0.00000  Uiso   1.00
C184   C     0.20906   0.35464   0.25075   0.00000  Uiso   1.00
C185   C     0.16664   0.37608   0.25006   0.00000  Uiso   1.00
C186   C     0.12421   0.35461   0.24945   0.00000  Uiso   1.00
C187   C     0.12420   0.64538   0.24952   0.00000  Uiso   1.00
C188   C     0.16663   0.62394   0.25015   0.00000  Uiso   1.00
C189   C     0.30120   0.52931   0.27675   0.00000  Uiso   1.00
C190   C     0.01753   0.52935   0.27666   0.00000  Uiso   1.00
C191   C     0.03183   0.47022   0.22416   0.00000  Uiso   1.00
C192   C     0.31567   0.47043   0.22377   0.00000  Uiso   1.00
C193   C     0.16665   0.42068   0.25000   0.00000  Uiso   1.00
C194   C     0.19250   0.49728   0.15023   0.00000  Uiso   1.00
C195   C     0.26930   0.48236   0.01194   0.00000  Uiso   1.00
C196   C     0.20676   0.49104   0.09389   0.00000  Uiso   1.00
C197   C     0.07985   0.51077   0.43384   0.00000  Uiso   1.00
C198   C     0.06805   0.51850   0.48655   0.00000  Uiso   1.00
C199   C     0.10211   0.51089   0.01315   0.00000  Uiso   1.00
Cu200  Cu    0.11978   0.49999   0.25000   0.00000  Uiso   1.00
Cu201  Cu    0.21355   0.50001   0.25000   0.00000  Uiso   1.00
H202   H     0.28491   0.49526   0.08334   0.00000  Uiso   1.00
H203   H     0.24222   0.37066   0.25127   0.00000  Uiso   1.00
H204   H     0.09105   0.37062   0.24890   0.00000  Uiso   1.00
H205   H     0.09103   0.62936   0.24902   0.00000  Uiso   1.00
H206   H     0.27662   0.55272   0.29831   0.00000  Uiso   1.00
H207   H     0.03035   0.55280   0.29812   0.00000  Uiso   1.00
H208   H     0.05594   0.44605   0.20402   0.00000  Uiso   1.00
H209   H     0.30277   0.44678   0.20265   0.00000  Uiso   1.00
H210   H     0.30771   0.47903   0.49121   0.00000  Uiso   1.00
H211   H     0.05348   0.51914   0.41370   0.00000  Uiso   1.00
H212   H     0.09286   0.52107   0.05297   0.00000  Uiso   1.00
H213   H     0.03312   0.53230   0.00651   0.00000  Uiso   1.00
H214   H     0.21550   0.45409   0.37166   0.00000  Uiso   1.00
H215   H     0.24221   0.62940   0.25135   0.00000  Uiso   1.00
N216   N     0.04931   0.49999   0.24998   0.00000  Uiso   1.00
N217   N     0.28402   0.50002   0.24999   0.00000  Uiso   1.00
O218   O     0.12708   0.56011   0.25000   0.00000  Uiso   1.00
O219   O     0.20627   0.56012   0.25000   0.00000  Uiso   1.00
O220   O     0.10775   0.49998   0.32549   0.00000  Uiso   1.00
O221   O     0.18694   0.49999   0.32549   0.00000  Uiso   1.00
O222   O     0.12706   0.43988   0.24999   0.00000  Uiso   1.00
O223   O     0.20625   0.43989   0.24999   0.00000  Uiso   1.00
O224   O     0.14640   0.50001   0.17451   0.00000  Uiso   1.00
O225   O     0.22559   0.50002   0.17451   0.00000  Uiso   1.00
C226   C     0.29295   0.45599   0.40392   0.00000  Uiso   1.00
N227   N     0.33199   0.44632   0.37992   0.00000  Uiso   1.00
Cl228  Cl    0.11545   0.45777   0.10138   0.00000  Uiso   1.00
C229   C     0.49999   0.57932   0.25008   0.00000  Uiso   1.00
C230   C     0.48122   0.49264   0.48815   0.00000  Uiso   1.00
C231   C     0.49366   0.48488   0.43435   0.00000  Uiso   1.00
C232   C     0.51664   0.48540   0.01467   0.00000  Uiso   1.00
C233   C     0.56627   0.47910   0.48630   0.00000  Uiso   1.00
C234   C     0.57746   0.46813   0.43380   0.00000  Uiso   1.00
C235   C     0.54020   0.46756   0.40985   0.00000  Uiso   1.00
C236   C     0.50404   0.48345   0.06871   0.00000  Uiso   1.00
C237   C     0.58960   0.49097   0.06482   0.00000  Uiso   1.00
C238   C     0.45976   0.49582   0.40674   0.00000  Uiso   1.00
C239   C     0.54238   0.64540   0.25080   0.00000  Uiso   1.00
C240   C     0.47423   0.49756   0.34984   0.00000  Uiso   1.00
C241   C     0.54239   0.35464   0.25075   0.00000  Uiso   1.00
C242   C     0.49997   0.37608   0.25006   0.00000  Uiso   1.00
C243   C     0.45754   0.35461   0.24945   0.00000  Uiso   1.00
C244   C     0.45753   0.64538   0.24952   0.00000  Uiso   1.00
C245   C     0.49996   0.62394   0.25015   0.00000  Uiso   1.00
C246   C     0.63454   0.52931   0.27675   0.00000  Uiso   1.00
C247   C     0.35086   0.52935   0.27666   0.00000  Uiso   1.00
C248   C     0.36516   0.47022   0.22416   0.00000  Uiso   1.00
C249   C     0.64901   0.47043   0.22377   0.00000  Uiso   1.00
C250   C     0.49999   0.42068   0.25000   0.00000  Uiso   1.00
C251   C     0.52584   0.49728   0.15023   0.00000  Uiso   1.00
C252   C     0.60263   0.48236   0.01194   0.00000  Uiso   1.00
C253   C     0.54010   0.49104   0.09389   0.00000  Uiso   1.00
C254   C     0.41318   0.51077   0.43384   0.00000  Uiso   1.00
C255   C     0.40139   0.51850   0.48655   0.00000  Uiso   1.00
C256   C     0.43544   0.51089   0.01315   0.00000  Uiso   1.00
Cu257  Cu    0.45311   0.49999   0.25000   0.00000  Uiso   1.00
Cu258  Cu    0.54689   0.50001   0.25000   0.00000  Uiso   1.00
H259   H     0.61825   0.49526   0.08334   0.00000  Uiso   1.00
H260   H     0.57555   0.37066   0.25127   0.00000  Uiso   1.00
H261   H     0.42438   0.37062   0.24890   0.00000  Uiso   1.00
H262   H     0.42436   0.62936   0.24902   0.00000  Uiso   1.00
H263   H     0.60995   0.55272   0.29831   0.00000  Uiso   1.00
H264   H     0.36368   0.55280   0.29812   0.00000  Uiso   1.00
H265   H     0.38927   0.44605   0.20402   0.00000  Uiso   1.00
H266   H     0.63611   0.44678   0.20265   0.00000  Uiso   1.00
H267   H     0.64104   0.47903   0.49121   0.00000  Uiso   1.00
H268   H     0.38681   0.51914   0.41370   0.00000  Uiso   1.00
H269   H     0.42619   0.52107   0.05297   0.00000  Uiso   1.00
H270   H     0.36645   0.53230   0.00651   0.00000  Uiso   1.00
H271   H     0.54884   0.45409   0.37166   0.00000  Uiso   1.00
H272   H     0.57554   0.62940   0.25135   0.00000  Uiso   1.00
N273   N     0.38265   0.49999   0.24998   0.00000  Uiso   1.00
N274   N     0.61735   0.50002   0.24999   0.00000  Uiso   1.00
O275   O     0.46042   0.56011   0.25000   0.00000  Uiso   1.00
O276   O     0.53961   0.56012   0.25000   0.00000  Uiso   1.00
O277   O     0.44108   0.49998   0.32549   0.00000  Uiso   1.00
O278   O     0.52027   0.49999   0.32549   0.00000  Uiso   1.00
O279   O     0.46039   0.43988   0.24999   0.00000  Uiso   1.00
O280   O     0.53958   0.43989   0.24999   0.00000  Uiso   1.00
O281   O     0.47973   0.50001   0.17451   0.00000  Uiso   1.00
O282   O     0.55892   0.50002   0.17451   0.00000  Uiso   1.00
C283   C     0.62628   0.45599   0.40392   0.00000  Uiso   1.00
N284   N     0.66533   0.44632   0.37992   0.00000  Uiso   1.00
Cl285  Cl    0.44879   0.45777   0.10138   0.00000  Uiso   1.00
C286   C     0.83332   0.57932   0.25008   0.00000  Uiso   1.00
C287   C     0.81456   0.49264   0.48815   0.00000  Uiso   1.00
C288   C     0.82699   0.48488   0.43435   0.00000  Uiso   1.00
C289   C     0.84998   0.48540   0.01467   0.00000  Uiso   1.00
C290   C     0.89961   0.47910   0.48630   0.00000  Uiso   1.00
C291   C     0.91079   0.46813   0.43380   0.00000  Uiso   1.00
C292   C     0.87354   0.46756   0.40985   0.00000  Uiso   1.00
C293   C     0.83737   0.48345   0.06871   0.00000  Uiso   1.00
C294   C     0.92294   0.49097   0.06482   0.00000  Uiso   1.00
C295   C     0.79310   0.49582   0.40674   0.00000  Uiso   1.00
C296   C     0.87572   0.64540   0.25080   0.00000  Uiso   1.00
C297   C     0.80756   0.49756   0.34984   0.00000  Uiso   1.00
C298   C     0.87572   0.35464   0.25075   0.00000  Uiso   1.00
C299   C     0.83331   0.37608   0.25006   0.00000  Uiso   1.00
C300   C     0.79087   0.35461   0.24945   0.00000  Uiso   1.00
C301   C     0.79086   0.64538   0.24952   0.00000  Uiso   1.00
C302   C     0.83330   0.62394   0.25015   0.00000  Uiso   1.00
C303   C     0.96787   0.52931   0.27675   0.00000  Uiso   1.00
C304   C     0.68419   0.52935   0.27666   0.00000  Uiso   1.00
C305   C     0.69849   0.47022   0.22416   0.00000  Uiso   1.00
C306   C     0.98234   0.47043   0.22377   0.00000  Uiso   1.00
C307   C     0.83332   0.42068   0.25000   0.00000  Uiso   1.00
C308   C     0.85917   0.49728   0.15023   0.00000  Uiso   1.00
C309   C     0.93597   0.48236   0.01194   0.00000  Uiso   1.00
C310   C     0.87343   0.49104   0.09389   0.00000  Uiso   1.00
C311   C     0.74652   0.51077   0.43384   0.00000  Uiso   1.00
C312   C     0.73472   0.51850   0.48655   0.00000  Uiso   1.00
C313   C     0.76877   0.51089   0.01315   0.00000  Uiso   1.00
Cu314  Cu    0.78645   0.49999   0.25000   0.00000  Uiso   1.00
Cu315  Cu    0.88022   0.50001   0.25000   0.00000  Uiso   1.00
H316   H     0.95158   0.49526   0.08334   0.00000  Uiso   1.00
H317   H     0.90889   0.37066   0.25127   0.00000  Uiso   1.00
H318   H     0.75772   0.37062   0.24890   0.00000  Uiso   1.00
H319   H     0.75769   0.62936   0.24902   0.00000  Uiso   1.00
H320   H     0.94328   0.55272   0.29831   0.00000  Uiso   1.00
H321   H     0.69702   0.55280   0.29812   0.00000  Uiso   1.00
H322   H     0.72260   0.44605   0.20402   0.00000  Uiso   1.00
H323   H     0.96944   0.44678   0.20265   0.00000  Uiso   1.00
H324   H     0.97438   0.47903   0.49121   0.00000  Uiso   1.00
H325   H     0.72015   0.51914   0.41370   0.00000  Uiso   1.00
H326   H     0.75953   0.52107   0.05297   0.00000  Uiso   1.00
H327   H     0.69978   0.53230   0.00651   0.00000  Uiso   1.00
H328   H     0.88217   0.45409   0.37166   0.00000  Uiso   1.00
H329   H     0.90887   0.62940   0.25135   0.00000  Uiso   1.00
N330   N     0.71598   0.49999   0.24998   0.00000  Uiso   1.00
N331   N     0.95069   0.50002   0.24999   0.00000  Uiso   1.00
O332   O     0.79375   0.56011   0.25000   0.00000  Uiso   1.00
O333   O     0.87294   0.56012   0.25000   0.00000  Uiso   1.00
O334   O     0.77441   0.49998   0.32549   0.00000  Uiso   1.00
O335   O     0.85360   0.49999   0.32549   0.00000  Uiso   1.00
O336   O     0.79373   0.43988   0.24999   0.00000  Uiso   1.00
O337   O     0.87292   0.43989   0.24999   0.00000  Uiso   1.00
O338   O     0.81306   0.50001   0.17451   0.00000  Uiso   1.00
O339   O     0.89225   0.50002   0.17451   0.00000  Uiso   1.00
C340   C     0.95961   0.45599   0.40392   0.00000  Uiso   1.00
N341   N     0.99866   0.44632   0.37992   0.00000  Uiso   1.00
Cl342  Cl    0.78212   0.45777   0.10138   0.00000  Uiso   1.00
C343   C     0.16666   0.91265   0.25008   0.00000  Uiso   1.00
C344   C     0.14789   0.82598   0.48815   0.00000  Uiso   1.00
C345   C     0.16032   0.81821   0.43435   0.00000  Uiso   1.00
C346   C     0.18331   0.81873   0.01467   0.00000  Uiso   1.00
C347   C     0.23294   0.81243   0.48630   0.00000  Uiso   1.00
C348   C     0.24412   0.80146   0.43380   0.00000  Uiso   1.00
C349   C     0.20687   0.80089   0.40985   0.00000  Uiso   1.00
C350   C     0.17070   0.81679   0.06871   0.00000  Uiso   1.00
C351   C     0.25627   0.82430   0.06482   0.00000  Uiso   1.00
C352   C     0.12643   0.82916   0.40674   0.00000  Uiso   1.00
C353   C     0.20905   0.97874   0.25080   0.00000  Uiso   1.00
C354   C     0.14089   0.83089   0.34984   0.00000  Uiso   1.00
C355   C     0.20906   0.68797   0.25075   0.00000  Uiso   1.00
C356   C     0.16664   0.70941   0.25006   0.00000  Uiso   1.00
C357   C     0.12421   0.68795   0.24945   0.00000  Uiso   1.00
C358   C     0.12420   0.97871   0.24952   0.00000  Uiso   1.00
C359   C     0.16663   0.95727   0.25015   0.00000  Uiso   1.00
C360   C     0.30120   0.86265   0.27675   0.00000  Uiso   1.00
C361   C     0.01753   0.86268   0.27666   0.00000  Uiso   1.00
C362   C     0.03183   0.80355   0.22416   0.00000  Uiso   1.00
C363   C     0.31567   0.80376   0.22377   0.00000  Uiso   1.00
C364   C     0.16665   0.75401   0.25000   0.00000  Uiso   1.00
C365   C     0.19250   0.83061   0.15023   0.00000  Uiso   1.00
C366   C     0.26930   0.81569   0.01194   0.00000  Uiso   1.00
C367   C     0.20676   0.82437   0.09389   0.00000  Uiso   1.00
C368   C     0.07985   0.84411   0.43384   0.00000  Uiso   1.00
C369   C     0.06805   0.85183   0.48655   0.00000  Uiso   1.00
C370   C     0.10211   0.84422   0.01315   0.00000  Uiso   1.00
Cu371  Cu    0.11978   0.83333   0.25000   0.00000  Uiso   1.00
Cu372  Cu    0.21355   0.83334   0.25000   0.00000  Uiso   1.00
H373   H     0.28491   0.82859   0.08334   0.00000  Uiso   1.00
H374   H     0.24222   0.70399   0.25127   0.00000  Uiso   1.00
H375   H     0.09105   0.70395   0.24890   0.00000  Uiso   1.00
H376   H     0.09103   0.96269   0.24902   0.00000  Uiso   1.00
H377   H     0.27662   0.88605   0.29831   0.00000  Uiso   1.00
H378   H     0.03035   0.88613   0.29812   0.00000  Uiso   1.00
H379   H     0.05594   0.77938   0.20402   0.00000  Uiso   1.00
H380   H     0.30277   0.78012   0.20265   0.00000  Uiso   1.00
H381   H     0.30771   0.81236   0.49121   0.00000  Uiso   1.00
H382   H     0.05348   0.85247   0.41370   0.00000  Uiso   1.00
H383   H     0.09286   0.85440   0.05297   0.00000  Uiso   1.00
H384   H     0.03312   0.86563   0.00651   0.00000  Uiso   1.00
H385   H     0.21550   0.78743   0.37166   0.00000  Uiso   1.00
H386   H     0.24221   0.96273   0.25135   0.00000  Uiso   1.00
N387   N     0.04931   0.83332   0.24998   0.00000  Uiso   1.00
N388   N     0.28402   0.83335   0.24999   0.00000  Uiso   1.00
O389   O     0.12708   0.89345   0.25000   0.00000  Uiso   1.00
O390   O     0.20627   0.89346   0.25000   0.00000  Uiso   1.00
O391   O     0.10775   0.83332   0.32549   0.00000  Uiso   1.00
O392   O     0.18694   0.83333   0.32549   0.00000  Uiso   1.00
O393   O     0.12706   0.77321   0.24999   0.00000  Uiso   1.00
O394   O     0.20625   0.77322   0.24999   0.00000  Uiso   1.00
O395   O     0.14640   0.83334   0.17451   0.00000  Uiso   1.00
O396   O     0.22559   0.83335   0.17451   0.00000  Uiso   1.00
C397   C     0.29295   0.78933   0.40392   0.00000  Uiso   1.00
N398   N     0.33199   0.77966   0.37992   0.00000  Uiso   1.00
Cl399  Cl    0.11545   0.79111   0.10138   0.00000  Uiso   1.00
C400   C     0.49999   0.91265   0.25008   0.00000  Uiso   1.00
C401   C     0.48122   0.82598   0.48815   0.00000  Uiso   1.00
C402   C     0.49366   0.81821   0.43435   0.00000  Uiso   1.00
C403   C     0.51664   0.81873   0.01467   0.00000  Uiso   1.00
C404   C     0.56627   0.81243   0.48630   0.00000  Uiso   1.00
C405   C     0.57746   0.80146   0.43380   0.00000  Uiso   1.00
C406   C     0.54020   0.80089   0.40985   0.00000  Uiso   1.00
C407   C     0.50404   0.81679   0.06871   0.00000  Uiso   1.00
C408   C     0.58960   0.82430   0.06482   0.00000  Uiso   1.00
C409   C     0.45976   0.82916   0.40674   0.00000  Uiso   1.00
C410   C     0.54238   0.97874   0.25080   0.00000  Uiso   1.00
C411   C     0.47423   0.83089   0.34984   0.00000  Uiso   1.00
C412   C     0.54239   0.68797   0.25075   0.00000  Uiso   1.00
C413   C     0.49997   0.70941   0.25006   0.00000  Uiso   1.00
C414   C     0.45754   0.68795   0.24945   0.00000  Uiso   1.00
C415   C     0.45753   0.97871   0.24952   0.00000  Uiso   1.00
C416   C     0.49996   0.95727   0.25015   0.00000  Uiso   1.00
C417   C     0.63454   0.86265   0.27675   0.00000  Uiso   1.00
C418   C     0.35086   0.86268   0.27666   0.00000  Uiso   1.00
C419   C     0.36516   0.80355   0.22416   0.00000  Uiso   1.00
C420   C     0.64901   0.80376   0.22377   0.00000  Uiso   1.00
C421   C     0.49999   0.75401   0.25000   0.00000  Uiso   1.00
C422   C     0.52584   0.83061   0.15023   0.00000  Uiso   1.00
C423   C     0.60263   0.81569   0.01194   0.00000  Uiso   1.00
C424   C     0.54010   0.82437   0.09389   0.00000  Uiso   1.00
C425   C     0.41318   0.84411   0.43384   0.00000  Uiso   1.00
C426   C     0.40139   0.85183   0.48655   0.00000  Uiso   1.00
C427   C     0.43544   0.84422   0.01315   0.00000  Uiso   1.00
Cu428  Cu    0.45311   0.83333   0.25000   0.00000  Uiso   1.00
Cu429  Cu    0.54689   0.83334   0.25000   0.00000  Uiso   1.00
H430   H     0.61825   0.82859   0.08334   0.00000  Uiso   1.00
H431   H     0.57555   0.70399   0.25127   0.00000  Uiso   1.00
H432   H     0.42438   0.70395   0.24890   0.00000  Uiso   1.00
H433   H     0.42436   0.96269   0.24902   0.00000  Uiso   1.00
H434   H     0.60995   0.88605   0.29831   0.00000  Uiso   1.00
H435   H     0.36368   0.88613   0.29812   0.00000  Uiso   1.00
H436   H     0.38927   0.77938   0.20402   0.00000  Uiso   1.00
H437   H     0.63611   0.78012   0.20265   0.00000  Uiso   1.00
H438   H     0.64104   0.81236   0.49121   0.00000  Uiso   1.00
H439   H     0.38681   0.85247   0.41370   0.00000  Uiso   1.00
H440   H     0.42619   0.85440   0.05297   0.00000  Uiso   1.00
H441   H     0.36645   0.86563   0.00651   0.00000  Uiso   1.00
H442   H     0.54884   0.78743   0.37166   0.00000  Uiso   1.00
H443   H     0.57554   0.96273   0.25135   0.00000  Uiso   1.00
N444   N     0.38265   0.83332   0.24998   0.00000  Uiso   1.00
N445   N     0.61735   0.83335   0.24999   0.00000  Uiso   1.00
O446   O     0.46042   0.89345   0.25000   0.00000  Uiso   1.00
O447   O     0.53961   0.89346   0.25000   0.00000  Uiso   1.00
O448   O     0.44108   0.83332   0.32549   0.00000  Uiso   1.00
O449   O     0.52027   0.83333   0.32549   0.00000  Uiso   1.00
O450   O     0.46039   0.77321   0.24999   0.00000  Uiso   1.00
O451   O     0.53958   0.77322   0.24999   0.00000  Uiso   1.00
O452   O     0.47973   0.83334   0.17451   0.00000  Uiso   1.00
O453   O     0.55892   0.83335   0.17451   0.00000  Uiso   1.00
C454   C     0.62628   0.78933   0.40392   0.00000  Uiso   1.00
N455   N     0.66533   0.77966   0.37992   0.00000  Uiso   1.00
Cl456  Cl    0.44879   0.79111   0.10138   0.00000  Uiso   1.00
C457   C     0.83332   0.91265   0.25008   0.00000  Uiso   1.00
C458   C     0.81456   0.82598   0.48815   0.00000  Uiso   1.00
C459   C     0.82699   0.81821   0.43435   0.00000  Uiso   1.00
C460   C     0.84998   0.81873   0.01467   0.00000  Uiso   1.00
C461   C     0.89961   0.81243   0.48630   0.00000  Uiso   1.00
C462   C     0.91079   0.80146   0.43380   0.00000  Uiso   1.00
C463   C     0.87354   0.80089   0.40985   0.00000  Uiso   1.00
C464   C     0.83737   0.81679   0.06871   0.00000  Uiso   1.00
C465   C     0.92294   0.82430   0.06482   0.00000  Uiso   1.00
C466   C     0.79310   0.82916   0.40674   0.00000  Uiso   1.00
C467   C     0.87572   0.97874   0.25080   0.00000  Uiso   1.00
C468   C     0.80756   0.83089   0.34984   0.00000  Uiso   1.00
C469   C     0.87572   0.68797   0.25075   0.00000  Uiso   1.00
C470   C     0.83331   0.70941   0.25006   0.00000  Uiso   1.00
C471   C     0.79087   0.68795   0.24945   0.00000  Uiso   1.00
C472   C     0.79086   0.97871   0.24952   0.00000  Uiso   1.00
C473   C     0.83330   0.95727   0.25015   0.00000  Uiso   1.00
C474   C     0.96787   0.86265   0.27675   0.00000  Uiso   1.00
C475   C     0.68419   0.86268   0.27666   0.00000  Uiso   1.00
C476   C     0.69849   0.80355   0.22416   0.00000  Uiso   1.00
C477   C     0.98234   0.80376   0.22377   0.00000  Uiso   1.00
C478   C     0.83332   0.75401   0.25000   0.00000  Uiso   1.00
C479   C     0.85917   0.83061   0.15023   0.00000  Uiso   1.00
C480   C     0.93597   0.81569   0.01194   0.00000  Uiso   1.00
C481   C     0.87343   0.82437   0.09389   0.00000  Uiso   1.00
C482   C     0.74652   0.84411   0.43384   0.00000  Uiso   1.00
C483   C     0.73472   0.85183   0.48655   0.00000  Uiso   1.00
C484   C     0.76877   0.84422   0.01315   0.00000  Uiso   1.00
Cu485  Cu    0.78645   0.83333   0.25000   0.00000  Uiso   1.00
Cu486  Cu    0.88022   0.83334   0.25000   0.00000  Uiso   1.00
H487   H     0.95158   0.82859   0.08334   0.00000  Uiso   1.00
H488   H     0.90889   0.70399   0.25127   0.00000  Uiso   1.00
H489   H     0.75772   0.70395   0.24890   0.00000  Uiso   1.00
H490   H     0.75769   0.96269   0.24902   0.00000  Uiso   1.00
H491   H     0.94328   0.88605   0.29831   0.00000  Uiso   1.00
H492   H     0.69702   0.88613   0.29812   0.00000  Uiso   1.00
H493   H     0.72260   0.77938   0.20402   0.00000  Uiso   1.00
H494   H     0.96944   0.78012   0.20265   0.00000  Uiso   1.00
H495   H     0.97438   0.81236   0.49121   0.00000  Uiso   1.00
H496   H     0.72015   0.85247   0.41370   0.00000  Uiso   1.00
H497   H     0.75953   0.85440   0.05297   0.00000  Uiso   1.00
H498   H     0.69978   0.86563   0.00651   0.00000  Uiso   1.00
H499   H     0.88217   0.78743   0.37166   0.00000  Uiso   1.00
H500   H     0.90887   0.96273   0.25135   0.00000  Uiso   1.00
N501   N     0.71598   0.83332   0.24998   0.00000  Uiso   1.00
N502   N     0.95069   0.83335   0.24999   0.00000  Uiso   1.00
O503   O     0.79375   0.89345   0.25000   0.00000  Uiso   1.00
O504   O     0.87294   0.89346   0.25000   0.00000  Uiso   1.00
O505   O     0.77441   0.83332   0.32549   0.00000  Uiso   1.00
O506   O     0.85360   0.83333   0.32549   0.00000  Uiso   1.00
O507   O     0.79373   0.77321   0.24999   0.00000  Uiso   1.00
O508   O     0.87292   0.77322   0.24999   0.00000  Uiso   1.00
O509   O     0.81306   0.83334   0.17451   0.00000  Uiso   1.00
O510   O     0.89225   0.83335   0.17451   0.00000  Uiso   1.00
C511   C     0.95961   0.78933   0.40392   0.00000  Uiso   1.00
N512   N     0.99866   0.77966   0.37992   0.00000  Uiso   1.00
Cl513  Cl    0.78212   0.79111   0.10138   0.00000  Uiso   1.00
C514   C     0.16666   0.24599   0.75008   0.00000  Uiso   1.00
C515   C     0.14789   0.15931   0.98815   0.00000  Uiso   1.00
C516   C     0.16032   0.15154   0.93435   0.00000  Uiso   1.00
C517   C     0.18331   0.15207   0.51467   0.00000  Uiso   1.00
C518   C     0.23294   0.14577   0.98630   0.00000  Uiso   1.00
C519   C     0.24412   0.13480   0.93380   0.00000  Uiso   1.00
C520   C     0.20687   0.13422   0.90985   0.00000  Uiso   1.00
C521   C     0.17070   0.15012   0.56871   0.00000  Uiso   1.00
C522   C     0.25627   0.15764   0.56482   0.00000  Uiso   1.00
C523   C     0.12643   0.16249   0.90674   0.00000  Uiso   1.00
C524   C     0.20905   0.31207   0.75080   0.00000  Uiso   1.00
C525   C     0.14089   0.16422   0.84984   0.00000  Uiso   1.00
C526   C     0.20906   0.02130   0.75075   0.00000  Uiso   1.00
C527   C     0.16664   0.04274   0.75006   0.00000  Uiso   1.00
C528   C     0.12421   0.02128   0.74945   0.00000  Uiso   1.00
C529   C     0.12420   0.31205   0.74952   0.00000  Uiso   1.00
C530   C     0.16663   0.29060   0.75015   0.00000  Uiso   1.00
C531   C     0.30120   0.19598   0.77675   0.00000  Uiso   1.00
C532   C     0.01753   0.19602   0.77666   0.00000  Uiso   1.00
C533   C     0.03183   0.13689   0.72416   0.00000  Uiso   1.00
C534   C     0.31567   0.13710   0.72377   0.00000  Uiso   1.00
C535   C     0.16665   0.08735   0.75000   0.00000  Uiso   1.00
C536   C     0.19250   0.16395   0.65023   0.00000  Uiso   1.00
C537   C     0.26930   0.14902   0.51194   0.00000  Uiso   1.00
C538   C     0.20676   0.15770   0.59389   0.00000  Uiso   1.00
C539   C     0.07985   0.17744   0.93384   0.00000  Uiso   1.00
C540   C     0.06805   0.18516   0.98655   0.00000  Uiso   1.00
C541   C     0.10211   0.17755   0.51315   0.00000  Uiso   1.00
Cu542  Cu    0.11978   0.16666   0.75000   0.00000  Uiso   1.00
Cu543  Cu    0.21355   0.16667   0.75000   0.00000  Uiso   1.00
H544   H     0.28491   0.16193   0.58334   0.00000  Uiso   1.00
H545   H     0.24222   0.03733   0.75127   0.00000  Uiso   1.00
H546   H     0.09105   0.03729   0.74890   0.00000  Uiso   1.00
H547   H     0.09103   0.29603   0.74902   0.00000  Uiso   1.00
H548   H     0.27662   0.21939   0.79831   0.00000  Uiso   1.00
H549   H     0.03035   0.21946   0.79812   0.00000  Uiso   1.00
H550   H     0.05594   0.11272   0.70402   0.00000  Uiso   1.00
H551   H     0.30277   0.11345   0.70265   0.00000  Uiso   1.00
H552   H     0.30771   0.14570   0.99121   0.00000  Uiso   1.00
H553   H     0.05348   0.18581   0.91370   0.00000  Uiso   1.00
H554   H     0.09286   0.18773   0.55297   0.00000  Uiso   1.00
H555   H     0.03312   0.19896   0.50651   0.00000  Uiso   1.00
H556   H     0.21550   0.12076   0.87166   0.00000  Uiso   1.00
H557   H     0.24221   0.29607   0.75135   0.00000  Uiso   1.00
N558   N     0.04931   0.16666   0.74998   0.00000  Uiso   1.00
N559   N     0.28402   0.16669   0.74999   0.00000  Uiso   1.00
O560   O     0.12708   0.22678   0.75000   0.00000  Uiso   1.00
O561   O     0.20627   0.22679   0.75000   0.00000  Uiso   1.00
O562   O     0.10775   0.16665   0.82549   0.00000  Uiso   1.00
O563   O     0.18694   0.16666   0.82549   0.00000  Uiso   1.00
O564   O     0.12706   0.10654   0.74999   0.00000  Uiso   1.00
O565   O     0.20625   0.10655   0.74999   0.00000  Uiso   1.00
O566   O     0.14640   0.16667   0.67451   0.00000  Uiso   1.00
O567   O     0.22559   0.16668   0.67451   0.00000  Uiso   1.00
C568   C     0.29295   0.12266   0.90392   0.00000  Uiso   1.00
N569   N     0.33199   0.11299   0.87992   0.00000  Uiso   1.00
Cl570  Cl    0.11545   0.12444   0.60138   0.00000  Uiso   1.00
C571   C     0.49999   0.24599   0.75008   0.00000  Uiso   1.00
C572   C     0.48122   0.15931   0.98815   0.00000  Uiso   1.00
C573   C     0.49366   0.15154   0.93435   0.00000  Uiso   1.00
C574   C     0.51664   0.15207   0.51467   0.00000  Uiso   1.00
C575   C     0.56627   0.14577   0.98630   0.00000  Uiso   1.00
C576   C     0.57746   0.13480   0.93380   0.00000  Uiso   1.00
C577   C     0.54020   0.13422   0.90985   0.00000  Uiso   1.00
C578   C     0.50404   0.15012   0.56871   0.00000  Uiso   1.00
C579   C     0.58960   0.15764   0.56482   0.00000  Uiso   1.00
C580   C     0.45976   0.16249   0.90674   0.00000  Uiso   1.00
C581   C     0.54238   0.31207   0.75080   0.00000  Uiso   1.00
C582   C     0.47423   0.16422   0.84984   0.00000  Uiso   1.00
C583   C     0.54239   0.02130   0.75075   0.00000  Uiso   1.00
C584   C     0.49997   0.04274   0.75006   0.00000  Uiso   1.00
C585   C     0.45754   0.02128   0.74945   0.00000  Uiso   1.00
C586   C     0.45753   0.31205   0.74952   0.00000  Uiso   1.00
C587   C     0.49996   0.29060   0.75015   0.00000  Uiso   1.00
C588   C     0.63454   0.19598   0.77675   0.00000  Uiso   1.00
C589   C     0.35086   0.19602   0.77666   0.00000  Uiso   1.00
C590   C     0.36516   0.13689   0.72416   0.00000  Uiso   1.00
C591   C     0.64901   0.13710   0.72377   0.00000  Uiso   1.00
C592   C     0.49999   0.08735   0.75000   0.00000  Uiso   1.00
C593   C     0.52584   0.16395   0.65023   0.00000  Uiso   1.00
C594   C     0.60263   0.14902   0.51194   0.00000  Uiso   1.00
C595   C     0.54010   0.15770   0.59389   0.00000  Uiso   1.00
C596   C     0.41318   0.17744   0.93384   0.00000  Uiso   1.00
C597   C     0.40139   0.18516   0.98655   0.00000  Uiso   1.00
C598   C     0.43544   0.17755   0.51315   0.00000  Uiso   1.00
Cu599  Cu    0.45311   0.16666   0.75000   0.00000  Uiso   1.00
Cu600  Cu    0.54689   0.16667   0.75000   0.00000  Uiso   1.00
H601   H     0.61825   0.16193   0.58334   0.00000  Uiso   1.00
H602   H     0.57555   0.03733   0.75127   0.00000  Uiso   1.00
H603   H     0.42438   0.03729   0.74890   0.00000  Uiso   1.00
H604   H     0.42436   0.29603   0.74902   0.00000  Uiso   1.00
H605   H     0.60995   0.21939   0.79831   0.00000  Uiso   1.00
H606   H     0.36368   0.21946   0.79812   0.00000  Uiso   1.00
H607   H     0.38927   0.11272   0.70402   0.00000  Uiso   1.00
H608   H     0.63611   0.11345   0.70265   0.00000  Uiso   1.00
H609   H     0.64104   0.14570   0.99121   0.00000  Uiso   1.00
H610   H     0.38681   0.18581   0.91370   0.00000  Uiso   1.00
H611   H     0.42619   0.18773   0.55297   0.00000  Uiso   1.00
H612   H     0.36645   0.19896   0.50651   0.00000  Uiso   1.00
H613   H     0.54884   0.12076   0.87166   0.00000  Uiso   1.00
H614   H     0.57554   0.29607   0.75135   0.00000  Uiso   1.00
N615   N     0.38265   0.16666   0.74998   0.00000  Uiso   1.00
N616   N     0.61735   0.16669   0.74999   0.00000  Uiso   1.00
O617   O     0.46042   0.22678   0.75000   0.00000  Uiso   1.00
O618   O     0.53961   0.22679   0.75000   0.00000  Uiso   1.00
O619   O     0.44108   0.16665   0.82549   0.00000  Uiso   1.00
O620   O     0.52027   0.16666   0.82549   0.00000  Uiso   1.00
O621   O     0.46039   0.10654   0.74999   0.00000  Uiso   1.00
O622   O     0.53958   0.10655   0.74999   0.00000  Uiso   1.00
O623   O     0.47973   0.16667   0.67451   0.00000  Uiso   1.00
O624   O     0.55892   0.16668   0.67451   0.00000  Uiso   1.00
C625   C     0.62628   0.12266   0.90392   0.00000  Uiso   1.00
N626   N     0.66533   0.11299   0.87992   0.00000  Uiso   1.00
Cl627  Cl    0.44879   0.12444   0.60138   0.00000  Uiso   1.00
C628   C     0.83332   0.24599   0.75008   0.00000  Uiso   1.00
C629   C     0.81456   0.15931   0.98815   0.00000  Uiso   1.00
C630   C     0.82699   0.15154   0.93435   0.00000  Uiso   1.00
C631   C     0.84998   0.15207   0.51467   0.00000  Uiso   1.00
C632   C     0.89961   0.14577   0.98630   0.00000  Uiso   1.00
C633   C     0.91079   0.13480   0.93380   0.00000  Uiso   1.00
C634   C     0.87354   0.13422   0.90985   0.00000  Uiso   1.00
C635   C     0.83737   0.15012   0.56871   0.00000  Uiso   1.00
C636   C     0.92294   0.15764   0.56482   0.00000  Uiso   1.00
C637   C     0.79310   0.16249   0.90674   0.00000  Uiso   1.00
C638   C     0.87572   0.31207   0.75080   0.00000  Uiso   1.00
C639   C     0.80756   0.16422   0.84984   0.00000  Uiso   1.00
C640   C     0.87572   0.02130   0.75075   0.00000  Uiso   1.00
C641   C     0.83331   0.04274   0.75006   0.00000  Uiso   1.00
C642   C     0.79087   0.02128   0.74945   0.00000  Uiso   1.00
C643   C     0.79086   0.31205   0.74952   0.00000  Uiso   1.00
C644   C     0.83330   0.29060   0.75015   0.00000  Uiso   1.00
C645   C     0.96787   0.19598   0.77675   0.00000  Uiso   1.00
C646   C     0.68419   0.19602   0.77666   0.00000  Uiso   1.00
C647   C     0.69849   0.13689   0.72416   0.00000  Uiso   1.00
C648   C     0.98234   0.13710   0.72377   0.00000  Uiso   1.00
C649   C     0.83332   0.08735   0.75000   0.00000  Uiso   1.00
C650   C     0.85917   0.16395   0.65023   0.00000  Uiso   1.00
C651   C     0.93597   0.14902   0.51194   0.00000  Uiso   1.00
C652   C     0.87343   0.15770   0.59389   0.00000  Uiso   1.00
C653   C     0.74652   0.17744   0.93384   0.00000  Uiso   1.00
C654   C     0.73472   0.18516   0.98655   0.00000  Uiso   1.00
C655   C     0.76877   0.17755   0.51315   0.00000  Uiso   1.00
Cu656  Cu    0.78645   0.16666   0.75000   0.00000  Uiso   1.00
Cu657  Cu    0.88022   0.16667   0.75000   0.00000  Uiso   1.00
H658   H     0.95158   0.16193   0.58334   0.00000  Uiso   1.00
H659   H     0.90889   0.03733   0.75127   0.00000  Uiso   1.00
H660   H     0.75772   0.03729   0.74890   0.00000  Uiso   1.00
H661   H     0.75769   0.29603   0.74902   0.00000  Uiso   1.00
H662   H     0.94328   0.21939   0.79831   0.00000  Uiso   1.00
H663   H     0.69702   0.21946   0.79812   0.00000  Uiso   1.00
H664   H     0.72260   0.11272   0.70402   0.00000  Uiso   1.00
H665   H     0.96944   0.11345   0.70265   0.00000  Uiso   1.00
H666   H     0.97438   0.14570   0.99121   0.00000  Uiso   1.00
H667   H     0.72015   0.18581   0.91370   0.00000  Uiso   1.00
H668   H     0.75953   0.18773   0.55297   0.00000  Uiso   1.00
H669   H     0.69978   0.19896   0.50651   0.00000  Uiso   1.00
H670   H     0.88217   0.12076   0.87166   0.00000  Uiso   1.00
H671   H     0.90887   0.29607   0.75135   0.00000  Uiso   1.00
N672   N     0.71598   0.16666   0.74998   0.00000  Uiso   1.00
N673   N     0.95069   0.16669   0.74999   0.00000  Uiso   1.00
O674   O     0.79375   0.22678   0.75000   0.00000  Uiso   1.00
O675   O     0.87294   0.22679   0.75000   0.00000  Uiso   1.00
O676   O     0.77441   0.16665   0.82549   0.00000  Uiso   1.00
O677   O     0.85360   0.16666   0.82549   0.00000  Uiso   1.00
O678   O     0.79373   0.10654   0.74999   0.00000  Uiso   1.00
O679   O     0.87292   0.10655   0.74999   0.00000  Uiso   1.00
O680   O     0.81306   0.16667   0.67451   0.00000  Uiso   1.00
O681   O     0.89225   0.16668   0.67451   0.00000  Uiso   1.00
C682   C     0.95961   0.12266   0.90392   0.00000  Uiso   1.00
N683   N     0.99866   0.11299   0.87992   0.00000  Uiso   1.00
Cl684  Cl    0.78212   0.12444   0.60138   0.00000  Uiso   1.00
C685   C     0.16666   0.57932   0.75008   0.00000  Uiso   1.00
C686   C     0.14789   0.49264   0.98815   0.00000  Uiso   1.00
C687   C     0.16032   0.48488   0.93435   0.00000  Uiso   1.00
C688   C     0.18331   0.48540   0.51467   0.00000  Uiso   1.00
C689   C     0.23294   0.47910   0.98630   0.00000  Uiso   1.00
C690   C     0.24412   0.46813   0.93380   0.00000  Uiso   1.00
C691   C     0.20687   0.46756   0.90985   0.00000  Uiso   1.00
C692   C     0.17070   0.48345   0.56871   0.00000  Uiso   1.00
C693   C     0.25627   0.49097   0.56482   0.00000  Uiso   1.00
C694   C     0.12643   0.49582   0.90674   0.00000  Uiso   1.00
C695   C     0.20905   0.64540   0.75080   0.00000  Uiso   1.00
C696   C     0.14089   0.49756   0.84984   0.00000  Uiso   1.00
C697   C     0.20906   0.35464   0.75075   0.00000  Uiso   1.00
C698   C     0.16664   0.37608   0.75006   0.00000  Uiso   1.00
C699   C     0.12421   0.35461   0.74945   0.00000  Uiso   1.00
C700   C     0.12420   0.64538   0.74952   0.00000  Uiso   1.00
C701   C     0.16663   0.62394   0.75015   0.00000  Uiso   1.00
C702   C     0.30120   0.52931   0.77675   0.00000  Uiso   1.00
C703   C     0.01753   0.52935   0.77666   0.00000  Uiso   1.00
C704   C     0.03183   0.47022   0.72416   0.00000  Uiso   1.00
C705   C     0.31567   0.47043   0.72377   0.00000  Uiso   1.00
C706   C     0.16665   0.42068   0.75000   0.00000  Uiso   1.00
C707   C     0.19250   0.49728   0.65023   0.00000  Uiso   1.00
C708   C     0.26930   0.48236   0.51194   0.00000  Uiso   1.00
C709   C     0.20676   0.49104   0.59389   0.00000  Uiso   1.00
C710   C     0.07985   0.51077   0.93384   0.00000  Uiso   1.00
C711   C     0.06805   0.51850   0.98655   0.00000  Uiso   1.00
C712   C     0.10211   0.51089   0.51315   0.00000  Uiso   1.00
Cu713  Cu    0.11978   0.49999   0.75000   0.00000  Uiso   1.00
Cu714  Cu    0.21355   0.50001   0.75000   0.00000  Uiso   1.00
H715   H     0.28491   0.49526   0.58334   0.00000  Uiso   1.00
H716   H     0.24222   0.37066   0.75127   0.00000  Uiso   1.00
H717   H     0.09105   0.37062   0.74890   0.00000  Uiso   1.00
H718   H     0.09103   0.62936   0.74902   0.00000  Uiso   1.00
H719   H     0.27662   0.55272   0.79831   0.00000  Uiso   1.00
H720   H     0.03035   0.55280   0.79812   0.00000  Uiso   1.00
H721   H     0.05594   0.44605   0.70402   0.00000  Uiso   1.00
H722   H     0.30277   0.44678   0.70265   0.00000  Uiso   1.00
H723   H     0.30771   0.47903   0.99121   0.00000  Uiso   1.00
H724   H     0.05348   0.51914   0.91370   0.00000  Uiso   1.00
H725   H     0.09286   0.52107   0.55297   0.00000  Uiso   1.00
H726   H     0.03312   0.53230   0.50651   0.00000  Uiso   1.00
H727   H     0.21550   0.45409   0.87166   0.00000  Uiso   1.00
H728   H     0.24221   0.62940   0.75135   0.00000  Uiso   1.00
N729   N     0.04931   0.49999   0.74998   0.00000  Uiso   1.00
N730   N     0.28402   0.50002   0.74999   0.00000  Uiso   1.00
O731   O     0.12708   0.56011   0.75000   0.00000  Uiso   1.00
O732   O     0.20627   0.56012   0.75000   0.00000  Uiso   1.00
O733   O     0.10775   0.49998   0.82549   0.00000  Uiso   1.00
O734   O     0.18694   0.49999   0.82549   0.00000  Uiso   1.00
O735   O     0.12706   0.43988   0.74999   0.00000  Uiso   1.00
O736   O     0.20625   0.43989   0.74999   0.00000  Uiso   1.00
O737   O     0.14640   0.50001   0.67451   0.00000  Uiso   1.00
O738   O     0.22559   0.50002   0.67451   0.00000  Uiso   1.00
C739   C     0.29295   0.45599   0.90392   0.00000  Uiso   1.00
N740   N     0.33199   0.44632   0.87992   0.00000  Uiso   1.00
Cl741  Cl    0.11545   0.45777   0.60138   0.00000  Uiso   1.00
C742   C     0.49999   0.57932   0.75008   0.00000  Uiso   1.00
C743   C     0.48122   0.49264   0.98815   0.00000  Uiso   1.00
C744   C     0.49366   0.48488   0.93435   0.00000  Uiso   1.00
C745   C     0.51664   0.48540   0.51467   0.00000  Uiso   1.00
C746   C     0.56627   0.47910   0.98630   0.00000  Uiso   1.00
C747   C     0.57746   0.46813   0.93380   0.00000  Uiso   1.00
C748   C     0.54020   0.46756   0.90985   0.00000  Uiso   1.00
C749   C     0.50404   0.48345   0.56871   0.00000  Uiso   1.00
C750   C     0.58960   0.49097   0.56482   0.00000  Uiso   1.00
C751   C     0.45976   0.49582   0.90674   0.00000  Uiso   1.00
C752   C     0.54238   0.64540   0.75080   0.00000  Uiso   1.00
C753   C     0.47423   0.49756   0.84984   0.00000  Uiso   1.00
C754   C     0.54239   0.35464   0.75075   0.00000  Uiso   1.00
C755   C     0.49997   0.37608   0.75006   0.00000  Uiso   1.00
C756   C     0.45754   0.35461   0.74945   0.00000  Uiso   1.00
C757   C     0.45753   0.64538   0.74952   0.00000  Uiso   1.00
C758   C     0.49996   0.62394   0.75015   0.00000  Uiso   1.00
C759   C     0.63454   0.52931   0.77675   0.00000  Uiso   1.00
C760   C     0.35086   0.52935   0.77666   0.00000  Uiso   1.00
C761   C     0.36516   0.47022   0.72416   0.00000  Uiso   1.00
C762   C     0.64901   0.47043   0.72377   0.00000  Uiso   1.00
C763   C     0.49999   0.42068   0.75000   0.00000  Uiso   1.00
C764   C     0.52584   0.49728   0.65023   0.00000  Uiso   1.00
C765   C     0.60263   0.48236   0.51194   0.00000  Uiso   1.00
C766   C     0.54010   0.49104   0.59389   0.00000  Uiso   1.00
C767   C     0.41318   0.51077   0.93384   0.00000  Uiso   1.00
C768   C     0.40139   0.51850   0.98655   0.00000  Uiso   1.00
C769   C     0.43544   0.51089   0.51315   0.00000  Uiso   1.00
Cu770  Cu    0.45311   0.49999   0.75000   0.00000  Uiso   1.00
Cu771  Cu    0.54689   0.50001   0.75000   0.00000  Uiso   1.00
H772   H     0.61825   0.49526   0.58334   0.00000  Uiso   1.00
H773   H     0.57555   0.37066   0.75127   0.00000  Uiso   1.00
H774   H     0.42438   0.37062   0.74890   0.00000  Uiso   1.00
H775   H     0.42436   0.62936   0.74902   0.00000  Uiso   1.00
H776   H     0.60995   0.55272   0.79831   0.00000  Uiso   1.00
H777   H     0.36368   0.55280   0.79812   0.00000  Uiso   1.00
H778   H     0.38927   0.44605   0.70402   0.00000  Uiso   1.00
H779   H     0.63611   0.44678   0.70265   0.00000  Uiso   1.00
H780   H     0.64104   0.47903   0.99121   0.00000  Uiso   1.00
H781   H     0.38681   0.51914   0.91370   0.00000  Uiso   1.00
H782   H     0.42619   0.52107   0.55297   0.00000  Uiso   1.00
H783   H     0.36645   0.53230   0.50651   0.00000  Uiso   1.00
H784   H     0.54884   0.45409   0.87166   0.00000  Uiso   1.00
H785   H     0.57554   0.62940   0.75135   0.00000  Uiso   1.00
N786   N     0.38265   0.49999   0.74998   0.00000  Uiso   1.00
N787   N     0.61735   0.50002   0.74999   0.00000  Uiso   1.00
O788   O     0.46042   0.56011   0.75000   0.00000  Uiso   1.00
O789   O     0.53961   0.56012   0.75000   0.00000  Uiso   1.00
O790   O     0.44108   0.49998   0.82549   0.00000  Uiso   1.00
O791   O     0.52027   0.49999   0.82549   0.00000  Uiso   1.00
O792   O     0.46039   0.43988   0.74999   0.00000  Uiso   1.00
O793   O     0.53958   0.43989   0.74999   0.00000  Uiso   1.00
O794   O     0.47973   0.50001   0.67451   0.00000  Uiso   1.00
O795   O     0.55892   0.50002   0.67451   0.00000  Uiso   1.00
C796   C     0.62628   0.45599   0.90392   0.00000  Uiso   1.00
N797   N     0.66533   0.44632   0.87992   0.00000  Uiso   1.00
Cl798  Cl    0.44879   0.45777   0.60138   0.00000  Uiso   1.00
C799   C     0.83332   0.57932   0.75008   0.00000  Uiso   1.00
C800   C     0.81456   0.49264   0.98815   0.00000  Uiso   1.00
C801   C     0.82699   0.48488   0.93435   0.00000  Uiso   1.00
C802   C     0.84998   0.48540   0.51467   0.00000  Uiso   1.00
C803   C     0.89961   0.47910   0.98630   0.00000  Uiso   1.00
C804   C     0.91079   0.46813   0.93380   0.00000  Uiso   1.00
C805   C     0.87354   0.46756   0.90985   0.00000  Uiso   1.00
C806   C     0.83737   0.48345   0.56871   0.00000  Uiso   1.00
C807   C     0.92294   0.49097   0.56482   0.00000  Uiso   1.00
C808   C     0.79310   0.49582   0.90674   0.00000  Uiso   1.00
C809   C     0.87572   0.64540   0.75080   0.00000  Uiso   1.00
C810   C     0.80756   0.49756   0.84984   0.00000  Uiso   1.00
C811   C     0.87572   0.35464   0.75075   0.00000  Uiso   1.00
C812   C     0.83331   0.37608   0.75006   0.00000  Uiso   1.00
C813   C     0.79087   0.35461   0.74945   0.00000  Uiso   1.00
C814   C     0.79086   0.64538   0.74952   0.00000  Uiso   1.00
C815   C     0.83330   0.62394   0.75015   0.00000  Uiso   1.00
C816   C     0.96787   0.52931   0.77675   0.00000  Uiso   1.00
C817   C     0.68419   0.52935   0.77666   0.00000  Uiso   1.00
C818   C     0.69849   0.47022   0.72416   0.00000  Uiso   1.00
C819   C     0.98234   0.47043   0.72377   0.00000  Uiso   1.00
C820   C     0.83332   0.42068   0.75000   0.00000  Uiso   1.00
C821   C     0.85917   0.49728   0.65023   0.00000  Uiso   1.00
C822   C     0.93597   0.48236   0.51194   0.00000  Uiso   1.00
C823   C     0.87343   0.49104   0.59389   0.00000  Uiso   1.00
C824   C     0.74652   0.51077   0.93384   0.00000  Uiso   1.00
C825   C     0.73472   0.51850   0.98655   0.00000  Uiso   1.00
C826   C     0.76877   0.51089   0.51315   0.00000  Uiso   1.00
Cu827  Cu    0.78645   0.49999   0.75000   0.00000  Uiso   1.00
Cu828  Cu    0.88022   0.50001   0.75000   0.00000  Uiso   1.00
H829   H     0.95158   0.49526   0.58334   0.00000  Uiso   1.00
H830   H     0.90889   0.37066   0.75127   0.00000  Uiso   1.00
H831   H     0.75772   0.37062   0.74890   0.00000  Uiso   1.00
H832   H     0.75769   0.62936   0.74902   0.00000  Uiso   1.00
H833   H     0.94328   0.55272   0.79831   0.00000  Uiso   1.00
H834   H     0.69702   0.55280   0.79812   0.00000  Uiso   1.00
H835   H     0.72260   0.44605   0.70402   0.00000  Uiso   1.00
H836   H     0.96944   0.44678   0.70265   0.00000  Uiso   1.00
H837   H     0.97438   0.47903   0.99121   0.00000  Uiso   1.00
H838   H     0.72015   0.51914   0.91370   0.00000  Uiso   1.00
H839   H     0.75953   0.52107   0.55297   0.00000  Uiso   1.00
H840   H     0.69978   0.53230   0.50651   0.00000  Uiso   1.00
H841   H     0.88217   0.45409   0.87166   0.00000  Uiso   1.00
H842   H     0.90887   0.62940   0.75135   0.00000  Uiso   1.00
N843   N     0.71598   0.49999   0.74998   0.00000  Uiso   1.00
N844   N     0.95069   0.50002   0.74999   0.00000  Uiso   1.00
O845   O     0.79375   0.56011   0.75000   0.00000  Uiso   1.00
O846   O     0.87294   0.56012   0.75000   0.00000  Uiso   1.00
O847   O     0.77441   0.49998   0.82549   0.00000  Uiso   1.00
O848   O     0.85360   0.49999   0.82549   0.00000  Uiso   1.00
O849   O     0.79373   0.43988   0.74999   0.00000  Uiso   1.00
O850   O     0.87292   0.43989   0.74999   0.00000  Uiso   1.00
O851   O     0.81306   0.50001   0.67451   0.00000  Uiso   1.00
O852   O     0.89225   0.50002   0.67451   0.00000  Uiso   1.00
C853   C     0.95961   0.45599   0.90392   0.00000  Uiso   1.00
N854   N     0.99866   0.44632   0.87992   0.00000  Uiso   1.00
Cl855  Cl    0.78212   0.45777   0.60138   0.00000  Uiso   1.00
C856   C     0.16666   0.91265   0.75008   0.00000  Uiso   1.00
C857   C     0.14789   0.82598   0.98815   0.00000  Uiso   1.00
C858   C     0.16032   0.81821   0.93435   0.00000  Uiso   1.00
C859   C     0.18331   0.81873   0.51467   0.00000  Uiso   1.00
C860   C     0.23294   0.81243   0.98630   0.00000  Uiso   1.00
C861   C     0.24412   0.80146   0.93380   0.00000  Uiso   1.00
C862   C     0.20687   0.80089   0.90985   0.00000  Uiso   1.00
C863   C     0.17070   0.81679   0.56871   0.00000  Uiso   1.00
C864   C     0.25627   0.82430   0.56482   0.00000  Uiso   1.00
C865   C     0.12643   0.82916   0.90674   0.00000  Uiso   1.00
C866   C     0.20905   0.97874   0.75080   0.00000  Uiso   1.00
C867   C     0.14089   0.83089   0.84984   0.00000  Uiso   1.00
C868   C     0.20906   0.68797   0.75075   0.00000  Uiso   1.00
C869   C     0.16664   0.70941   0.75006   0.00000  Uiso   1.00
C870   C     0.12421   0.68795   0.74945   0.00000  Uiso   1.00
C871   C     0.12420   0.97871   0.74952   0.00000  Uiso   1.00
C872   C     0.16663   0.95727   0.75015   0.00000  Uiso   1.00
C873   C     0.30120   0.86265   0.77675   0.00000  Uiso   1.00
C874   C     0.01753   0.86268   0.77666   0.00000  Uiso   1.00
C875   C     0.03183   0.80355   0.72416   0.00000  Uiso   1.00
C876   C     0.31567   0.80376   0.72377   0.00000  Uiso   1.00
C877   C     0.16665   0.75401   0.75000   0.00000  Uiso   1.00
C878   C     0.19250   0.83061   0.65023   0.00000  Uiso   1.00
C879   C     0.26930   0.81569   0.51194   0.00000  Uiso   1.00
C880   C     0.20676   0.82437   0.59389   0.00000  Uiso   1.00
C881   C     0.07985   0.84411   0.93384   0.00000  Uiso   1.00
C882   C     0.06805   0.85183   0.98655   0.00000  Uiso   1.00
C883   C     0.10211   0.84422   0.51315   0.00000  Uiso   1.00
Cu884  Cu    0.11978   0.83333   0.75000   0.00000  Uiso   1.00
Cu885  Cu    0.21355   0.83334   0.75000   0.00000  Uiso   1.00
H886   H     0.28491   0.82859   0.58334   0.00000  Uiso   1.00
H887   H     0.24222   0.70399   0.75127   0.00000  Uiso   1.00
H888   H     0.09105   0.70395   0.74890   0.00000  Uiso   1.00
H889   H     0.09103   0.96269   0.74902   0.00000  Uiso   1.00
H890   H     0.27662   0.88605   0.79831   0.00000  Uiso   1.00
H891   H     0.03035   0.88613   0.79812   0.00000  Uiso   1.00
H892   H     0.05594   0.77938   0.70402   0.00000  Uiso   1.00
H893   H     0.30277   0.78012   0.70265   0.00000  Uiso   1.00
H894   H     0.30771   0.81236   0.99121   0.00000  Uiso   1.00
H895   H     0.05348   0.85247   0.91370   0.00000  Uiso   1.00
H896   H     0.09286   0.85440   0.55297   0.00000  Uiso   1.00
H897   H     0.03312   0.86563   0.50651   0.00000  Uiso   1.00
H898   H     0.21550   0.78743   0.87166   0.00000  Uiso   1.00
H899   H     0.24221   0.96273   0.75135   0.00000  Uiso   1.00
N900   N     0.04931   0.83332   0.74998   0.00000  Uiso   1.00
N901   N     0.28402   0.83335   0.74999   0.00000  Uiso   1.00
O902   O     0.12708   0.89345   0.75000   0.00000  Uiso   1.00
O903   O     0.20627   0.89346   0.75000   0.00000  Uiso   1.00
O904   O     0.10775   0.83332   0.82549   0.00000  Uiso   1.00
O905   O     0.18694   0.83333   0.82549   0.00000  Uiso   1.00
O906   O     0.12706   0.77321   0.74999   0.00000  Uiso   1.00
O907   O     0.20625   0.77322   0.74999   0.00000  Uiso   1.00
O908   O     0.14640   0.83334   0.67451   0.00000  Uiso   1.00
O909   O     0.22559   0.83335   0.67451   0.00000  Uiso   1.00
C910   C     0.29295   0.78933   0.90392   0.00000  Uiso   1.00
N911   N     0.33199   0.77966   0.87992   0.00000  Uiso   1.00
Cl912  Cl    0.11545   0.79111   0.60138   0.00000  Uiso   1.00
C913   C     0.49999   0.91265   0.75008   0.00000  Uiso   1.00
C914   C     0.48122   0.82598   0.98815   0.00000  Uiso   1.00
C915   C     0.49366   0.81821   0.93435   0.00000  Uiso   1.00
C916   C     0.51664   0.81873   0.51467   0.00000  Uiso   1.00
C917   C     0.56627   0.81243   0.98630   0.00000  Uiso   1.00
C918   C     0.57746   0.80146   0.93380   0.00000  Uiso   1.00
C919   C     0.54020   0.80089   0.90985   0.00000  Uiso   1.00
C920   C     0.50404   0.81679   0.56871   0.00000  Uiso   1.00
C921   C     0.58960   0.82430   0.56482   0.00000  Uiso   1.00
C922   C     0.45976   0.82916   0.90674   0.00000  Uiso   1.00
C923   C     0.54238   0.97874   0.75080   0.00000  Uiso   1.00
C924   C     0.47423   0.83089   0.84984   0.00000  Uiso   1.00
C925   C     0.54239   0.68797   0.75075   0.00000  Uiso   1.00
C926   C     0.49997   0.70941   0.75006   0.00000  Uiso   1.00
C927   C     0.45754   0.68795   0.74945   0.00000  Uiso   1.00
C928   C     0.45753   0.97871   0.74952   0.00000  Uiso   1.00
C929   C     0.49996   0.95727   0.75015   0.00000  Uiso   1.00
C930   C     0.63454   0.86265   0.77675   0.00000  Uiso   1.00
C931   C     0.35086   0.86268   0.77666   0.00000  Uiso   1.00
C932   C     0.36516   0.80355   0.72416   0.00000  Uiso   1.00
C933   C     0.64901   0.80376   0.72377   0.00000  Uiso   1.00
C934   C     0.49999   0.75401   0.75000   0.00000  Uiso   1.00
C935   C     0.52584   0.83061   0.65023   0.00000  Uiso   1.00
C936   C     0.60263   0.81569   0.51194   0.00000  Uiso   1.00
C937   C     0.54010   0.82437   0.59389   0.00000  Uiso   1.00
C938   C     0.41318   0.84411   0.93384   0.00000  Uiso   1.00
C939   C     0.40139   0.85183   0.98655   0.00000  Uiso   1.00
C940   C     0.43544   0.84422   0.51315   0.00000  Uiso   1.00
Cu941  Cu    0.45311   0.83333   0.75000   0.00000  Uiso   1.00
Cu942  Cu    0.54689   0.83334   0.75000   0.00000  Uiso   1.00
H943   H     0.61825   0.82859   0.58334   0.00000  Uiso   1.00
H944   H     0.57555   0.70399   0.75127   0.00000  Uiso   1.00
H945   H     0.42438   0.70395   0.74890   0.00000  Uiso   1.00
H946   H     0.42436   0.96269   0.74902   0.00000  Uiso   1.00
H947   H     0.60995   0.88605   0.79831   0.00000  Uiso   1.00
H948   H     0.36368   0.88613   0.79812   0.00000  Uiso   1.00
H949   H     0.38927   0.77938   0.70402   0.00000  Uiso   1.00
H950   H     0.63611   0.78012   0.70265   0.00000  Uiso   1.00
H951   H     0.64104   0.81236   0.99121   0.00000  Uiso   1.00
H952   H     0.38681   0.85247   0.91370   0.00000  Uiso   1.00
H953   H     0.42619   0.85440   0.55297   0.00000  Uiso   1.00
H954   H     0.36645   0.86563   0.50651   0.00000  Uiso   1.00
H955   H     0.54884   0.78743   0.87166   0.00000  Uiso   1.00
H956   H     0.57554   0.96273   0.75135   0.00000  Uiso   1.00
N957   N     0.38265   0.83332   0.74998   0.00000  Uiso   1.00
N958   N     0.61735   0.83335   0.74999   0.00000  Uiso   1.00
O959   O     0.46042   0.89345   0.75000   0.00000  Uiso   1.00
O960   O     0.53961   0.89346   0.75000   0.00000  Uiso   1.00
O961   O     0.44108   0.83332   0.82549   0.00000  Uiso   1.00
O962   O     0.52027   0.83333   0.82549   0.00000  Uiso   1.00
O963   O     0.46039   0.77321   0.74999   0.00000  Uiso   1.00
O964   O     0.53958   0.77322   0.74999   0.00000  Uiso   1.00
O965   O     0.47973   0.83334   0.67451   0.00000  Uiso   1.00
O966   O     0.55892   0.83335   0.67451   0.00000  Uiso   1.00
C967   C     0.62628   0.78933   0.90392   0.00000  Uiso   1.00
N968   N     0.66533   0.77966   0.87992   0.00000  Uiso   1.00
Cl969  Cl    0.44879   0.79111   0.60138   0.00000  Uiso   1.00
C970   C     0.83332   0.91265   0.75008   0.00000  Uiso   1.00
C971   C     0.81456   0.82598   0.98815   0.00000  Uiso   1.00
C972   C     0.82699   0.81821   0.93435   0.00000  Uiso   1.00
C973   C     0.84998   0.81873   0.51467   0.00000  Uiso   1.00
C974   C     0.89961   0.81243   0.98630   0.00000  Uiso   1.00
C975   C     0.91079   0.80146   0.93380   0.00000  Uiso   1.00
C976   C     0.87354   0.80089   0.90985   0.00000  Uiso   1.00
C977   C     0.83737   0.81679   0.56871   0.00000  Uiso   1.00
C978   C     0.92294   0.82430   0.56482   0.00000  Uiso   1.00
C979   C     0.79310   0.82916   0.90674   0.00000  Uiso   1.00
C980   C     0.87572   0.97874   0.75080   0.00000  Uiso   1.00
C981   C     0.80756   0.83089   0.84984   0.00000  Uiso   1.00
C982   C     0.87572   0.68797   0.75075   0.00000  Uiso   1.00
C983   C     0.83331   0.70941   0.75006   0.00000  Uiso   1.00
C984   C     0.79087   0.68795   0.74945   0.00000  Uiso   1.00
C985   C     0.79086   0.97871   0.74952   0.00000  Uiso   1.00
C986   C     0.83330   0.95727   0.75015   0.00000  Uiso   1.00
C987   C     0.96787   0.86265   0.77675   0.00000  Uiso   1.00
C988   C     0.68419   0.86268   0.77666   0.00000  Uiso   1.00
C989   C     0.69849   0.80355   0.72416   0.00000  Uiso   1.00
C990   C     0.98234   0.80376   0.72377   0.00000  Uiso   1.00
C991   C     0.83332   0.75401   0.75000   0.00000  Uiso   1.00
C992   C     0.85917   0.83061   0.65023   0.00000  Uiso   1.00
C993   C     0.93597   0.81569   0.51194   0.00000  Uiso   1.00
C994   C     0.87343   0.82437   0.59389   0.00000  Uiso   1.00
C995   C     0.74652   0.84411   0.93384   0.00000  Uiso   1.00
C996   C     0.73472   0.85183   0.98655   0.00000  Uiso   1.00
C997   C     0.76877   0.84422   0.51315   0.00000  Uiso   1.00
Cu998  Cu    0.78645   0.83333   0.75000   0.00000  Uiso   1.00
Cu999  Cu    0.88022   0.83334   0.75000   0.00000  Uiso   1.00
H1000  H     0.95158   0.82859   0.58334   0.00000  Uiso   1.00
H1001  H     0.90889   0.70399   0.75127   0.00000  Uiso   1.00
H1002  H     0.75772   0.70395   0.74890   0.00000  Uiso   1.00
H1003  H     0.75769   0.96269   0.74902   0.00000  Uiso   1.00
H1004  H     0.94328   0.88605   0.79831   0.00000  Uiso   1.00
H1005  H     0.69702   0.88613   0.79812   0.00000  Uiso   1.00
H1006  H     0.72260   0.77938   0.70402   0.00000  Uiso   1.00
H1007  H     0.96944   0.78012   0.70265   0.00000  Uiso   1.00
H1008  H     0.97438   0.81236   0.99121   0.00000  Uiso   1.00
H1009  H     0.72015   0.85247   0.91370   0.00000  Uiso   1.00
H1010  H     0.75953   0.85440   0.55297   0.00000  Uiso   1.00
H1011  H     0.69978   0.86563   0.50651   0.00000  Uiso   1.00
H1012  H     0.88217   0.78743   0.87166   0.00000  Uiso   1.00
H1013  H     0.90887   0.96273   0.75135   0.00000  Uiso   1.00
N1014  N     0.71598   0.83332   0.74998   0.00000  Uiso   1.00
N1015  N     0.95069   0.83335   0.74999   0.00000  Uiso   1.00
O1016  O     0.79375   0.89345   0.75000   0.00000  Uiso   1.00
O1017  O     0.87294   0.89346   0.75000   0.00000  Uiso   1.00
O1018  O     0.77441   0.83332   0.82549   0.00000  Uiso   1.00
O1019  O     0.85360   0.83333   0.82549   0.00000  Uiso   1.00
O1020  O     0.79373   0.77321   0.74999   0.00000  Uiso   1.00
O1021  O     0.87292   0.77322   0.74999   0.00000  Uiso   1.00
O1022  O     0.81306   0.83334   0.67451   0.00000  Uiso   1.00
O1023  O     0.89225   0.83335   0.67451   0.00000  Uiso   1.00
C1024  C     0.95961   0.78933   0.90392   0.00000  Uiso   1.00
N1025  N     0.99866   0.77966   0.87992   0.00000  Uiso   1.00
Cl1026 Cl    0.78212   0.79111   0.60138   0.00000  Uiso   1.00
loop_
_geom_bond_atom_site_label_1
_geom_bond_atom_site_label_2
_geom_bond_distance
_geom_bond_site_symmetry_2
_ccdc_geom_bond_type
C1     O48     1.290   .     A
C1     C17     1.450   .     S
C1     O47     1.290   .     A
C2     C3      1.414   .     A
C2     C517    1.417   .     S
C2     C541    1.414   .     S
C3     C10     1.427   .     A
C3     C7      1.416   .     A
C4     C8      1.400   .     A
C4     C515    1.417   1_554 S
C4     C518    1.415   1_554 S
C5     C6      1.404   .     A
C5     C517    1.415   .     S
C5     C537    1.408   .     S
C6     C7      1.395   .     A
C6     C55     1.447   .     S
C7     H43     1.080   .     S
C8     Cl57    1.777   .     S
C8     C25     1.409   .     A
C9     C25     1.403   .     A
C9     C24     1.395   .     A
C9     H31     1.083   .     S
C10    C12     1.472   .     S
C10    C26     1.404   .     A
C11    H44     1.083   .     S
C11    C17     1.401   .     A
C11    C184    1.383   .     S
C12    O50     1.290   .     A
C12    O49     1.301   .     A
C13    H32     1.083   .     S
C13    C14     1.401   .     A
C13    C353    1.383   1_545 S
C14    C22     1.450   .     S
C14    C15     1.401   .     A
C15    H33     1.083   .     S
C15    C358    1.383   1_545 S
C16    H34     1.083   .     S
C16    C17     1.401   .     A
C16    C186    1.383   .     S
C18    H35     1.082   .     S
C18    N46     1.367   .     A
C18    C76     1.416   .     S
C19    N45     1.367   .     A
C19    H36     1.082   .     S
C19    C132    1.416   1_455 S
C20    H37     1.080   .     S
C20    N45     1.367   .     A
C20    C135    1.415   1_455 S
C21    N46     1.366   .     A
C21    H38     1.082   .     S
C21    C77     1.415   .     S
C22    O51     1.290   .     A
C22    O52     1.290   .     A
C23    O53     1.291   .     A
C23    C25     1.470   .     S
C23    O54     1.299   .     A
C24    C518    1.408   1_554 S
C24    H552    1.081   1_554 S
C26    H40     1.083   .     S
C26    C27     1.386   .     A
C27    C541    1.388   .     S
C27    H555    1.083   .     S
C28    H41     1.081   .     S
C28    C540    1.388   1_554 S
C28    C515    1.414   1_554 S
Cu29   O49     1.967   .     S
Cu29   Cu30    2.675   .     S
Cu29   O47     1.965   .     S
Cu29   O51     1.965   .     S
Cu29   N45     2.010   .     S
Cu29   O53     1.958   .     S
Cu30   O50     1.958   .     S
Cu30   O54     1.967   .     S
Cu30   O48     1.965   .     S
Cu30   N46     2.010   .     S
Cu30   O52     1.965   .     S
H39    C537    1.081   .     S
H42    C540    1.083   1_554 S
C55    N56     1.157   .     T
C58    O105    1.290   .     A
C58    C74     1.450   .     S
C58    O104    1.290   .     A
C59    C60     1.414   .     A
C59    C574    1.417   .     S
C59    C598    1.414   .     S
C60    C67     1.427   .     A
C60    C64     1.416   .     A
C61    C65     1.400   .     A
C61    C572    1.417   1_554 S
C61    C575    1.415   1_554 S
C62    C63     1.404   .     A
C62    C574    1.415   .     S
C62    C594    1.408   .     S
C63    C64     1.395   .     A
C63    C112    1.447   .     S
C64    H100    1.080   .     S
C65    Cl114   1.777   .     S
C65    C82     1.409   .     A
C66    C82     1.403   .     A
C66    C81     1.395   .     A
C66    H88     1.083   .     S
C67    C69     1.472   .     S
C67    C83     1.404   .     A
C68    H101    1.083   .     S
C68    C74     1.401   .     A
C68    C241    1.383   .     S
C69    O107    1.290   .     A
C69    O106    1.301   .     A
C70    H89     1.083   .     S
C70    C71     1.401   .     A
C70    C410    1.383   1_545 S
C71    C79     1.450   .     S
C71    C72     1.401   .     A
C72    H90     1.083   .     S
C72    C415    1.383   1_545 S
C73    H91     1.083   .     S
C73    C74     1.401   .     A
C73    C243    1.383   .     S
C75    H92     1.082   .     S
C75    N103    1.367   .     A
C75    C133    1.416   .     S
C76    N102    1.367   .     A
C76    H93     1.082   .     S
C77    H94     1.080   .     S
C77    N102    1.367   .     A
C78    N103    1.366   .     A
C78    H95     1.082   .     S
C78    C134    1.415   .     S
C79    O108    1.290   .     A
C79    O109    1.290   .     A
C80    O110    1.291   .     A
C80    C82     1.470   .     S
C80    O111    1.299   .     A
C81    C575    1.408   1_554 S
C81    H609    1.081   1_554 S
C83    H97     1.083   .     S
C83    C84     1.386   .     A
C84    C598    1.388   .     S
C84    H612    1.083   .     S
C85    H98     1.081   .     S
C85    C597    1.388   1_554 S
C85    C572    1.414   1_554 S
Cu86   O106    1.967   .     S
Cu86   Cu87    2.675   .     S
Cu86   O104    1.965   .     S
Cu86   O108    1.965   .     S
Cu86   N102    2.010   .     S
Cu86   O110    1.958   .     S
Cu87   O107    1.958   .     S
Cu87   O111    1.967   .     S
Cu87   O105    1.965   .     S
Cu87   N103    2.010   .     S
Cu87   O109    1.965   .     S
H96    C594    1.081   .     S
H99    C597    1.083   1_554 S
C112   N113    1.157   .     T
C115   O162    1.290   .     A
C115   C131    1.450   .     S
C115   O161    1.290   .     A
C116   C117    1.414   .     A
C116   C631    1.417   .     S
C116   C655    1.414   .     S
C117   C124    1.427   .     A
C117   C121    1.416   .     A
C118   C122    1.400   .     A
C118   C629    1.417   1_554 S
C118   C632    1.415   1_554 S
C119   C120    1.404   .     A
C119   C631    1.415   .     S
C119   C651    1.408   .     S
C120   C121    1.395   .     A
C120   C169    1.447   .     S
C121   H157    1.080   .     S
C122   Cl171   1.777   .     S
C122   C139    1.409   .     A
C123   C139    1.403   .     A
C123   C138    1.395   .     A
C123   H145    1.083   .     S
C124   C126    1.472   .     S
C124   C140    1.404   .     A
C125   H158    1.083   .     S
C125   C131    1.401   .     A
C125   C298    1.383   .     S
C126   O164    1.290   .     A
C126   O163    1.301   .     A
C127   H146    1.083   .     S
C127   C128    1.401   .     A
C127   C467    1.383   1_545 S
C128   C136    1.450   .     S
C128   C129    1.401   .     A
C129   H147    1.083   .     S
C129   C472    1.383   1_545 S
C130   H148    1.083   .     S
C130   C131    1.401   .     A
C130   C300    1.383   .     S
C132   H149    1.082   .     S
C132   N160    1.367   .     A
C132   C19     1.416   1_655 S
C133   N159    1.367   .     A
C133   H150    1.082   .     S
C134   H151    1.080   .     S
C134   N159    1.367   .     A
C135   N160    1.366   .     A
C135   H152    1.082   .     S
C135   C20     1.415   1_655 S
C136   O165    1.290   .     A
C136   O166    1.290   .     A
C137   O167    1.291   .     A
C137   C139    1.470   .     S
C137   O168    1.299   .     A
C138   C632    1.408   1_554 S
C138   H666    1.081   1_554 S
C140   H154    1.083   .     S
C140   C141    1.386   .     A
C141   C655    1.388   .     S
C141   H669    1.083   .     S
C142   H155    1.081   .     S
C142   C654    1.388   1_554 S
C142   C629    1.414   1_554 S
Cu143  O163    1.967   .     S
Cu143  Cu144   2.675   .     S
Cu143  O161    1.965   .     S
Cu143  O165    1.965   .     S
Cu143  N159    2.010   .     S
Cu143  O167    1.958   .     S
Cu144  O164    1.958   .     S
Cu144  O168    1.967   .     S
Cu144  O162    1.965   .     S
Cu144  N160    2.010   .     S
Cu144  O166    1.965   .     S
H153   C651    1.081   .     S
H156   C654    1.083   1_554 S
C169   N170    1.157   .     T
C172   O219    1.290   .     A
C172   C188    1.450   .     S
C172   O218    1.290   .     A
C173   C174    1.414   .     A
C173   C688    1.417   .     S
C173   C712    1.414   .     S
C174   C181    1.427   .     A
C174   C178    1.416   .     A
C175   C179    1.400   .     A
C175   C686    1.417   1_554 S
C175   C689    1.415   1_554 S
C176   C177    1.404   .     A
C176   C688    1.415   .     S
C176   C708    1.408   .     S
C177   C178    1.395   .     A
C177   C226    1.447   .     S
C178   H214    1.080   .     S
C179   Cl228   1.777   .     S
C179   C196    1.409   .     A
C180   C196    1.403   .     A
C180   C195    1.395   .     A
C180   H202    1.083   .     S
C181   C183    1.472   .     S
C181   C197    1.404   .     A
C182   H215    1.083   .     S
C182   C188    1.401   .     A
C182   C355    1.383   .     S
C183   O221    1.290   .     A
C183   O220    1.301   .     A
C184   H203    1.083   .     S
C184   C185    1.401   .     A
C185   C193    1.450   .     S
C185   C186    1.401   .     A
C186   H204    1.083   .     S
C187   H205    1.083   .     S
C187   C188    1.401   .     A
C187   C357    1.383   .     S
C189   H206    1.082   .     S
C189   N217    1.367   .     A
C189   C247    1.416   .     S
C190   N216    1.367   .     A
C190   H207    1.082   .     S
C190   C303    1.416   1_455 S
C191   H208    1.080   .     S
C191   N216    1.367   .     A
C191   C306    1.415   1_455 S
C192   N217    1.366   .     A
C192   H209    1.082   .     S
C192   C248    1.415   .     S
C193   O222    1.290   .     A
C193   O223    1.290   .     A
C194   O224    1.291   .     A
C194   C196    1.470   .     S
C194   O225    1.299   .     A
C195   C689    1.408   1_554 S
C195   H723    1.081   1_554 S
C197   H211    1.083   .     S
C197   C198    1.386   .     A
C198   C712    1.388   .     S
C198   H726    1.083   .     S
C199   H212    1.081   .     S
C199   C711    1.388   1_554 S
C199   C686    1.414   1_554 S
Cu200  O220    1.967   .     S
Cu200  Cu201   2.675   .     S
Cu200  O218    1.965   .     S
Cu200  O222    1.965   .     S
Cu200  N216    2.010   .     S
Cu200  O224    1.958   .     S
Cu201  O221    1.958   .     S
Cu201  O225    1.967   .     S
Cu201  O219    1.965   .     S
Cu201  N217    2.010   .     S
Cu201  O223    1.965   .     S
H210   C708    1.081   .     S
H213   C711    1.083   1_554 S
C226   N227    1.157   .     T
C229   O276    1.290   .     A
C229   C245    1.450   .     S
C229   O275    1.290   .     A
C230   C231    1.414   .     A
C230   C745    1.417   .     S
C230   C769    1.414   .     S
C231   C238    1.427   .     A
C231   C235    1.416   .     A
C232   C236    1.400   .     A
C232   C743    1.417   1_554 S
C232   C746    1.415   1_554 S
C233   C234    1.404   .     A
C233   C745    1.415   .     S
C233   C765    1.408   .     S
C234   C235    1.395   .     A
C234   C283    1.447   .     S
C235   H271    1.080   .     S
C236   Cl285   1.777   .     S
C236   C253    1.409   .     A
C237   C253    1.403   .     A
C237   C252    1.395   .     A
C237   H259    1.083   .     S
C238   C240    1.472   .     S
C238   C254    1.404   .     A
C239   H272    1.083   .     S
C239   C245    1.401   .     A
C239   C412    1.383   .     S
C240   O278    1.290   .     A
C240   O277    1.301   .     A
C241   H260    1.083   .     S
C241   C242    1.401   .     A
C242   C250    1.450   .     S
C242   C243    1.401   .     A
C243   H261    1.083   .     S
C244   H262    1.083   .     S
C244   C245    1.401   .     A
C244   C414    1.383   .     S
C246   H263    1.082   .     S
C246   N274    1.367   .     A
C246   C304    1.416   .     S
C247   N273    1.367   .     A
C247   H264    1.082   .     S
C248   H265    1.080   .     S
C248   N273    1.367   .     A
C249   N274    1.366   .     A
C249   H266    1.082   .     S
C249   C305    1.415   .     S
C250   O279    1.290   .     A
C250   O280    1.290   .     A
C251   O281    1.291   .     A
C251   C253    1.470   .     S
C251   O282    1.299   .     A
C252   C746    1.408   1_554 S
C252   H780    1.081   1_554 S
C254   H268    1.083   .     S
C254   C255    1.386   .     A
C255   C769    1.388   .     S
C255   H783    1.083   .     S
C256   H269    1.081   .     S
C256   C768    1.388   1_554 S
C256   C743    1.414   1_554 S
Cu257  O277    1.967   .     S
Cu257  Cu258   2.675   .     S
Cu257  O275    1.965   .     S
Cu257  O279    1.965   .     S
Cu257  N273    2.010   .     S
Cu257  O281    1.958   .     S
Cu258  O278    1.958   .     S
Cu258  O282    1.967   .     S
Cu258  O276    1.965   .     S
Cu258  N274    2.010   .     S
Cu258  O280    1.965   .     S
H267   C765    1.081   .     S
H270   C768    1.083   1_554 S
C283   N284    1.157   .     T
C286   O333    1.290   .     A
C286   C302    1.450   .     S
C286   O332    1.290   .     A
C287   C288    1.414   .     A
C287   C802    1.417   .     S
C287   C826    1.414   .     S
C288   C295    1.427   .     A
C288   C292    1.416   .     A
C289   C293    1.400   .     A
C289   C800    1.417   1_554 S
C289   C803    1.415   1_554 S
C290   C291    1.404   .     A
C290   C802    1.415   .     S
C290   C822    1.408   .     S
C291   C292    1.395   .     A
C291   C340    1.447   .     S
C292   H328    1.080   .     S
C293   Cl342   1.777   .     S
C293   C310    1.409   .     A
C294   C310    1.403   .     A
C294   C309    1.395   .     A
C294   H316    1.083   .     S
C295   C297    1.472   .     S
C295   C311    1.404   .     A
C296   H329    1.083   .     S
C296   C302    1.401   .     A
C296   C469    1.383   .     S
C297   O335    1.290   .     A
C297   O334    1.301   .     A
C298   H317    1.083   .     S
C298   C299    1.401   .     A
C299   C307    1.450   .     S
C299   C300    1.401   .     A
C300   H318    1.083   .     S
C301   H319    1.083   .     S
C301   C302    1.401   .     A
C301   C471    1.383   .     S
C303   H320    1.082   .     S
C303   N331    1.367   .     A
C303   C190    1.416   1_655 S
C304   N330    1.367   .     A
C304   H321    1.082   .     S
C305   H322    1.080   .     S
C305   N330    1.367   .     A
C306   N331    1.366   .     A
C306   H323    1.082   .     S
C306   C191    1.415   1_655 S
C307   O336    1.290   .     A
C307   O337    1.290   .     A
C308   O338    1.291   .     A
C308   C310    1.470   .     S
C308   O339    1.299   .     A
C309   C803    1.408   1_554 S
C309   H837    1.081   1_554 S
C311   H325    1.083   .     S
C311   C312    1.386   .     A
C312   C826    1.388   .     S
C312   H840    1.083   .     S
C313   H326    1.081   .     S
C313   C825    1.388   1_554 S
C313   C800    1.414   1_554 S
Cu314  O334    1.967   .     S
Cu314  Cu315   2.675   .     S
Cu314  O332    1.965   .     S
Cu314  O336    1.965   .     S
Cu314  N330    2.010   .     S
Cu314  O338    1.958   .     S
Cu315  O335    1.958   .     S
Cu315  O339    1.967   .     S
Cu315  O333    1.965   .     S
Cu315  N331    2.010   .     S
Cu315  O337    1.965   .     S
H324   C822    1.081   .     S
H327   C825    1.083   1_554 S
C340   N341    1.157   .     T
C343   O390    1.290   .     A
C343   C359    1.450   .     S
C343   O389    1.290   .     A
C344   C345    1.414   .     A
C344   C859    1.417   .     S
C344   C883    1.414   .     S
C345   C352    1.427   .     A
C345   C349    1.416   .     A
C346   C350    1.400   .     A
C346   C857    1.417   1_554 S
C346   C860    1.415   1_554 S
C347   C348    1.404   .     A
C347   C859    1.415   .     S
C347   C879    1.408   .     S
C348   C349    1.395   .     A
C348   C397    1.447   .     S
C349   H385    1.080   .     S
C350   Cl399   1.777   .     S
C350   C367    1.409   .     A
C351   C367    1.403   .     A
C351   C366    1.395   .     A
C351   H373    1.083   .     S
C352   C354    1.472   .     S
C352   C368    1.404   .     A
C353   H386    1.083   .     S
C353   C359    1.401   .     A
C353   C13     1.383   1_565 S
C354   O392    1.290   .     A
C354   O391    1.301   .     A
C355   H374    1.083   .     S
C355   C356    1.401   .     A
C356   C364    1.450   .     S
C356   C357    1.401   .     A
C357   H375    1.083   .     S
C358   H376    1.083   .     S
C358   C359    1.401   .     A
C358   C15     1.383   1_565 S
C360   H377    1.082   .     S
C360   N388    1.367   .     A
C360   C418    1.416   .     S
C361   N387    1.367   .     A
C361   H378    1.082   .     S
C361   C474    1.416   1_455 S
C362   H379    1.080   .     S
C362   N387    1.367   .     A
C362   C477    1.415   1_455 S
C363   N388    1.366   .     A
C363   H380    1.082   .     S
C363   C419    1.415   .     S
C364   O393    1.290   .     A
C364   O394    1.290   .     A
C365   O395    1.291   .     A
C365   C367    1.470   .     S
C365   O396    1.299   .     A
C366   C860    1.408   1_554 S
C366   H894    1.081   1_554 S
C368   H382    1.083   .     S
C368   C369    1.386   .     A
C369   C883    1.388   .     S
C369   H897    1.083   .     S
C370   H383    1.081   .     S
C370   C882    1.388   1_554 S
C370   C857    1.414   1_554 S
Cu371  O391    1.967   .     S
Cu371  Cu372   2.675   .     S
Cu371  O389    1.965   .     S
Cu371  O393    1.965   .     S
Cu371  N387    2.010   .     S
Cu371  O395    1.958   .     S
Cu372  O392    1.958   .     S
Cu372  O396    1.967   .     S
Cu372  O390    1.965   .     S
Cu372  N388    2.010   .     S
Cu372  O394    1.965   .     S
H381   C879    1.081   .     S
H384   C882    1.083   1_554 S
C397   N398    1.157   .     T
C400   O447    1.290   .     A
C400   C416    1.450   .     S
C400   O446    1.290   .     A
C401   C402    1.414   .     A
C401   C916    1.417   .     S
C401   C940    1.414   .     S
C402   C409    1.427   .     A
C402   C406    1.416   .     A
C403   C407    1.400   .     A
C403   C914    1.417   1_554 S
C403   C917    1.415   1_554 S
C404   C405    1.404   .     A
C404   C916    1.415   .     S
C404   C936    1.408   .     S
C405   C406    1.395   .     A
C405   C454    1.447   .     S
C406   H442    1.080   .     S
C407   Cl456   1.777   .     S
C407   C424    1.409   .     A
C408   C424    1.403   .     A
C408   C423    1.395   .     A
C408   H430    1.083   .     S
C409   C411    1.472   .     S
C409   C425    1.404   .     A
C410   H443    1.083   .     S
C410   C416    1.401   .     A
C410   C70     1.383   1_565 S
C411   O449    1.290   .     A
C411   O448    1.301   .     A
C412   H431    1.083   .     S
C412   C413    1.401   .     A
C413   C421    1.450   .     S
C413   C414    1.401   .     A
C414   H432    1.083   .     S
C415   H433    1.083   .     S
C415   C416    1.401   .     A
C415   C72     1.383   1_565 S
C417   H434    1.082   .     S
C417   N445    1.367   .     A
C417   C475    1.416   .     S
C418   N444    1.367   .     A
C418   H435    1.082   .     S
C419   H436    1.080   .     S
C419   N444    1.367   .     A
C420   N445    1.366   .     A
C420   H437    1.082   .     S
C420   C476    1.415   .     S
C421   O450    1.290   .     A
C421   O451    1.290   .     A
C422   O452    1.291   .     A
C422   C424    1.470   .     S
C422   O453    1.299   .     A
C423   C917    1.408   1_554 S
C423   H951    1.081   1_554 S
C425   H439    1.083   .     S
C425   C426    1.386   .     A
C426   C940    1.388   .     S
C426   H954    1.083   .     S
C427   H440    1.081   .     S
C427   C939    1.388   1_554 S
C427   C914    1.414   1_554 S
Cu428  O448    1.967   .     S
Cu428  Cu429   2.675   .     S
Cu428  O446    1.965   .     S
Cu428  O450    1.965   .     S
Cu428  N444    2.010   .     S
Cu428  O452    1.958   .     S
Cu429  O449    1.958   .     S
Cu429  O453    1.967   .     S
Cu429  O447    1.965   .     S
Cu429  N445    2.010   .     S
Cu429  O451    1.965   .     S
H438   C936    1.081   .     S
H441   C939    1.083   1_554 S
C454   N455    1.157   .     T
C457   O504    1.290   .     A
C457   C473    1.450   .     S
C457   O503    1.290   .     A
C458   C459    1.414   .     A
C458   C973    1.417   .     S
C458   C997    1.414   .     S
C459   C466    1.427   .     A
C459   C463    1.416   .     A
C460   C464    1.400   .     A
C460   C971    1.417   1_554 S
C460   C974    1.415   1_554 S
C461   C462    1.404   .     A
C461   C973    1.415   .     S
C461   C993    1.408   .     S
C462   C463    1.395   .     A
C462   C511    1.447   .     S
C463   H499    1.080   .     S
C464   Cl513   1.777   .     S
C464   C481    1.409   .     A
C465   C481    1.403   .     A
C465   C480    1.395   .     A
C465   H487    1.083   .     S
C466   C468    1.472   .     S
C466   C482    1.404   .     A
C467   H500    1.083   .     S
C467   C473    1.401   .     A
C467   C127    1.383   1_565 S
C468   O506    1.290   .     A
C468   O505    1.301   .     A
C469   H488    1.083   .     S
C469   C470    1.401   .     A
C470   C478    1.450   .     S
C470   C471    1.401   .     A
C471   H489    1.083   .     S
C472   H490    1.083   .     S
C472   C473    1.401   .     A
C472   C129    1.383   1_565 S
C474   H491    1.082   .     S
C474   N502    1.367   .     A
C474   C361    1.416   1_655 S
C475   N501    1.367   .     A
C475   H492    1.082   .     S
C476   H493    1.080   .     S
C476   N501    1.367   .     A
C477   N502    1.366   .     A
C477   H494    1.082   .     S
C477   C362    1.415   1_655 S
C478   O507    1.290   .     A
C478   O508    1.290   .     A
C479   O509    1.291   .     A
C479   C481    1.470   .     S
C479   O510    1.299   .     A
C480   C974    1.408   1_554 S
C480   H1008   1.081   1_554 S
C482   H496    1.083   .     S
C482   C483    1.386   .     A
C483   C997    1.388   .     S
C483   H1011   1.083   .     S
C484   H497    1.081   .     S
C484   C996    1.388   1_554 S
C484   C971    1.414   1_554 S
Cu485  O505    1.967   .     S
Cu485  Cu486   2.675   .     S
Cu485  O503    1.965   .     S
Cu485  O507    1.965   .     S
Cu485  N501    2.010   .     S
Cu485  O509    1.958   .     S
Cu486  O506    1.958   .     S
Cu486  O510    1.967   .     S
Cu486  O504    1.965   .     S
Cu486  N502    2.010   .     S
Cu486  O508    1.965   .     S
H495   C993    1.081   .     S
H498   C996    1.083   1_554 S
C511   N512    1.157   .     T
C514   O561    1.290   .     A
C514   C530    1.450   .     S
C514   O560    1.290   .     A
C515   C516    1.414   .     A
C515   C4      1.417   1_556 S
C515   C28     1.414   1_556 S
C516   C523    1.427   .     A
C516   C520    1.416   .     A
C517   C521    1.400   .     A
C518   C519    1.404   .     A
C518   C4      1.415   1_556 S
C518   C24     1.408   1_556 S
C519   C520    1.395   .     A
C519   C568    1.447   .     S
C520   H556    1.080   .     S
C521   Cl570   1.777   .     S
C521   C538    1.409   .     A
C522   C538    1.403   .     A
C522   C537    1.395   .     A
C522   H544    1.083   .     S
C523   C525    1.472   .     S
C523   C539    1.404   .     A
C524   H557    1.083   .     S
C524   C530    1.401   .     A
C524   C697    1.383   .     S
C525   O563    1.290   .     A
C525   O562    1.301   .     A
C526   H545    1.083   .     S
C526   C527    1.401   .     A
C526   C866    1.383   1_545 S
C527   C535    1.450   .     S
C527   C528    1.401   .     A
C528   H546    1.083   .     S
C528   C871    1.383   1_545 S
C529   H547    1.083   .     S
C529   C530    1.401   .     A
C529   C699    1.383   .     S
C531   H548    1.082   .     S
C531   N559    1.367   .     A
C531   C589    1.416   .     S
C532   N558    1.367   .     A
C532   H549    1.082   .     S
C532   C645    1.416   1_455 S
C533   H550    1.080   .     S
C533   N558    1.367   .     A
C533   C648    1.415   1_455 S
C534   N559    1.366   .     A
C534   H551    1.082   .     S
C534   C590    1.415   .     S
C535   O564    1.290   .     A
C535   O565    1.290   .     A
C536   O566    1.291   .     A
C536   C538    1.470   .     S
C536   O567    1.299   .     A
C539   H553    1.083   .     S
C539   C540    1.386   .     A
C540   C28     1.388   1_556 S
C540   H42     1.083   1_556 S
C541   H554    1.081   .     S
Cu542  O562    1.967   .     S
Cu542  Cu543   2.675   .     S
Cu542  O560    1.965   .     S
Cu542  O564    1.965   .     S
Cu542  N558    2.010   .     S
Cu542  O566    1.958   .     S
Cu543  O563    1.958   .     S
Cu543  O567    1.967   .     S
Cu543  O561    1.965   .     S
Cu543  N559    2.010   .     S
Cu543  O565    1.965   .     S
H552   C24     1.081   1_556 S
C568   N569    1.157   .     T
C571   O618    1.290   .     A
C571   C587    1.450   .     S
C571   O617    1.290   .     A
C572   C573    1.414   .     A
C572   C61     1.417   1_556 S
C572   C85     1.414   1_556 S
C573   C580    1.427   .     A
C573   C577    1.416   .     A
C574   C578    1.400   .     A
C575   C576    1.404   .     A
C575   C61     1.415   1_556 S
C575   C81     1.408   1_556 S
C576   C577    1.395   .     A
C576   C625    1.447   .     S
C577   H613    1.080   .     S
C578   Cl627   1.777   .     S
C578   C595    1.409   .     A
C579   C595    1.403   .     A
C579   C594    1.395   .     A
C579   H601    1.083   .     S
C580   C582    1.472   .     S
C580   C596    1.404   .     A
C581   H614    1.083   .     S
C581   C587    1.401   .     A
C581   C754    1.383   .     S
C582   O620    1.290   .     A
C582   O619    1.301   .     A
C583   H602    1.083   .     S
C583   C584    1.401   .     A
C583   C923    1.383   1_545 S
C584   C592    1.450   .     S
C584   C585    1.401   .     A
C585   H603    1.083   .     S
C585   C928    1.383   1_545 S
C586   H604    1.083   .     S
C586   C587    1.401   .     A
C586   C756    1.383   .     S
C588   H605    1.082   .     S
C588   N616    1.367   .     A
C588   C646    1.416   .     S
C589   N615    1.367   .     A
C589   H606    1.082   .     S
C590   H607    1.080   .     S
C590   N615    1.367   .     A
C591   N616    1.366   .     A
C591   H608    1.082   .     S
C591   C647    1.415   .     S
C592   O621    1.290   .     A
C592   O622    1.290   .     A
C593   O623    1.291   .     A
C593   C595    1.470   .     S
C593   O624    1.299   .     A
C596   H610    1.083   .     S
C596   C597    1.386   .     A
C597   C85     1.388   1_556 S
C597   H99     1.083   1_556 S
C598   H611    1.081   .     S
Cu599  O619    1.967   .     S
Cu599  Cu600   2.675   .     S
Cu599  O617    1.965   .     S
Cu599  O621    1.965   .     S
Cu599  N615    2.010   .     S
Cu599  O623    1.958   .     S
Cu600  O620    1.958   .     S
Cu600  O624    1.967   .     S
Cu600  O618    1.965   .     S
Cu600  N616    2.010   .     S
Cu600  O622    1.965   .     S
H609   C81     1.081   1_556 S
C625   N626    1.157   .     T
C628   O675    1.290   .     A
C628   C644    1.450   .     S
C628   O674    1.290   .     A
C629   C630    1.414   .     A
C629   C118    1.417   1_556 S
C629   C142    1.414   1_556 S
C630   C637    1.427   .     A
C630   C634    1.416   .     A
C631   C635    1.400   .     A
C632   C633    1.404   .     A
C632   C118    1.415   1_556 S
C632   C138    1.408   1_556 S
C633   C634    1.395   .     A
C633   C682    1.447   .     S
C634   H670    1.080   .     S
C635   Cl684   1.777   .     S
C635   C652    1.409   .     A
C636   C652    1.403   .     A
C636   C651    1.395   .     A
C636   H658    1.083   .     S
C637   C639    1.472   .     S
C637   C653    1.404   .     A
C638   H671    1.083   .     S
C638   C644    1.401   .     A
C638   C811    1.383   .     S
C639   O677    1.290   .     A
C639   O676    1.301   .     A
C640   H659    1.083   .     S
C640   C641    1.401   .     A
C640   C980    1.383   1_545 S
C641   C649    1.450   .     S
C641   C642    1.401   .     A
C642   H660    1.083   .     S
C642   C985    1.383   1_545 S
C643   H661    1.083   .     S
C643   C644    1.401   .     A
C643   C813    1.383   .     S
C645   H662    1.082   .     S
C645   N673    1.367   .     A
C645   C532    1.416   1_655 S
C646   N672    1.367   .     A
C646   H663    1.082   .     S
C647   H664    1.080   .     S
C647   N672    1.367   .     A
C648   N673    1.366   .     A
C648   H665    1.082   .     S
C648   C533    1.415   1_655 S
C649   O678    1.290   .     A
C649   O679    1.290   .     A
C650   O680    1.291   .     A
C650   C652    1.470   .     S
C650   O681    1.299   .     A
C653   H667    1.083   .     S
C653   C654    1.386   .     A
C654   C142    1.388   1_556 S
C654   H156    1.083   1_556 S
C655   H668    1.081   .     S
Cu656  O676    1.967   .     S
Cu656  Cu657   2.675   .     S
Cu656  O674    1.965   .     S
Cu656  O678    1.965   .     S
Cu656  N672    2.010   .     S
Cu656  O680    1.958   .     S
Cu657  O677    1.958   .     S
Cu657  O681    1.967   .     S
Cu657  O675    1.965   .     S
Cu657  N673    2.010   .     S
Cu657  O679    1.965   .     S
H666   C138    1.081   1_556 S
C682   N683    1.157   .     T
C685   O732    1.290   .     A
C685   C701    1.450   .     S
C685   O731    1.290   .     A
C686   C687    1.414   .     A
C686   C175    1.417   1_556 S
C686   C199    1.414   1_556 S
C687   C694    1.427   .     A
C687   C691    1.416   .     A
C688   C692    1.400   .     A
C689   C690    1.404   .     A
C689   C175    1.415   1_556 S
C689   C195    1.408   1_556 S
C690   C691    1.395   .     A
C690   C739    1.447   .     S
C691   H727    1.080   .     S
C692   Cl741   1.777   .     S
C692   C709    1.409   .     A
C693   C709    1.403   .     A
C693   C708    1.395   .     A
C693   H715    1.083   .     S
C694   C696    1.472   .     S
C694   C710    1.404   .     A
C695   H728    1.083   .     S
C695   C701    1.401   .     A
C695   C868    1.383   .     S
C696   O734    1.290   .     A
C696   O733    1.301   .     A
C697   H716    1.083   .     S
C697   C698    1.401   .     A
C698   C706    1.450   .     S
C698   C699    1.401   .     A
C699   H717    1.083   .     S
C700   H718    1.083   .     S
C700   C701    1.401   .     A
C700   C870    1.383   .     S
C702   H719    1.082   .     S
C702   N730    1.367   .     A
C702   C760    1.416   .     S
C703   N729    1.367   .     A
C703   H720    1.082   .     S
C703   C816    1.416   1_455 S
C704   H721    1.080   .     S
C704   N729    1.367   .     A
C704   C819    1.415   1_455 S
C705   N730    1.366   .     A
C705   H722    1.082   .     S
C705   C761    1.415   .     S
C706   O735    1.290   .     A
C706   O736    1.290   .     A
C707   O737    1.291   .     A
C707   C709    1.470   .     S
C707   O738    1.299   .     A
C710   H724    1.083   .     S
C710   C711    1.386   .     A
C711   C199    1.388   1_556 S
C711   H213    1.083   1_556 S
C712   H725    1.081   .     S
Cu713  O733    1.967   .     S
Cu713  Cu714   2.675   .     S
Cu713  O731    1.965   .     S
Cu713  O735    1.965   .     S
Cu713  N729    2.010   .     S
Cu713  O737    1.958   .     S
Cu714  O734    1.958   .     S
Cu714  O738    1.967   .     S
Cu714  O732    1.965   .     S
Cu714  N730    2.010   .     S
Cu714  O736    1.965   .     S
H723   C195    1.081   1_556 S
C739   N740    1.157   .     T
C742   O789    1.290   .     A
C742   C758    1.450   .     S
C742   O788    1.290   .     A
C743   C744    1.414   .     A
C743   C232    1.417   1_556 S
C743   C256    1.414   1_556 S
C744   C751    1.427   .     A
C744   C748    1.416   .     A
C745   C749    1.400   .     A
C746   C747    1.404   .     A
C746   C232    1.415   1_556 S
C746   C252    1.408   1_556 S
C747   C748    1.395   .     A
C747   C796    1.447   .     S
C748   H784    1.080   .     S
C749   Cl798   1.777   .     S
C749   C766    1.409   .     A
C750   C766    1.403   .     A
C750   C765    1.395   .     A
C750   H772    1.083   .     S
C751   C753    1.472   .     S
C751   C767    1.404   .     A
C752   H785    1.083   .     S
C752   C758    1.401   .     A
C752   C925    1.383   .     S
C753   O791    1.290   .     A
C753   O790    1.301   .     A
C754   H773    1.083   .     S
C754   C755    1.401   .     A
C755   C763    1.450   .     S
C755   C756    1.401   .     A
C756   H774    1.083   .     S
C757   H775    1.083   .     S
C757   C758    1.401   .     A
C757   C927    1.383   .     S
C759   H776    1.082   .     S
C759   N787    1.367   .     A
C759   C817    1.416   .     S
C760   N786    1.367   .     A
C760   H777    1.082   .     S
C761   H778    1.080   .     S
C761   N786    1.367   .     A
C762   N787    1.366   .     A
C762   H779    1.082   .     S
C762   C818    1.415   .     S
C763   O792    1.290   .     A
C763   O793    1.290   .     A
C764   O794    1.291   .     A
C764   C766    1.470   .     S
C764   O795    1.299   .     A
C767   H781    1.083   .     S
C767   C768    1.386   .     A
C768   C256    1.388   1_556 S
C768   H270    1.083   1_556 S
C769   H782    1.081   .     S
Cu770  O790    1.967   .     S
Cu770  Cu771   2.675   .     S
Cu770  O788    1.965   .     S
Cu770  O792    1.965   .     S
Cu770  N786    2.010   .     S
Cu770  O794    1.958   .     S
Cu771  O791    1.958   .     S
Cu771  O795    1.967   .     S
Cu771  O789    1.965   .     S
Cu771  N787    2.010   .     S
Cu771  O793    1.965   .     S
H780   C252    1.081   1_556 S
C796   N797    1.157   .     T
C799   O846    1.290   .     A
C799   C815    1.450   .     S
C799   O845    1.290   .     A
C800   C801    1.414   .     A
C800   C289    1.417   1_556 S
C800   C313    1.414   1_556 S
C801   C808    1.427   .     A
C801   C805    1.416   .     A
C802   C806    1.400   .     A
C803   C804    1.404   .     A
C803   C289    1.415   1_556 S
C803   C309    1.408   1_556 S
C804   C805    1.395   .     A
C804   C853    1.447   .     S
C805   H841    1.080   .     S
C806   Cl855   1.777   .     S
C806   C823    1.409   .     A
C807   C823    1.403   .     A
C807   C822    1.395   .     A
C807   H829    1.083   .     S
C808   C810    1.472   .     S
C808   C824    1.404   .     A
C809   H842    1.083   .     S
C809   C815    1.401   .     A
C809   C982    1.383   .     S
C810   O848    1.290   .     A
C810   O847    1.301   .     A
C811   H830    1.083   .     S
C811   C812    1.401   .     A
C812   C820    1.450   .     S
C812   C813    1.401   .     A
C813   H831    1.083   .     S
C814   H832    1.083   .     S
C814   C815    1.401   .     A
C814   C984    1.383   .     S
C816   H833    1.082   .     S
C816   N844    1.367   .     A
C816   C703    1.416   1_655 S
C817   N843    1.367   .     A
C817   H834    1.082   .     S
C818   H835    1.080   .     S
C818   N843    1.367   .     A
C819   N844    1.366   .     A
C819   H836    1.082   .     S
C819   C704    1.415   1_655 S
C820   O849    1.290   .     A
C820   O850    1.290   .     A
C821   O851    1.291   .     A
C821   C823    1.470   .     S
C821   O852    1.299   .     A
C824   H838    1.083   .     S
C824   C825    1.386   .     A
C825   C313    1.388   1_556 S
C825   H327    1.083   1_556 S
C826   H839    1.081   .     S
Cu827  O847    1.967   .     S
Cu827  Cu828   2.675   .     S
Cu827  O845    1.965   .     S
Cu827  O849    1.965   .     S
Cu827  N843    2.010   .     S
Cu827  O851    1.958   .     S
Cu828  O848    1.958   .     S
Cu828  O852    1.967   .     S
Cu828  O846    1.965   .     S
Cu828  N844    2.010   .     S
Cu828  O850    1.965   .     S
H837   C309    1.081   1_556 S
C853   N854    1.157   .     T
C856   O903    1.290   .     A
C856   C872    1.450   .     S
C856   O902    1.290   .     A
C857   C858    1.414   .     A
C857   C346    1.417   1_556 S
C857   C370    1.414   1_556 S
C858   C865    1.427   .     A
C858   C862    1.416   .     A
C859   C863    1.400   .     A
C860   C861    1.404   .     A
C860   C346    1.415   1_556 S
C860   C366    1.408   1_556 S
C861   C862    1.395   .     A
C861   C910    1.447   .     S
C862   H898    1.080   .     S
C863   Cl912   1.777   .     S
C863   C880    1.409   .     A
C864   C880    1.403   .     A
C864   C879    1.395   .     A
C864   H886    1.083   .     S
C865   C867    1.472   .     S
C865   C881    1.404   .     A
C866   H899    1.083   .     S
C866   C872    1.401   .     A
C866   C526    1.383   1_565 S
C867   O905    1.290   .     A
C867   O904    1.301   .     A
C868   H887    1.083   .     S
C868   C869    1.401   .     A
C869   C877    1.450   .     S
C869   C870    1.401   .     A
C870   H888    1.083   .     S
C871   H889    1.083   .     S
C871   C872    1.401   .     A
C871   C528    1.383   1_565 S
C873   H890    1.082   .     S
C873   N901    1.367   .     A
C873   C931    1.416   .     S
C874   N900    1.367   .     A
C874   H891    1.082   .     S
C874   C987    1.416   1_455 S
C875   H892    1.080   .     S
C875   N900    1.367   .     A
C875   C990    1.415   1_455 S
C876   N901    1.366   .     A
C876   H893    1.082   .     S
C876   C932    1.415   .     S
C877   O906    1.290   .     A
C877   O907    1.290   .     A
C878   O908    1.291   .     A
C878   C880    1.470   .     S
C878   O909    1.299   .     A
C881   H895    1.083   .     S
C881   C882    1.386   .     A
C882   C370    1.388   1_556 S
C882   H384    1.083   1_556 S
C883   H896    1.081   .     S
Cu884  O904    1.967   .     S
Cu884  Cu885   2.675   .     S
Cu884  O902    1.965   .     S
Cu884  O906    1.965   .     S
Cu884  N900    2.010   .     S
Cu884  O908    1.958   .     S
Cu885  O905    1.958   .     S
Cu885  O909    1.967   .     S
Cu885  O903    1.965   .     S
Cu885  N901    2.010   .     S
Cu885  O907    1.965   .     S
H894   C366    1.081   1_556 S
C910   N911    1.157   .     T
C913   O960    1.290   .     A
C913   C929    1.450   .     S
C913   O959    1.290   .     A
C914   C915    1.414   .     A
C914   C403    1.417   1_556 S
C914   C427    1.414   1_556 S
C915   C922    1.427   .     A
C915   C919    1.416   .     A
C916   C920    1.400   .     A
C917   C918    1.404   .     A
C917   C403    1.415   1_556 S
C917   C423    1.408   1_556 S
C918   C919    1.395   .     A
C918   C967    1.447   .     S
C919   H955    1.080   .     S
C920   Cl969   1.777   .     S
C920   C937    1.409   .     A
C921   C937    1.403   .     A
C921   C936    1.395   .     A
C921   H943    1.083   .     S
C922   C924    1.472   .     S
C922   C938    1.404   .     A
C923   H956    1.083   .     S
C923   C929    1.401   .     A
C923   C583    1.383   1_565 S
C924   O962    1.290   .     A
C924   O961    1.301   .     A
C925   H944    1.083   .     S
C925   C926    1.401   .     A
C926   C934    1.450   .     S
C926   C927    1.401   .     A
C927   H945    1.083   .     S
C928   H946    1.083   .     S
C928   C929    1.401   .     A
C928   C585    1.383   1_565 S
C930   H947    1.082   .     S
C930   N958    1.367   .     A
C930   C988    1.416   .     S
C931   N957    1.367   .     A
C931   H948    1.082   .     S
C932   H949    1.080   .     S
C932   N957    1.367   .     A
C933   N958    1.366   .     A
C933   H950    1.082   .     S
C933   C989    1.415   .     S
C934   O963    1.290   .     A
C934   O964    1.290   .     A
C935   O965    1.291   .     A
C935   C937    1.470   .     S
C935   O966    1.299   .     A
C938   H952    1.083   .     S
C938   C939    1.386   .     A
C939   C427    1.388   1_556 S
C939   H441    1.083   1_556 S
C940   H953    1.081   .     S
Cu941  O961    1.967   .     S
Cu941  Cu942   2.675   .     S
Cu941  O959    1.965   .     S
Cu941  O963    1.965   .     S
Cu941  N957    2.010   .     S
Cu941  O965    1.958   .     S
Cu942  O962    1.958   .     S
Cu942  O966    1.967   .     S
Cu942  O960    1.965   .     S
Cu942  N958    2.010   .     S
Cu942  O964    1.965   .     S
H951   C423    1.081   1_556 S
C967   N968    1.157   .     T
C970   O1017   1.290   .     A
C970   C986    1.450   .     S
C970   O1016   1.290   .     A
C971   C972    1.414   .     A
C971   C460    1.417   1_556 S
C971   C484    1.414   1_556 S
C972   C979    1.427   .     A
C972   C976    1.416   .     A
C973   C977    1.400   .     A
C974   C975    1.404   .     A
C974   C460    1.415   1_556 S
C974   C480    1.408   1_556 S
C975   C976    1.395   .     A
C975   C1024   1.447   .     S
C976   H1012   1.080   .     S
C977   Cl1026  1.777   .     S
C977   C994    1.409   .     A
C978   C994    1.403   .     A
C978   C993    1.395   .     A
C978   H1000   1.083   .     S
C979   C981    1.472   .     S
C979   C995    1.404   .     A
C980   H1013   1.083   .     S
C980   C986    1.401   .     A
C980   C640    1.383   1_565 S
C981   O1019   1.290   .     A
C981   O1018   1.301   .     A
C982   H1001   1.083   .     S
C982   C983    1.401   .     A
C983   C991    1.450   .     S
C983   C984    1.401   .     A
C984   H1002   1.083   .     S
C985   H1003   1.083   .     S
C985   C986    1.401   .     A
C985   C642    1.383   1_565 S
C987   H1004   1.082   .     S
C987   N1015   1.367   .     A
C987   C874    1.416   1_655 S
C988   N1014   1.367   .     A
C988   H1005   1.082   .     S
C989   H1006   1.080   .     S
C989   N1014   1.367   .     A
C990   N1015   1.366   .     A
C990   H1007   1.082   .     S
C990   C875    1.415   1_655 S
C991   O1020   1.290   .     A
C991   O1021   1.290   .     A
C992   O1022   1.291   .     A
C992   C994    1.470   .     S
C992   O1023   1.299   .     A
C995   H1009   1.083   .     S
C995   C996    1.386   .     A
C996   C484    1.388   1_556 S
C996   H498    1.083   1_556 S
C997   H1010   1.081   .     S
Cu998  O1018   1.967   .     S
Cu998  Cu999   2.675   .     S
Cu998  O1016   1.965   .     S
Cu998  O1020   1.965   .     S
Cu998  N1014   2.010   .     S
Cu998  O1022   1.958   .     S
Cu999  O1019   1.958   .     S
Cu999  O1023   1.967   .     S
Cu999  O1017   1.965   .     S
Cu999  N1015   2.010   .     S
Cu999  O1021   1.965   .     S
H1008  C480    1.081   1_556 S
C1024  N1025   1.157   .     T
