data_str_m2_o10_o16_pcu_sym.109
_audit_creation_date              2020-01-03
_audit_creation_method            'Materials Studio'
_symmetry_space_group_name_H-M    'P1'
_symmetry_Int_Tables_number       1
_symmetry_cell_setting            triclinic
loop_
_symmetry_equiv_pos_as_xyz
  x,y,z
_cell_length_a                    22.3585
_cell_length_b                    26.1607
_cell_length_c                    26.7521
_cell_angle_alpha                 94.5289
_cell_angle_beta                  77.7232
_cell_angle_gamma                 103.0372
loop_
_atom_site_label
_atom_site_type_symbol
_atom_site_fract_x
_atom_site_fract_y
_atom_site_fract_z
_atom_site_U_iso_or_equiv
_atom_site_adp_type
_atom_site_occupancy
C1     C     0.18064   0.26640   0.25419   0.00000  Uiso   1.00
C2     C     0.13607   0.17185   0.48947   0.00000  Uiso   1.00
C3     C     0.15255   0.18559   0.43716   0.00000  Uiso   1.00
C4     C     0.18379   0.18543   0.01932   0.00000  Uiso   1.00
C5     C     0.24051   0.22148   0.00048   0.00000  Uiso   1.00
C6     C     0.25119   0.24101   0.45175   0.00000  Uiso   1.00
C7     C     0.20839   0.22293   0.42031   0.00000  Uiso   1.00
C8     C     0.17834   0.16284   0.06639   0.00000  Uiso   1.00
C9     C     0.27501   0.22017   0.08037   0.00000  Uiso   1.00
C10    C     0.11180   0.16301   0.40338   0.00000  Uiso   1.00
C11    C     0.18607   0.32157   0.26300   0.00000  Uiso   1.00
C12    C     0.13312   0.16501   0.34725   0.00000  Uiso   1.00
C13    C     0.14537   0.01098   0.24726   0.00000  Uiso   1.00
C14    C     0.15158   0.06672   0.24946   0.00000  Uiso   1.00
C15    C     0.20045   0.17109   0.15301   0.00000  Uiso   1.00
C16    C     0.28579   0.23814   0.03089   0.00000  Uiso   1.00
C17    C     0.22067   0.18258   0.09847   0.00000  Uiso   1.00
C18    C     0.05132   0.13453   0.42344   0.00000  Uiso   1.00
C19    C     0.03133   0.12864   0.47572   0.00000  Uiso   1.00
C20    C     0.07216   0.14705   0.00914   0.00000  Uiso   1.00
Cu21   Cu    0.10710   0.16105   0.24436   0.00000  Uiso   1.00
Cu22   Cu    0.22623   0.17228   0.25565   0.00000  Uiso   1.00
H23    H     0.10792   0.32126   0.22962   0.00000  Uiso   1.00
H24    H     0.00249   0.20405   0.29162   0.00000  Uiso   1.00
H25    H     0.29353   0.26964   0.43738   0.00000  Uiso   1.00
H26    H     0.32851   0.26656   0.01702   0.00000  Uiso   1.00
H27    H     0.14099   0.13003   0.07943   0.00000  Uiso   1.00
H28    H     0.21876   0.24024   0.38326   0.00000  Uiso   1.00
N29    N     0.31574   0.18074   0.26416   0.00000  Uiso   1.00
N30    N     0.01759   0.15259   0.23584   0.00000  Uiso   1.00
O31    O     0.12797   0.23807   0.24633   0.00000  Uiso   1.00
O32    O     0.22858   0.24755   0.25587   0.00000  Uiso   1.00
O33    O     0.09181   0.15960   0.31840   0.00000  Uiso   1.00
O34    O     0.19242   0.16908   0.32793   0.00000  Uiso   1.00
O35    O     0.10476   0.08578   0.24414   0.00000  Uiso   1.00
O36    O     0.20536   0.09526   0.25367   0.00000  Uiso   1.00
O37    O     0.14092   0.16425   0.17207   0.00000  Uiso   1.00
O38    O     0.24152   0.17373   0.18161   0.00000  Uiso   1.00
F39    F     0.31613   0.24120   0.11104   0.00000  Uiso   1.00
N40    N     0.32643   0.12243   0.19713   0.00000  Uiso   1.00
H41    H     0.01924   0.13877   0.16296   0.00000  Uiso   1.00
H42    H     0.00289   0.08534   0.19773   0.00000  Uiso   1.00
F43    F     0.01073   0.11260   0.39253   0.00000  Uiso   1.00
N44    N     0.04378   0.14708   0.06240   0.00000  Uiso   1.00
H45    H     0.04285   0.11115   0.07735   0.00000  Uiso   1.00
H46    H     0.06605   0.17924   0.08226   0.00000  Uiso   1.00
F47    F     0.30428   0.10475   0.49443   0.00000  Uiso   1.00
N48    N     0.23253   0.01511   0.29149   0.00000  Uiso   1.00
H49    H     0.26949   0.03880   0.26740   0.00000  Uiso   1.00
H50    H     0.21210   0.03725   0.32193   0.00000  Uiso   1.00
C51    C     0.51397   0.26640   0.25419   0.00000  Uiso   1.00
C52    C     0.46941   0.17185   0.48947   0.00000  Uiso   1.00
C53    C     0.48589   0.18559   0.43716   0.00000  Uiso   1.00
C54    C     0.51713   0.18543   0.01932   0.00000  Uiso   1.00
C55    C     0.57385   0.22148   0.00048   0.00000  Uiso   1.00
C56    C     0.58453   0.24101   0.45175   0.00000  Uiso   1.00
C57    C     0.54172   0.22293   0.42031   0.00000  Uiso   1.00
C58    C     0.51168   0.16284   0.06639   0.00000  Uiso   1.00
C59    C     0.60834   0.22017   0.08037   0.00000  Uiso   1.00
C60    C     0.44514   0.16301   0.40338   0.00000  Uiso   1.00
C61    C     0.51940   0.32157   0.26300   0.00000  Uiso   1.00
C62    C     0.46645   0.16501   0.34725   0.00000  Uiso   1.00
C63    C     0.47870   0.01098   0.24726   0.00000  Uiso   1.00
C64    C     0.48491   0.06672   0.24946   0.00000  Uiso   1.00
C65    C     0.53379   0.17109   0.15301   0.00000  Uiso   1.00
C66    C     0.61912   0.23814   0.03089   0.00000  Uiso   1.00
C67    C     0.55400   0.18258   0.09847   0.00000  Uiso   1.00
C68    C     0.38465   0.13453   0.42344   0.00000  Uiso   1.00
C69    C     0.36466   0.12864   0.47572   0.00000  Uiso   1.00
C70    C     0.40549   0.14705   0.00914   0.00000  Uiso   1.00
Cu71   Cu    0.44043   0.16105   0.24436   0.00000  Uiso   1.00
Cu72   Cu    0.55957   0.17228   0.25565   0.00000  Uiso   1.00
H73    H     0.44125   0.32126   0.22962   0.00000  Uiso   1.00
H74    H     0.33583   0.20405   0.29162   0.00000  Uiso   1.00
H75    H     0.62686   0.26964   0.43738   0.00000  Uiso   1.00
H76    H     0.66184   0.26656   0.01702   0.00000  Uiso   1.00
H77    H     0.47433   0.13003   0.07943   0.00000  Uiso   1.00
H78    H     0.55209   0.24024   0.38326   0.00000  Uiso   1.00
N79    N     0.64908   0.18074   0.26416   0.00000  Uiso   1.00
N80    N     0.35092   0.15259   0.23584   0.00000  Uiso   1.00
O81    O     0.46131   0.23807   0.24633   0.00000  Uiso   1.00
O82    O     0.56191   0.24755   0.25587   0.00000  Uiso   1.00
O83    O     0.42515   0.15960   0.31840   0.00000  Uiso   1.00
O84    O     0.52575   0.16908   0.32793   0.00000  Uiso   1.00
O85    O     0.43809   0.08578   0.24414   0.00000  Uiso   1.00
O86    O     0.53869   0.09526   0.25367   0.00000  Uiso   1.00
O87    O     0.47425   0.16425   0.17207   0.00000  Uiso   1.00
O88    O     0.57485   0.17373   0.18161   0.00000  Uiso   1.00
F89    F     0.64946   0.24120   0.11104   0.00000  Uiso   1.00
N90    N     0.65976   0.12243   0.19713   0.00000  Uiso   1.00
H91    H     0.35258   0.13877   0.16296   0.00000  Uiso   1.00
H92    H     0.33623   0.08534   0.19773   0.00000  Uiso   1.00
F93    F     0.34406   0.11260   0.39253   0.00000  Uiso   1.00
N94    N     0.37711   0.14708   0.06240   0.00000  Uiso   1.00
H95    H     0.37618   0.11115   0.07735   0.00000  Uiso   1.00
H96    H     0.39939   0.17924   0.08226   0.00000  Uiso   1.00
F97    F     0.63762   0.10475   0.49443   0.00000  Uiso   1.00
N98    N     0.56587   0.01511   0.29149   0.00000  Uiso   1.00
H99    H     0.60282   0.03880   0.26740   0.00000  Uiso   1.00
H100   H     0.54543   0.03725   0.32193   0.00000  Uiso   1.00
C101   C     0.84730   0.26640   0.25419   0.00000  Uiso   1.00
C102   C     0.80274   0.17185   0.48947   0.00000  Uiso   1.00
C103   C     0.81922   0.18559   0.43716   0.00000  Uiso   1.00
C104   C     0.85046   0.18543   0.01932   0.00000  Uiso   1.00
C105   C     0.90718   0.22148   0.00048   0.00000  Uiso   1.00
C106   C     0.91786   0.24101   0.45175   0.00000  Uiso   1.00
C107   C     0.87506   0.22293   0.42031   0.00000  Uiso   1.00
C108   C     0.84501   0.16284   0.06639   0.00000  Uiso   1.00
C109   C     0.94168   0.22017   0.08037   0.00000  Uiso   1.00
C110   C     0.77847   0.16301   0.40338   0.00000  Uiso   1.00
C111   C     0.85274   0.32157   0.26300   0.00000  Uiso   1.00
C112   C     0.79979   0.16501   0.34725   0.00000  Uiso   1.00
C113   C     0.81204   0.01098   0.24726   0.00000  Uiso   1.00
C114   C     0.81824   0.06672   0.24946   0.00000  Uiso   1.00
C115   C     0.86712   0.17109   0.15301   0.00000  Uiso   1.00
C116   C     0.95246   0.23814   0.03089   0.00000  Uiso   1.00
C117   C     0.88733   0.18258   0.09847   0.00000  Uiso   1.00
C118   C     0.71799   0.13453   0.42344   0.00000  Uiso   1.00
C119   C     0.69800   0.12864   0.47572   0.00000  Uiso   1.00
C120   C     0.73883   0.14705   0.00914   0.00000  Uiso   1.00
Cu121  Cu    0.77377   0.16105   0.24436   0.00000  Uiso   1.00
Cu122  Cu    0.89290   0.17228   0.25565   0.00000  Uiso   1.00
H123   H     0.77458   0.32126   0.22962   0.00000  Uiso   1.00
H124   H     0.66916   0.20405   0.29162   0.00000  Uiso   1.00
H125   H     0.96019   0.26964   0.43738   0.00000  Uiso   1.00
H126   H     0.99517   0.26656   0.01702   0.00000  Uiso   1.00
H127   H     0.80766   0.13003   0.07943   0.00000  Uiso   1.00
H128   H     0.88543   0.24024   0.38326   0.00000  Uiso   1.00
N129   N     0.98241   0.18074   0.26416   0.00000  Uiso   1.00
N130   N     0.68426   0.15259   0.23584   0.00000  Uiso   1.00
O131   O     0.79464   0.23807   0.24633   0.00000  Uiso   1.00
O132   O     0.89524   0.24755   0.25587   0.00000  Uiso   1.00
O133   O     0.75848   0.15960   0.31840   0.00000  Uiso   1.00
O134   O     0.85908   0.16908   0.32793   0.00000  Uiso   1.00
O135   O     0.77142   0.08578   0.24414   0.00000  Uiso   1.00
O136   O     0.87203   0.09526   0.25367   0.00000  Uiso   1.00
O137   O     0.80758   0.16425   0.17207   0.00000  Uiso   1.00
O138   O     0.90819   0.17373   0.18161   0.00000  Uiso   1.00
F139   F     0.98279   0.24120   0.11104   0.00000  Uiso   1.00
N140   N     0.99309   0.12243   0.19713   0.00000  Uiso   1.00
H141   H     0.68591   0.13877   0.16296   0.00000  Uiso   1.00
H142   H     0.66956   0.08534   0.19773   0.00000  Uiso   1.00
F143   F     0.67739   0.11260   0.39253   0.00000  Uiso   1.00
N144   N     0.71044   0.14708   0.06240   0.00000  Uiso   1.00
H145   H     0.70952   0.11115   0.07735   0.00000  Uiso   1.00
H146   H     0.73272   0.17924   0.08226   0.00000  Uiso   1.00
F147   F     0.97095   0.10475   0.49443   0.00000  Uiso   1.00
N148   N     0.89920   0.01511   0.29149   0.00000  Uiso   1.00
H149   H     0.93616   0.03880   0.26740   0.00000  Uiso   1.00
H150   H     0.87877   0.03725   0.32193   0.00000  Uiso   1.00
C151   C     0.18064   0.59974   0.25419   0.00000  Uiso   1.00
C152   C     0.13607   0.50518   0.48947   0.00000  Uiso   1.00
C153   C     0.15255   0.51892   0.43716   0.00000  Uiso   1.00
C154   C     0.18379   0.51876   0.01932   0.00000  Uiso   1.00
C155   C     0.24051   0.55482   0.00048   0.00000  Uiso   1.00
C156   C     0.25119   0.57435   0.45175   0.00000  Uiso   1.00
C157   C     0.20839   0.55626   0.42031   0.00000  Uiso   1.00
C158   C     0.17834   0.49617   0.06639   0.00000  Uiso   1.00
C159   C     0.27501   0.55351   0.08037   0.00000  Uiso   1.00
C160   C     0.11180   0.49634   0.40338   0.00000  Uiso   1.00
C161   C     0.18607   0.65490   0.26300   0.00000  Uiso   1.00
C162   C     0.13312   0.49834   0.34725   0.00000  Uiso   1.00
C163   C     0.14537   0.34432   0.24726   0.00000  Uiso   1.00
C164   C     0.15158   0.40005   0.24946   0.00000  Uiso   1.00
C165   C     0.20045   0.50442   0.15301   0.00000  Uiso   1.00
C166   C     0.28579   0.57148   0.03089   0.00000  Uiso   1.00
C167   C     0.22067   0.51591   0.09847   0.00000  Uiso   1.00
C168   C     0.05132   0.46786   0.42344   0.00000  Uiso   1.00
C169   C     0.03133   0.46198   0.47572   0.00000  Uiso   1.00
C170   C     0.07216   0.48038   0.00914   0.00000  Uiso   1.00
Cu171  Cu    0.10710   0.49439   0.24436   0.00000  Uiso   1.00
Cu172  Cu    0.22623   0.50561   0.25565   0.00000  Uiso   1.00
H173   H     0.10792   0.65459   0.22962   0.00000  Uiso   1.00
H174   H     0.00249   0.53738   0.29162   0.00000  Uiso   1.00
H175   H     0.29353   0.60298   0.43738   0.00000  Uiso   1.00
H176   H     0.32851   0.59989   0.01702   0.00000  Uiso   1.00
H177   H     0.14099   0.46336   0.07943   0.00000  Uiso   1.00
H178   H     0.21876   0.57357   0.38326   0.00000  Uiso   1.00
N179   N     0.31574   0.51407   0.26416   0.00000  Uiso   1.00
N180   N     0.01759   0.48593   0.23584   0.00000  Uiso   1.00
O181   O     0.12797   0.57141   0.24633   0.00000  Uiso   1.00
O182   O     0.22858   0.58089   0.25587   0.00000  Uiso   1.00
O183   O     0.09181   0.49293   0.31840   0.00000  Uiso   1.00
O184   O     0.19242   0.50241   0.32793   0.00000  Uiso   1.00
O185   O     0.10476   0.41911   0.24414   0.00000  Uiso   1.00
O186   O     0.20536   0.42859   0.25367   0.00000  Uiso   1.00
O187   O     0.14092   0.49759   0.17207   0.00000  Uiso   1.00
O188   O     0.24152   0.50707   0.18161   0.00000  Uiso   1.00
F189   F     0.31613   0.57453   0.11104   0.00000  Uiso   1.00
N190   N     0.32643   0.45576   0.19713   0.00000  Uiso   1.00
H191   H     0.01924   0.47210   0.16296   0.00000  Uiso   1.00
H192   H     0.00289   0.41868   0.19773   0.00000  Uiso   1.00
F193   F     0.01073   0.44593   0.39253   0.00000  Uiso   1.00
N194   N     0.04378   0.48041   0.06240   0.00000  Uiso   1.00
H195   H     0.04285   0.44448   0.07735   0.00000  Uiso   1.00
H196   H     0.06605   0.51257   0.08226   0.00000  Uiso   1.00
F197   F     0.30428   0.43809   0.49443   0.00000  Uiso   1.00
N198   N     0.23253   0.34845   0.29149   0.00000  Uiso   1.00
H199   H     0.26949   0.37213   0.26740   0.00000  Uiso   1.00
H200   H     0.21210   0.37058   0.32193   0.00000  Uiso   1.00
C201   C     0.51397   0.59974   0.25419   0.00000  Uiso   1.00
C202   C     0.46941   0.50518   0.48947   0.00000  Uiso   1.00
C203   C     0.48589   0.51892   0.43716   0.00000  Uiso   1.00
C204   C     0.51713   0.51876   0.01932   0.00000  Uiso   1.00
C205   C     0.57385   0.55482   0.00048   0.00000  Uiso   1.00
C206   C     0.58453   0.57435   0.45175   0.00000  Uiso   1.00
C207   C     0.54172   0.55626   0.42031   0.00000  Uiso   1.00
C208   C     0.51168   0.49617   0.06639   0.00000  Uiso   1.00
C209   C     0.60834   0.55351   0.08037   0.00000  Uiso   1.00
C210   C     0.44514   0.49634   0.40338   0.00000  Uiso   1.00
C211   C     0.51940   0.65490   0.26300   0.00000  Uiso   1.00
C212   C     0.46645   0.49834   0.34725   0.00000  Uiso   1.00
C213   C     0.47870   0.34432   0.24726   0.00000  Uiso   1.00
C214   C     0.48491   0.40005   0.24946   0.00000  Uiso   1.00
C215   C     0.53379   0.50442   0.15301   0.00000  Uiso   1.00
C216   C     0.61912   0.57148   0.03089   0.00000  Uiso   1.00
C217   C     0.55400   0.51591   0.09847   0.00000  Uiso   1.00
C218   C     0.38465   0.46786   0.42344   0.00000  Uiso   1.00
C219   C     0.36466   0.46198   0.47572   0.00000  Uiso   1.00
C220   C     0.40549   0.48038   0.00914   0.00000  Uiso   1.00
Cu221  Cu    0.44043   0.49439   0.24436   0.00000  Uiso   1.00
Cu222  Cu    0.55957   0.50561   0.25565   0.00000  Uiso   1.00
H223   H     0.44125   0.65459   0.22962   0.00000  Uiso   1.00
H224   H     0.33583   0.53738   0.29162   0.00000  Uiso   1.00
H225   H     0.62686   0.60298   0.43738   0.00000  Uiso   1.00
H226   H     0.66184   0.59989   0.01702   0.00000  Uiso   1.00
H227   H     0.47433   0.46336   0.07943   0.00000  Uiso   1.00
H228   H     0.55209   0.57357   0.38326   0.00000  Uiso   1.00
N229   N     0.64908   0.51407   0.26416   0.00000  Uiso   1.00
N230   N     0.35092   0.48593   0.23584   0.00000  Uiso   1.00
O231   O     0.46131   0.57141   0.24633   0.00000  Uiso   1.00
O232   O     0.56191   0.58089   0.25587   0.00000  Uiso   1.00
O233   O     0.42515   0.49293   0.31840   0.00000  Uiso   1.00
O234   O     0.52575   0.50241   0.32793   0.00000  Uiso   1.00
O235   O     0.43809   0.41911   0.24414   0.00000  Uiso   1.00
O236   O     0.53869   0.42859   0.25367   0.00000  Uiso   1.00
O237   O     0.47425   0.49759   0.17207   0.00000  Uiso   1.00
O238   O     0.57485   0.50707   0.18161   0.00000  Uiso   1.00
F239   F     0.64946   0.57453   0.11104   0.00000  Uiso   1.00
N240   N     0.65976   0.45576   0.19713   0.00000  Uiso   1.00
H241   H     0.35258   0.47210   0.16296   0.00000  Uiso   1.00
H242   H     0.33623   0.41868   0.19773   0.00000  Uiso   1.00
F243   F     0.34406   0.44593   0.39253   0.00000  Uiso   1.00
N244   N     0.37711   0.48041   0.06240   0.00000  Uiso   1.00
H245   H     0.37618   0.44448   0.07735   0.00000  Uiso   1.00
H246   H     0.39939   0.51257   0.08226   0.00000  Uiso   1.00
F247   F     0.63762   0.43809   0.49443   0.00000  Uiso   1.00
N248   N     0.56587   0.34845   0.29149   0.00000  Uiso   1.00
H249   H     0.60282   0.37213   0.26740   0.00000  Uiso   1.00
H250   H     0.54543   0.37058   0.32193   0.00000  Uiso   1.00
C251   C     0.84730   0.59974   0.25419   0.00000  Uiso   1.00
C252   C     0.80274   0.50518   0.48947   0.00000  Uiso   1.00
C253   C     0.81922   0.51892   0.43716   0.00000  Uiso   1.00
C254   C     0.85046   0.51876   0.01932   0.00000  Uiso   1.00
C255   C     0.90718   0.55482   0.00048   0.00000  Uiso   1.00
C256   C     0.91786   0.57435   0.45175   0.00000  Uiso   1.00
C257   C     0.87506   0.55626   0.42031   0.00000  Uiso   1.00
C258   C     0.84501   0.49617   0.06639   0.00000  Uiso   1.00
C259   C     0.94168   0.55351   0.08037   0.00000  Uiso   1.00
C260   C     0.77847   0.49634   0.40338   0.00000  Uiso   1.00
C261   C     0.85274   0.65490   0.26300   0.00000  Uiso   1.00
C262   C     0.79979   0.49834   0.34725   0.00000  Uiso   1.00
C263   C     0.81204   0.34432   0.24726   0.00000  Uiso   1.00
C264   C     0.81824   0.40005   0.24946   0.00000  Uiso   1.00
C265   C     0.86712   0.50442   0.15301   0.00000  Uiso   1.00
C266   C     0.95246   0.57148   0.03089   0.00000  Uiso   1.00
C267   C     0.88733   0.51591   0.09847   0.00000  Uiso   1.00
C268   C     0.71799   0.46786   0.42344   0.00000  Uiso   1.00
C269   C     0.69800   0.46198   0.47572   0.00000  Uiso   1.00
C270   C     0.73883   0.48038   0.00914   0.00000  Uiso   1.00
Cu271  Cu    0.77377   0.49439   0.24436   0.00000  Uiso   1.00
Cu272  Cu    0.89290   0.50561   0.25565   0.00000  Uiso   1.00
H273   H     0.77458   0.65459   0.22962   0.00000  Uiso   1.00
H274   H     0.66916   0.53738   0.29162   0.00000  Uiso   1.00
H275   H     0.96019   0.60298   0.43738   0.00000  Uiso   1.00
H276   H     0.99517   0.59989   0.01702   0.00000  Uiso   1.00
H277   H     0.80766   0.46336   0.07943   0.00000  Uiso   1.00
H278   H     0.88543   0.57357   0.38326   0.00000  Uiso   1.00
N279   N     0.98241   0.51407   0.26416   0.00000  Uiso   1.00
N280   N     0.68426   0.48593   0.23584   0.00000  Uiso   1.00
O281   O     0.79464   0.57141   0.24633   0.00000  Uiso   1.00
O282   O     0.89524   0.58089   0.25587   0.00000  Uiso   1.00
O283   O     0.75848   0.49293   0.31840   0.00000  Uiso   1.00
O284   O     0.85908   0.50241   0.32793   0.00000  Uiso   1.00
O285   O     0.77142   0.41911   0.24414   0.00000  Uiso   1.00
O286   O     0.87203   0.42859   0.25367   0.00000  Uiso   1.00
O287   O     0.80758   0.49759   0.17207   0.00000  Uiso   1.00
O288   O     0.90819   0.50707   0.18161   0.00000  Uiso   1.00
F289   F     0.98279   0.57453   0.11104   0.00000  Uiso   1.00
N290   N     0.99309   0.45576   0.19713   0.00000  Uiso   1.00
H291   H     0.68591   0.47210   0.16296   0.00000  Uiso   1.00
H292   H     0.66956   0.41868   0.19773   0.00000  Uiso   1.00
F293   F     0.67739   0.44593   0.39253   0.00000  Uiso   1.00
N294   N     0.71044   0.48041   0.06240   0.00000  Uiso   1.00
H295   H     0.70952   0.44448   0.07735   0.00000  Uiso   1.00
H296   H     0.73272   0.51257   0.08226   0.00000  Uiso   1.00
F297   F     0.97095   0.43809   0.49443   0.00000  Uiso   1.00
N298   N     0.89920   0.34845   0.29149   0.00000  Uiso   1.00
H299   H     0.93616   0.37213   0.26740   0.00000  Uiso   1.00
H300   H     0.87877   0.37058   0.32193   0.00000  Uiso   1.00
C301   C     0.18064   0.93307   0.25419   0.00000  Uiso   1.00
C302   C     0.13607   0.83851   0.48947   0.00000  Uiso   1.00
C303   C     0.15255   0.85226   0.43716   0.00000  Uiso   1.00
C304   C     0.18379   0.85209   0.01932   0.00000  Uiso   1.00
C305   C     0.24051   0.88815   0.00048   0.00000  Uiso   1.00
C306   C     0.25119   0.90768   0.45175   0.00000  Uiso   1.00
C307   C     0.20839   0.88959   0.42031   0.00000  Uiso   1.00
C308   C     0.17834   0.82950   0.06639   0.00000  Uiso   1.00
C309   C     0.27501   0.88684   0.08037   0.00000  Uiso   1.00
C310   C     0.11180   0.82968   0.40338   0.00000  Uiso   1.00
C311   C     0.18607   0.98824   0.26300   0.00000  Uiso   1.00
C312   C     0.13312   0.83167   0.34725   0.00000  Uiso   1.00
C313   C     0.14537   0.67765   0.24726   0.00000  Uiso   1.00
C314   C     0.15158   0.73338   0.24946   0.00000  Uiso   1.00
C315   C     0.20045   0.83775   0.15301   0.00000  Uiso   1.00
C316   C     0.28579   0.90481   0.03089   0.00000  Uiso   1.00
C317   C     0.22067   0.84925   0.09847   0.00000  Uiso   1.00
C318   C     0.05132   0.80119   0.42344   0.00000  Uiso   1.00
C319   C     0.03133   0.79531   0.47572   0.00000  Uiso   1.00
C320   C     0.07216   0.81371   0.00914   0.00000  Uiso   1.00
Cu321  Cu    0.10710   0.82772   0.24436   0.00000  Uiso   1.00
Cu322  Cu    0.22623   0.83895   0.25565   0.00000  Uiso   1.00
H323   H     0.10792   0.98793   0.22962   0.00000  Uiso   1.00
H324   H     0.00249   0.87072   0.29162   0.00000  Uiso   1.00
H325   H     0.29353   0.93631   0.43738   0.00000  Uiso   1.00
H326   H     0.32851   0.93322   0.01702   0.00000  Uiso   1.00
H327   H     0.14099   0.79670   0.07943   0.00000  Uiso   1.00
H328   H     0.21876   0.90691   0.38326   0.00000  Uiso   1.00
N329   N     0.31574   0.84741   0.26416   0.00000  Uiso   1.00
N330   N     0.01759   0.81926   0.23584   0.00000  Uiso   1.00
O331   O     0.12797   0.90474   0.24633   0.00000  Uiso   1.00
O332   O     0.22858   0.91422   0.25587   0.00000  Uiso   1.00
O333   O     0.09181   0.82627   0.31840   0.00000  Uiso   1.00
O334   O     0.19242   0.83575   0.32793   0.00000  Uiso   1.00
O335   O     0.10476   0.75245   0.24414   0.00000  Uiso   1.00
O336   O     0.20536   0.76193   0.25367   0.00000  Uiso   1.00
O337   O     0.14092   0.83092   0.17207   0.00000  Uiso   1.00
O338   O     0.24152   0.84040   0.18161   0.00000  Uiso   1.00
F339   F     0.31613   0.90786   0.11104   0.00000  Uiso   1.00
N340   N     0.32643   0.78910   0.19713   0.00000  Uiso   1.00
H341   H     0.01924   0.80544   0.16296   0.00000  Uiso   1.00
H342   H     0.00289   0.75201   0.19773   0.00000  Uiso   1.00
F343   F     0.01073   0.77927   0.39253   0.00000  Uiso   1.00
N344   N     0.04378   0.81375   0.06240   0.00000  Uiso   1.00
H345   H     0.04285   0.77782   0.07735   0.00000  Uiso   1.00
H346   H     0.06605   0.84590   0.08226   0.00000  Uiso   1.00
F347   F     0.30428   0.77142   0.49443   0.00000  Uiso   1.00
N348   N     0.23253   0.68178   0.29149   0.00000  Uiso   1.00
H349   H     0.26949   0.70547   0.26740   0.00000  Uiso   1.00
H350   H     0.21210   0.70392   0.32193   0.00000  Uiso   1.00
C351   C     0.51397   0.93307   0.25419   0.00000  Uiso   1.00
C352   C     0.46941   0.83851   0.48947   0.00000  Uiso   1.00
C353   C     0.48589   0.85226   0.43716   0.00000  Uiso   1.00
C354   C     0.51713   0.85209   0.01932   0.00000  Uiso   1.00
C355   C     0.57385   0.88815   0.00048   0.00000  Uiso   1.00
C356   C     0.58453   0.90768   0.45175   0.00000  Uiso   1.00
C357   C     0.54172   0.88959   0.42031   0.00000  Uiso   1.00
C358   C     0.51168   0.82950   0.06639   0.00000  Uiso   1.00
C359   C     0.60834   0.88684   0.08037   0.00000  Uiso   1.00
C360   C     0.44514   0.82968   0.40338   0.00000  Uiso   1.00
C361   C     0.51940   0.98824   0.26300   0.00000  Uiso   1.00
C362   C     0.46645   0.83167   0.34725   0.00000  Uiso   1.00
C363   C     0.47870   0.67765   0.24726   0.00000  Uiso   1.00
C364   C     0.48491   0.73338   0.24946   0.00000  Uiso   1.00
C365   C     0.53379   0.83775   0.15301   0.00000  Uiso   1.00
C366   C     0.61912   0.90481   0.03089   0.00000  Uiso   1.00
C367   C     0.55400   0.84925   0.09847   0.00000  Uiso   1.00
C368   C     0.38465   0.80119   0.42344   0.00000  Uiso   1.00
C369   C     0.36466   0.79531   0.47572   0.00000  Uiso   1.00
C370   C     0.40549   0.81371   0.00914   0.00000  Uiso   1.00
Cu371  Cu    0.44043   0.82772   0.24436   0.00000  Uiso   1.00
Cu372  Cu    0.55957   0.83895   0.25565   0.00000  Uiso   1.00
H373   H     0.44125   0.98793   0.22962   0.00000  Uiso   1.00
H374   H     0.33583   0.87072   0.29162   0.00000  Uiso   1.00
H375   H     0.62686   0.93631   0.43738   0.00000  Uiso   1.00
H376   H     0.66184   0.93322   0.01702   0.00000  Uiso   1.00
H377   H     0.47433   0.79670   0.07943   0.00000  Uiso   1.00
H378   H     0.55209   0.90691   0.38326   0.00000  Uiso   1.00
N379   N     0.64908   0.84741   0.26416   0.00000  Uiso   1.00
N380   N     0.35092   0.81926   0.23584   0.00000  Uiso   1.00
O381   O     0.46131   0.90474   0.24633   0.00000  Uiso   1.00
O382   O     0.56191   0.91422   0.25587   0.00000  Uiso   1.00
O383   O     0.42515   0.82627   0.31840   0.00000  Uiso   1.00
O384   O     0.52575   0.83575   0.32793   0.00000  Uiso   1.00
O385   O     0.43809   0.75245   0.24414   0.00000  Uiso   1.00
O386   O     0.53869   0.76193   0.25367   0.00000  Uiso   1.00
O387   O     0.47425   0.83092   0.17207   0.00000  Uiso   1.00
O388   O     0.57485   0.84040   0.18161   0.00000  Uiso   1.00
F389   F     0.64946   0.90786   0.11104   0.00000  Uiso   1.00
N390   N     0.65976   0.78910   0.19713   0.00000  Uiso   1.00
H391   H     0.35258   0.80544   0.16296   0.00000  Uiso   1.00
H392   H     0.33623   0.75201   0.19773   0.00000  Uiso   1.00
F393   F     0.34406   0.77927   0.39253   0.00000  Uiso   1.00
N394   N     0.37711   0.81375   0.06240   0.00000  Uiso   1.00
H395   H     0.37618   0.77782   0.07735   0.00000  Uiso   1.00
H396   H     0.39939   0.84590   0.08226   0.00000  Uiso   1.00
F397   F     0.63762   0.77142   0.49443   0.00000  Uiso   1.00
N398   N     0.56587   0.68178   0.29149   0.00000  Uiso   1.00
H399   H     0.60282   0.70547   0.26740   0.00000  Uiso   1.00
H400   H     0.54543   0.70392   0.32193   0.00000  Uiso   1.00
C401   C     0.84730   0.93307   0.25419   0.00000  Uiso   1.00
C402   C     0.80274   0.83851   0.48947   0.00000  Uiso   1.00
C403   C     0.81922   0.85226   0.43716   0.00000  Uiso   1.00
C404   C     0.85046   0.85209   0.01932   0.00000  Uiso   1.00
C405   C     0.90718   0.88815   0.00048   0.00000  Uiso   1.00
C406   C     0.91786   0.90768   0.45175   0.00000  Uiso   1.00
C407   C     0.87506   0.88959   0.42031   0.00000  Uiso   1.00
C408   C     0.84501   0.82950   0.06639   0.00000  Uiso   1.00
C409   C     0.94168   0.88684   0.08037   0.00000  Uiso   1.00
C410   C     0.77847   0.82968   0.40338   0.00000  Uiso   1.00
C411   C     0.85274   0.98824   0.26300   0.00000  Uiso   1.00
C412   C     0.79979   0.83167   0.34725   0.00000  Uiso   1.00
C413   C     0.81204   0.67765   0.24726   0.00000  Uiso   1.00
C414   C     0.81824   0.73338   0.24946   0.00000  Uiso   1.00
C415   C     0.86712   0.83775   0.15301   0.00000  Uiso   1.00
C416   C     0.95246   0.90481   0.03089   0.00000  Uiso   1.00
C417   C     0.88733   0.84925   0.09847   0.00000  Uiso   1.00
C418   C     0.71799   0.80119   0.42344   0.00000  Uiso   1.00
C419   C     0.69800   0.79531   0.47572   0.00000  Uiso   1.00
C420   C     0.73883   0.81371   0.00914   0.00000  Uiso   1.00
Cu421  Cu    0.77377   0.82772   0.24436   0.00000  Uiso   1.00
Cu422  Cu    0.89290   0.83895   0.25565   0.00000  Uiso   1.00
H423   H     0.77458   0.98793   0.22962   0.00000  Uiso   1.00
H424   H     0.66916   0.87072   0.29162   0.00000  Uiso   1.00
H425   H     0.96019   0.93631   0.43738   0.00000  Uiso   1.00
H426   H     0.99517   0.93322   0.01702   0.00000  Uiso   1.00
H427   H     0.80766   0.79670   0.07943   0.00000  Uiso   1.00
H428   H     0.88543   0.90691   0.38326   0.00000  Uiso   1.00
N429   N     0.98241   0.84741   0.26416   0.00000  Uiso   1.00
N430   N     0.68426   0.81926   0.23584   0.00000  Uiso   1.00
O431   O     0.79464   0.90474   0.24633   0.00000  Uiso   1.00
O432   O     0.89524   0.91422   0.25587   0.00000  Uiso   1.00
O433   O     0.75848   0.82627   0.31840   0.00000  Uiso   1.00
O434   O     0.85908   0.83575   0.32793   0.00000  Uiso   1.00
O435   O     0.77142   0.75245   0.24414   0.00000  Uiso   1.00
O436   O     0.87203   0.76193   0.25367   0.00000  Uiso   1.00
O437   O     0.80758   0.83092   0.17207   0.00000  Uiso   1.00
O438   O     0.90819   0.84040   0.18161   0.00000  Uiso   1.00
F439   F     0.98279   0.90786   0.11104   0.00000  Uiso   1.00
N440   N     0.99309   0.78910   0.19713   0.00000  Uiso   1.00
H441   H     0.68591   0.80544   0.16296   0.00000  Uiso   1.00
H442   H     0.66956   0.75201   0.19773   0.00000  Uiso   1.00
F443   F     0.67739   0.77927   0.39253   0.00000  Uiso   1.00
N444   N     0.71044   0.81375   0.06240   0.00000  Uiso   1.00
H445   H     0.70952   0.77782   0.07735   0.00000  Uiso   1.00
H446   H     0.73272   0.84590   0.08226   0.00000  Uiso   1.00
F447   F     0.97095   0.77142   0.49443   0.00000  Uiso   1.00
N448   N     0.89920   0.68178   0.29149   0.00000  Uiso   1.00
H449   H     0.93616   0.70547   0.26740   0.00000  Uiso   1.00
H450   H     0.87877   0.70392   0.32193   0.00000  Uiso   1.00
C451   C     0.18064   0.26640   0.75419   0.00000  Uiso   1.00
C452   C     0.13607   0.17185   0.98947   0.00000  Uiso   1.00
C453   C     0.15255   0.18559   0.93716   0.00000  Uiso   1.00
C454   C     0.18379   0.18543   0.51932   0.00000  Uiso   1.00
C455   C     0.24051   0.22148   0.50048   0.00000  Uiso   1.00
C456   C     0.25119   0.24101   0.95175   0.00000  Uiso   1.00
C457   C     0.20839   0.22293   0.92031   0.00000  Uiso   1.00
C458   C     0.17834   0.16284   0.56639   0.00000  Uiso   1.00
C459   C     0.27501   0.22017   0.58037   0.00000  Uiso   1.00
C460   C     0.11180   0.16301   0.90338   0.00000  Uiso   1.00
C461   C     0.18607   0.32157   0.76300   0.00000  Uiso   1.00
C462   C     0.13312   0.16501   0.84725   0.00000  Uiso   1.00
C463   C     0.14537   0.01098   0.74726   0.00000  Uiso   1.00
C464   C     0.15158   0.06672   0.74946   0.00000  Uiso   1.00
C465   C     0.20045   0.17109   0.65301   0.00000  Uiso   1.00
C466   C     0.28579   0.23814   0.53089   0.00000  Uiso   1.00
C467   C     0.22067   0.18258   0.59847   0.00000  Uiso   1.00
C468   C     0.05132   0.13453   0.92344   0.00000  Uiso   1.00
C469   C     0.03133   0.12864   0.97572   0.00000  Uiso   1.00
C470   C     0.07216   0.14705   0.50914   0.00000  Uiso   1.00
Cu471  Cu    0.10710   0.16105   0.74436   0.00000  Uiso   1.00
Cu472  Cu    0.22623   0.17228   0.75565   0.00000  Uiso   1.00
H473   H     0.10792   0.32126   0.72962   0.00000  Uiso   1.00
H474   H     0.00249   0.20405   0.79162   0.00000  Uiso   1.00
H475   H     0.29353   0.26964   0.93738   0.00000  Uiso   1.00
H476   H     0.32851   0.26656   0.51702   0.00000  Uiso   1.00
H477   H     0.14099   0.13003   0.57943   0.00000  Uiso   1.00
H478   H     0.21876   0.24024   0.88326   0.00000  Uiso   1.00
N479   N     0.31574   0.18074   0.76416   0.00000  Uiso   1.00
N480   N     0.01759   0.15259   0.73584   0.00000  Uiso   1.00
O481   O     0.12797   0.23807   0.74633   0.00000  Uiso   1.00
O482   O     0.22858   0.24755   0.75587   0.00000  Uiso   1.00
O483   O     0.09181   0.15960   0.81840   0.00000  Uiso   1.00
O484   O     0.19242   0.16908   0.82793   0.00000  Uiso   1.00
O485   O     0.10476   0.08578   0.74414   0.00000  Uiso   1.00
O486   O     0.20536   0.09526   0.75367   0.00000  Uiso   1.00
O487   O     0.14092   0.16425   0.67207   0.00000  Uiso   1.00
O488   O     0.24152   0.17373   0.68161   0.00000  Uiso   1.00
F489   F     0.31613   0.24120   0.61104   0.00000  Uiso   1.00
N490   N     0.32643   0.12243   0.69713   0.00000  Uiso   1.00
H491   H     0.01924   0.13877   0.66296   0.00000  Uiso   1.00
H492   H     0.00289   0.08534   0.69773   0.00000  Uiso   1.00
F493   F     0.01073   0.11260   0.89253   0.00000  Uiso   1.00
N494   N     0.04378   0.14708   0.56240   0.00000  Uiso   1.00
H495   H     0.04285   0.11115   0.57735   0.00000  Uiso   1.00
H496   H     0.06605   0.17924   0.58226   0.00000  Uiso   1.00
F497   F     0.30428   0.10475   0.99443   0.00000  Uiso   1.00
N498   N     0.23253   0.01511   0.79149   0.00000  Uiso   1.00
H499   H     0.26949   0.03880   0.76740   0.00000  Uiso   1.00
H500   H     0.21210   0.03725   0.82193   0.00000  Uiso   1.00
C501   C     0.51397   0.26640   0.75419   0.00000  Uiso   1.00
C502   C     0.46941   0.17185   0.98947   0.00000  Uiso   1.00
C503   C     0.48589   0.18559   0.93716   0.00000  Uiso   1.00
C504   C     0.51713   0.18543   0.51932   0.00000  Uiso   1.00
C505   C     0.57385   0.22148   0.50048   0.00000  Uiso   1.00
C506   C     0.58453   0.24101   0.95175   0.00000  Uiso   1.00
C507   C     0.54172   0.22293   0.92031   0.00000  Uiso   1.00
C508   C     0.51168   0.16284   0.56639   0.00000  Uiso   1.00
C509   C     0.60834   0.22017   0.58037   0.00000  Uiso   1.00
C510   C     0.44514   0.16301   0.90338   0.00000  Uiso   1.00
C511   C     0.51940   0.32157   0.76300   0.00000  Uiso   1.00
C512   C     0.46645   0.16501   0.84725   0.00000  Uiso   1.00
C513   C     0.47870   0.01098   0.74726   0.00000  Uiso   1.00
C514   C     0.48491   0.06672   0.74946   0.00000  Uiso   1.00
C515   C     0.53379   0.17109   0.65301   0.00000  Uiso   1.00
C516   C     0.61912   0.23814   0.53089   0.00000  Uiso   1.00
C517   C     0.55400   0.18258   0.59847   0.00000  Uiso   1.00
C518   C     0.38465   0.13453   0.92344   0.00000  Uiso   1.00
C519   C     0.36466   0.12864   0.97572   0.00000  Uiso   1.00
C520   C     0.40549   0.14705   0.50914   0.00000  Uiso   1.00
Cu521  Cu    0.44043   0.16105   0.74436   0.00000  Uiso   1.00
Cu522  Cu    0.55957   0.17228   0.75565   0.00000  Uiso   1.00
H523   H     0.44125   0.32126   0.72962   0.00000  Uiso   1.00
H524   H     0.33583   0.20405   0.79162   0.00000  Uiso   1.00
H525   H     0.62686   0.26964   0.93738   0.00000  Uiso   1.00
H526   H     0.66184   0.26656   0.51702   0.00000  Uiso   1.00
H527   H     0.47433   0.13003   0.57943   0.00000  Uiso   1.00
H528   H     0.55209   0.24024   0.88326   0.00000  Uiso   1.00
N529   N     0.64908   0.18074   0.76416   0.00000  Uiso   1.00
N530   N     0.35092   0.15259   0.73584   0.00000  Uiso   1.00
O531   O     0.46131   0.23807   0.74633   0.00000  Uiso   1.00
O532   O     0.56191   0.24755   0.75587   0.00000  Uiso   1.00
O533   O     0.42515   0.15960   0.81840   0.00000  Uiso   1.00
O534   O     0.52575   0.16908   0.82793   0.00000  Uiso   1.00
O535   O     0.43809   0.08578   0.74414   0.00000  Uiso   1.00
O536   O     0.53869   0.09526   0.75367   0.00000  Uiso   1.00
O537   O     0.47425   0.16425   0.67207   0.00000  Uiso   1.00
O538   O     0.57485   0.17373   0.68161   0.00000  Uiso   1.00
F539   F     0.64946   0.24120   0.61104   0.00000  Uiso   1.00
N540   N     0.65976   0.12243   0.69713   0.00000  Uiso   1.00
H541   H     0.35258   0.13877   0.66296   0.00000  Uiso   1.00
H542   H     0.33623   0.08534   0.69773   0.00000  Uiso   1.00
F543   F     0.34406   0.11260   0.89253   0.00000  Uiso   1.00
N544   N     0.37711   0.14708   0.56240   0.00000  Uiso   1.00
H545   H     0.37618   0.11115   0.57735   0.00000  Uiso   1.00
H546   H     0.39939   0.17924   0.58226   0.00000  Uiso   1.00
F547   F     0.63762   0.10475   0.99443   0.00000  Uiso   1.00
N548   N     0.56587   0.01511   0.79149   0.00000  Uiso   1.00
H549   H     0.60282   0.03880   0.76740   0.00000  Uiso   1.00
H550   H     0.54543   0.03725   0.82193   0.00000  Uiso   1.00
C551   C     0.84730   0.26640   0.75419   0.00000  Uiso   1.00
C552   C     0.80274   0.17185   0.98947   0.00000  Uiso   1.00
C553   C     0.81922   0.18559   0.93716   0.00000  Uiso   1.00
C554   C     0.85046   0.18543   0.51932   0.00000  Uiso   1.00
C555   C     0.90718   0.22148   0.50048   0.00000  Uiso   1.00
C556   C     0.91786   0.24101   0.95175   0.00000  Uiso   1.00
C557   C     0.87506   0.22293   0.92031   0.00000  Uiso   1.00
C558   C     0.84501   0.16284   0.56639   0.00000  Uiso   1.00
C559   C     0.94168   0.22017   0.58037   0.00000  Uiso   1.00
C560   C     0.77847   0.16301   0.90338   0.00000  Uiso   1.00
C561   C     0.85274   0.32157   0.76300   0.00000  Uiso   1.00
C562   C     0.79979   0.16501   0.84725   0.00000  Uiso   1.00
C563   C     0.81204   0.01098   0.74726   0.00000  Uiso   1.00
C564   C     0.81824   0.06672   0.74946   0.00000  Uiso   1.00
C565   C     0.86712   0.17109   0.65301   0.00000  Uiso   1.00
C566   C     0.95246   0.23814   0.53089   0.00000  Uiso   1.00
C567   C     0.88733   0.18258   0.59847   0.00000  Uiso   1.00
C568   C     0.71799   0.13453   0.92344   0.00000  Uiso   1.00
C569   C     0.69800   0.12864   0.97572   0.00000  Uiso   1.00
C570   C     0.73883   0.14705   0.50914   0.00000  Uiso   1.00
Cu571  Cu    0.77377   0.16105   0.74436   0.00000  Uiso   1.00
Cu572  Cu    0.89290   0.17228   0.75565   0.00000  Uiso   1.00
H573   H     0.77458   0.32126   0.72962   0.00000  Uiso   1.00
H574   H     0.66916   0.20405   0.79162   0.00000  Uiso   1.00
H575   H     0.96019   0.26964   0.93738   0.00000  Uiso   1.00
H576   H     0.99517   0.26656   0.51702   0.00000  Uiso   1.00
H577   H     0.80766   0.13003   0.57943   0.00000  Uiso   1.00
H578   H     0.88543   0.24024   0.88326   0.00000  Uiso   1.00
N579   N     0.98241   0.18074   0.76416   0.00000  Uiso   1.00
N580   N     0.68426   0.15259   0.73584   0.00000  Uiso   1.00
O581   O     0.79464   0.23807   0.74633   0.00000  Uiso   1.00
O582   O     0.89524   0.24755   0.75587   0.00000  Uiso   1.00
O583   O     0.75848   0.15960   0.81840   0.00000  Uiso   1.00
O584   O     0.85908   0.16908   0.82793   0.00000  Uiso   1.00
O585   O     0.77142   0.08578   0.74414   0.00000  Uiso   1.00
O586   O     0.87203   0.09526   0.75367   0.00000  Uiso   1.00
O587   O     0.80758   0.16425   0.67207   0.00000  Uiso   1.00
O588   O     0.90819   0.17373   0.68161   0.00000  Uiso   1.00
F589   F     0.98279   0.24120   0.61104   0.00000  Uiso   1.00
N590   N     0.99309   0.12243   0.69713   0.00000  Uiso   1.00
H591   H     0.68591   0.13877   0.66296   0.00000  Uiso   1.00
H592   H     0.66956   0.08534   0.69773   0.00000  Uiso   1.00
F593   F     0.67739   0.11260   0.89253   0.00000  Uiso   1.00
N594   N     0.71044   0.14708   0.56240   0.00000  Uiso   1.00
H595   H     0.70952   0.11115   0.57735   0.00000  Uiso   1.00
H596   H     0.73272   0.17924   0.58226   0.00000  Uiso   1.00
F597   F     0.97095   0.10475   0.99443   0.00000  Uiso   1.00
N598   N     0.89920   0.01511   0.79149   0.00000  Uiso   1.00
H599   H     0.93616   0.03880   0.76740   0.00000  Uiso   1.00
H600   H     0.87877   0.03725   0.82193   0.00000  Uiso   1.00
C601   C     0.18064   0.59974   0.75419   0.00000  Uiso   1.00
C602   C     0.13607   0.50518   0.98947   0.00000  Uiso   1.00
C603   C     0.15255   0.51892   0.93716   0.00000  Uiso   1.00
C604   C     0.18379   0.51876   0.51932   0.00000  Uiso   1.00
C605   C     0.24051   0.55482   0.50048   0.00000  Uiso   1.00
C606   C     0.25119   0.57435   0.95175   0.00000  Uiso   1.00
C607   C     0.20839   0.55626   0.92031   0.00000  Uiso   1.00
C608   C     0.17834   0.49617   0.56639   0.00000  Uiso   1.00
C609   C     0.27501   0.55351   0.58037   0.00000  Uiso   1.00
C610   C     0.11180   0.49634   0.90338   0.00000  Uiso   1.00
C611   C     0.18607   0.65490   0.76300   0.00000  Uiso   1.00
C612   C     0.13312   0.49834   0.84725   0.00000  Uiso   1.00
C613   C     0.14537   0.34432   0.74726   0.00000  Uiso   1.00
C614   C     0.15158   0.40005   0.74946   0.00000  Uiso   1.00
C615   C     0.20045   0.50442   0.65301   0.00000  Uiso   1.00
C616   C     0.28579   0.57148   0.53089   0.00000  Uiso   1.00
C617   C     0.22067   0.51591   0.59847   0.00000  Uiso   1.00
C618   C     0.05132   0.46786   0.92344   0.00000  Uiso   1.00
C619   C     0.03133   0.46198   0.97572   0.00000  Uiso   1.00
C620   C     0.07216   0.48038   0.50914   0.00000  Uiso   1.00
Cu621  Cu    0.10710   0.49439   0.74436   0.00000  Uiso   1.00
Cu622  Cu    0.22623   0.50561   0.75565   0.00000  Uiso   1.00
H623   H     0.10792   0.65459   0.72962   0.00000  Uiso   1.00
H624   H     0.00249   0.53738   0.79162   0.00000  Uiso   1.00
H625   H     0.29353   0.60298   0.93738   0.00000  Uiso   1.00
H626   H     0.32851   0.59989   0.51702   0.00000  Uiso   1.00
H627   H     0.14099   0.46336   0.57943   0.00000  Uiso   1.00
H628   H     0.21876   0.57357   0.88326   0.00000  Uiso   1.00
N629   N     0.31574   0.51407   0.76416   0.00000  Uiso   1.00
N630   N     0.01759   0.48593   0.73584   0.00000  Uiso   1.00
O631   O     0.12797   0.57141   0.74633   0.00000  Uiso   1.00
O632   O     0.22858   0.58089   0.75587   0.00000  Uiso   1.00
O633   O     0.09181   0.49293   0.81840   0.00000  Uiso   1.00
O634   O     0.19242   0.50241   0.82793   0.00000  Uiso   1.00
O635   O     0.10476   0.41911   0.74414   0.00000  Uiso   1.00
O636   O     0.20536   0.42859   0.75367   0.00000  Uiso   1.00
O637   O     0.14092   0.49759   0.67207   0.00000  Uiso   1.00
O638   O     0.24152   0.50707   0.68161   0.00000  Uiso   1.00
F639   F     0.31613   0.57453   0.61104   0.00000  Uiso   1.00
N640   N     0.32643   0.45576   0.69713   0.00000  Uiso   1.00
H641   H     0.01924   0.47210   0.66296   0.00000  Uiso   1.00
H642   H     0.00289   0.41868   0.69773   0.00000  Uiso   1.00
F643   F     0.01073   0.44593   0.89253   0.00000  Uiso   1.00
N644   N     0.04378   0.48041   0.56240   0.00000  Uiso   1.00
H645   H     0.04285   0.44448   0.57735   0.00000  Uiso   1.00
H646   H     0.06605   0.51257   0.58226   0.00000  Uiso   1.00
F647   F     0.30428   0.43809   0.99443   0.00000  Uiso   1.00
N648   N     0.23253   0.34845   0.79149   0.00000  Uiso   1.00
H649   H     0.26949   0.37213   0.76740   0.00000  Uiso   1.00
H650   H     0.21210   0.37058   0.82193   0.00000  Uiso   1.00
C651   C     0.51397   0.59974   0.75419   0.00000  Uiso   1.00
C652   C     0.46941   0.50518   0.98947   0.00000  Uiso   1.00
C653   C     0.48589   0.51892   0.93716   0.00000  Uiso   1.00
C654   C     0.51713   0.51876   0.51932   0.00000  Uiso   1.00
C655   C     0.57385   0.55482   0.50048   0.00000  Uiso   1.00
C656   C     0.58453   0.57435   0.95175   0.00000  Uiso   1.00
C657   C     0.54172   0.55626   0.92031   0.00000  Uiso   1.00
C658   C     0.51168   0.49617   0.56639   0.00000  Uiso   1.00
C659   C     0.60834   0.55351   0.58037   0.00000  Uiso   1.00
C660   C     0.44514   0.49634   0.90338   0.00000  Uiso   1.00
C661   C     0.51940   0.65490   0.76300   0.00000  Uiso   1.00
C662   C     0.46645   0.49834   0.84725   0.00000  Uiso   1.00
C663   C     0.47870   0.34432   0.74726   0.00000  Uiso   1.00
C664   C     0.48491   0.40005   0.74946   0.00000  Uiso   1.00
C665   C     0.53379   0.50442   0.65301   0.00000  Uiso   1.00
C666   C     0.61912   0.57148   0.53089   0.00000  Uiso   1.00
C667   C     0.55400   0.51591   0.59847   0.00000  Uiso   1.00
C668   C     0.38465   0.46786   0.92344   0.00000  Uiso   1.00
C669   C     0.36466   0.46198   0.97572   0.00000  Uiso   1.00
C670   C     0.40549   0.48038   0.50914   0.00000  Uiso   1.00
Cu671  Cu    0.44043   0.49439   0.74436   0.00000  Uiso   1.00
Cu672  Cu    0.55957   0.50561   0.75565   0.00000  Uiso   1.00
H673   H     0.44125   0.65459   0.72962   0.00000  Uiso   1.00
H674   H     0.33583   0.53738   0.79162   0.00000  Uiso   1.00
H675   H     0.62686   0.60298   0.93738   0.00000  Uiso   1.00
H676   H     0.66184   0.59989   0.51702   0.00000  Uiso   1.00
H677   H     0.47433   0.46336   0.57943   0.00000  Uiso   1.00
H678   H     0.55209   0.57357   0.88326   0.00000  Uiso   1.00
N679   N     0.64908   0.51407   0.76416   0.00000  Uiso   1.00
N680   N     0.35092   0.48593   0.73584   0.00000  Uiso   1.00
O681   O     0.46131   0.57141   0.74633   0.00000  Uiso   1.00
O682   O     0.56191   0.58089   0.75587   0.00000  Uiso   1.00
O683   O     0.42515   0.49293   0.81840   0.00000  Uiso   1.00
O684   O     0.52575   0.50241   0.82793   0.00000  Uiso   1.00
O685   O     0.43809   0.41911   0.74414   0.00000  Uiso   1.00
O686   O     0.53869   0.42859   0.75367   0.00000  Uiso   1.00
O687   O     0.47425   0.49759   0.67207   0.00000  Uiso   1.00
O688   O     0.57485   0.50707   0.68161   0.00000  Uiso   1.00
F689   F     0.64946   0.57453   0.61104   0.00000  Uiso   1.00
N690   N     0.65976   0.45576   0.69713   0.00000  Uiso   1.00
H691   H     0.35258   0.47210   0.66296   0.00000  Uiso   1.00
H692   H     0.33623   0.41868   0.69773   0.00000  Uiso   1.00
F693   F     0.34406   0.44593   0.89253   0.00000  Uiso   1.00
N694   N     0.37711   0.48041   0.56240   0.00000  Uiso   1.00
H695   H     0.37618   0.44448   0.57735   0.00000  Uiso   1.00
H696   H     0.39939   0.51257   0.58226   0.00000  Uiso   1.00
F697   F     0.63762   0.43809   0.99443   0.00000  Uiso   1.00
N698   N     0.56587   0.34845   0.79149   0.00000  Uiso   1.00
H699   H     0.60282   0.37213   0.76740   0.00000  Uiso   1.00
H700   H     0.54543   0.37058   0.82193   0.00000  Uiso   1.00
C701   C     0.84730   0.59974   0.75419   0.00000  Uiso   1.00
C702   C     0.80274   0.50518   0.98947   0.00000  Uiso   1.00
C703   C     0.81922   0.51892   0.93716   0.00000  Uiso   1.00
C704   C     0.85046   0.51876   0.51932   0.00000  Uiso   1.00
C705   C     0.90718   0.55482   0.50048   0.00000  Uiso   1.00
C706   C     0.91786   0.57435   0.95175   0.00000  Uiso   1.00
C707   C     0.87506   0.55626   0.92031   0.00000  Uiso   1.00
C708   C     0.84501   0.49617   0.56639   0.00000  Uiso   1.00
C709   C     0.94168   0.55351   0.58037   0.00000  Uiso   1.00
C710   C     0.77847   0.49634   0.90338   0.00000  Uiso   1.00
C711   C     0.85274   0.65490   0.76300   0.00000  Uiso   1.00
C712   C     0.79979   0.49834   0.84725   0.00000  Uiso   1.00
C713   C     0.81204   0.34432   0.74726   0.00000  Uiso   1.00
C714   C     0.81824   0.40005   0.74946   0.00000  Uiso   1.00
C715   C     0.86712   0.50442   0.65301   0.00000  Uiso   1.00
C716   C     0.95246   0.57148   0.53089   0.00000  Uiso   1.00
C717   C     0.88733   0.51591   0.59847   0.00000  Uiso   1.00
C718   C     0.71799   0.46786   0.92344   0.00000  Uiso   1.00
C719   C     0.69800   0.46198   0.97572   0.00000  Uiso   1.00
C720   C     0.73883   0.48038   0.50914   0.00000  Uiso   1.00
Cu721  Cu    0.77377   0.49439   0.74436   0.00000  Uiso   1.00
Cu722  Cu    0.89290   0.50561   0.75565   0.00000  Uiso   1.00
H723   H     0.77458   0.65459   0.72962   0.00000  Uiso   1.00
H724   H     0.66916   0.53738   0.79162   0.00000  Uiso   1.00
H725   H     0.96019   0.60298   0.93738   0.00000  Uiso   1.00
H726   H     0.99517   0.59989   0.51702   0.00000  Uiso   1.00
H727   H     0.80766   0.46336   0.57943   0.00000  Uiso   1.00
H728   H     0.88543   0.57357   0.88326   0.00000  Uiso   1.00
N729   N     0.98241   0.51407   0.76416   0.00000  Uiso   1.00
N730   N     0.68426   0.48593   0.73584   0.00000  Uiso   1.00
O731   O     0.79464   0.57141   0.74633   0.00000  Uiso   1.00
O732   O     0.89524   0.58089   0.75587   0.00000  Uiso   1.00
O733   O     0.75848   0.49293   0.81840   0.00000  Uiso   1.00
O734   O     0.85908   0.50241   0.82793   0.00000  Uiso   1.00
O735   O     0.77142   0.41911   0.74414   0.00000  Uiso   1.00
O736   O     0.87203   0.42859   0.75367   0.00000  Uiso   1.00
O737   O     0.80758   0.49759   0.67207   0.00000  Uiso   1.00
O738   O     0.90819   0.50707   0.68161   0.00000  Uiso   1.00
F739   F     0.98279   0.57453   0.61104   0.00000  Uiso   1.00
N740   N     0.99309   0.45576   0.69713   0.00000  Uiso   1.00
H741   H     0.68591   0.47210   0.66296   0.00000  Uiso   1.00
H742   H     0.66956   0.41868   0.69773   0.00000  Uiso   1.00
F743   F     0.67739   0.44593   0.89253   0.00000  Uiso   1.00
N744   N     0.71044   0.48041   0.56240   0.00000  Uiso   1.00
H745   H     0.70952   0.44448   0.57735   0.00000  Uiso   1.00
H746   H     0.73272   0.51257   0.58226   0.00000  Uiso   1.00
F747   F     0.97095   0.43809   0.99443   0.00000  Uiso   1.00
N748   N     0.89920   0.34845   0.79149   0.00000  Uiso   1.00
H749   H     0.93616   0.37213   0.76740   0.00000  Uiso   1.00
H750   H     0.87877   0.37058   0.82193   0.00000  Uiso   1.00
C751   C     0.18064   0.93307   0.75419   0.00000  Uiso   1.00
C752   C     0.13607   0.83851   0.98947   0.00000  Uiso   1.00
C753   C     0.15255   0.85226   0.93716   0.00000  Uiso   1.00
C754   C     0.18379   0.85209   0.51932   0.00000  Uiso   1.00
C755   C     0.24051   0.88815   0.50048   0.00000  Uiso   1.00
C756   C     0.25119   0.90768   0.95175   0.00000  Uiso   1.00
C757   C     0.20839   0.88959   0.92031   0.00000  Uiso   1.00
C758   C     0.17834   0.82950   0.56639   0.00000  Uiso   1.00
C759   C     0.27501   0.88684   0.58037   0.00000  Uiso   1.00
C760   C     0.11180   0.82968   0.90338   0.00000  Uiso   1.00
C761   C     0.18607   0.98824   0.76300   0.00000  Uiso   1.00
C762   C     0.13312   0.83167   0.84725   0.00000  Uiso   1.00
C763   C     0.14537   0.67765   0.74726   0.00000  Uiso   1.00
C764   C     0.15158   0.73338   0.74946   0.00000  Uiso   1.00
C765   C     0.20045   0.83775   0.65301   0.00000  Uiso   1.00
C766   C     0.28579   0.90481   0.53089   0.00000  Uiso   1.00
C767   C     0.22067   0.84925   0.59847   0.00000  Uiso   1.00
C768   C     0.05132   0.80119   0.92344   0.00000  Uiso   1.00
C769   C     0.03133   0.79531   0.97572   0.00000  Uiso   1.00
C770   C     0.07216   0.81371   0.50914   0.00000  Uiso   1.00
Cu771  Cu    0.10710   0.82772   0.74436   0.00000  Uiso   1.00
Cu772  Cu    0.22623   0.83895   0.75565   0.00000  Uiso   1.00
H773   H     0.10792   0.98793   0.72962   0.00000  Uiso   1.00
H774   H     0.00249   0.87072   0.79162   0.00000  Uiso   1.00
H775   H     0.29353   0.93631   0.93738   0.00000  Uiso   1.00
H776   H     0.32851   0.93322   0.51702   0.00000  Uiso   1.00
H777   H     0.14099   0.79670   0.57943   0.00000  Uiso   1.00
H778   H     0.21876   0.90691   0.88326   0.00000  Uiso   1.00
N779   N     0.31574   0.84741   0.76416   0.00000  Uiso   1.00
N780   N     0.01759   0.81926   0.73584   0.00000  Uiso   1.00
O781   O     0.12797   0.90474   0.74633   0.00000  Uiso   1.00
O782   O     0.22858   0.91422   0.75587   0.00000  Uiso   1.00
O783   O     0.09181   0.82627   0.81840   0.00000  Uiso   1.00
O784   O     0.19242   0.83575   0.82793   0.00000  Uiso   1.00
O785   O     0.10476   0.75245   0.74414   0.00000  Uiso   1.00
O786   O     0.20536   0.76193   0.75367   0.00000  Uiso   1.00
O787   O     0.14092   0.83092   0.67207   0.00000  Uiso   1.00
O788   O     0.24152   0.84040   0.68161   0.00000  Uiso   1.00
F789   F     0.31613   0.90786   0.61104   0.00000  Uiso   1.00
N790   N     0.32643   0.78910   0.69713   0.00000  Uiso   1.00
H791   H     0.01924   0.80544   0.66296   0.00000  Uiso   1.00
H792   H     0.00289   0.75201   0.69773   0.00000  Uiso   1.00
F793   F     0.01073   0.77927   0.89253   0.00000  Uiso   1.00
N794   N     0.04378   0.81375   0.56240   0.00000  Uiso   1.00
H795   H     0.04285   0.77782   0.57735   0.00000  Uiso   1.00
H796   H     0.06605   0.84590   0.58226   0.00000  Uiso   1.00
F797   F     0.30428   0.77142   0.99443   0.00000  Uiso   1.00
N798   N     0.23253   0.68178   0.79149   0.00000  Uiso   1.00
H799   H     0.26949   0.70547   0.76740   0.00000  Uiso   1.00
H800   H     0.21210   0.70392   0.82193   0.00000  Uiso   1.00
C801   C     0.51397   0.93307   0.75419   0.00000  Uiso   1.00
C802   C     0.46941   0.83851   0.98947   0.00000  Uiso   1.00
C803   C     0.48589   0.85226   0.93716   0.00000  Uiso   1.00
C804   C     0.51713   0.85209   0.51932   0.00000  Uiso   1.00
C805   C     0.57385   0.88815   0.50048   0.00000  Uiso   1.00
C806   C     0.58453   0.90768   0.95175   0.00000  Uiso   1.00
C807   C     0.54172   0.88959   0.92031   0.00000  Uiso   1.00
C808   C     0.51168   0.82950   0.56639   0.00000  Uiso   1.00
C809   C     0.60834   0.88684   0.58037   0.00000  Uiso   1.00
C810   C     0.44514   0.82968   0.90338   0.00000  Uiso   1.00
C811   C     0.51940   0.98824   0.76300   0.00000  Uiso   1.00
C812   C     0.46645   0.83167   0.84725   0.00000  Uiso   1.00
C813   C     0.47870   0.67765   0.74726   0.00000  Uiso   1.00
C814   C     0.48491   0.73338   0.74946   0.00000  Uiso   1.00
C815   C     0.53379   0.83775   0.65301   0.00000  Uiso   1.00
C816   C     0.61912   0.90481   0.53089   0.00000  Uiso   1.00
C817   C     0.55400   0.84925   0.59847   0.00000  Uiso   1.00
C818   C     0.38465   0.80119   0.92344   0.00000  Uiso   1.00
C819   C     0.36466   0.79531   0.97572   0.00000  Uiso   1.00
C820   C     0.40549   0.81371   0.50914   0.00000  Uiso   1.00
Cu821  Cu    0.44043   0.82772   0.74436   0.00000  Uiso   1.00
Cu822  Cu    0.55957   0.83895   0.75565   0.00000  Uiso   1.00
H823   H     0.44125   0.98793   0.72962   0.00000  Uiso   1.00
H824   H     0.33583   0.87072   0.79162   0.00000  Uiso   1.00
H825   H     0.62686   0.93631   0.93738   0.00000  Uiso   1.00
H826   H     0.66184   0.93322   0.51702   0.00000  Uiso   1.00
H827   H     0.47433   0.79670   0.57943   0.00000  Uiso   1.00
H828   H     0.55209   0.90691   0.88326   0.00000  Uiso   1.00
N829   N     0.64908   0.84741   0.76416   0.00000  Uiso   1.00
N830   N     0.35092   0.81926   0.73584   0.00000  Uiso   1.00
O831   O     0.46131   0.90474   0.74633   0.00000  Uiso   1.00
O832   O     0.56191   0.91422   0.75587   0.00000  Uiso   1.00
O833   O     0.42515   0.82627   0.81840   0.00000  Uiso   1.00
O834   O     0.52575   0.83575   0.82793   0.00000  Uiso   1.00
O835   O     0.43809   0.75245   0.74414   0.00000  Uiso   1.00
O836   O     0.53869   0.76193   0.75367   0.00000  Uiso   1.00
O837   O     0.47425   0.83092   0.67207   0.00000  Uiso   1.00
O838   O     0.57485   0.84040   0.68161   0.00000  Uiso   1.00
F839   F     0.64946   0.90786   0.61104   0.00000  Uiso   1.00
N840   N     0.65976   0.78910   0.69713   0.00000  Uiso   1.00
H841   H     0.35258   0.80544   0.66296   0.00000  Uiso   1.00
H842   H     0.33623   0.75201   0.69773   0.00000  Uiso   1.00
F843   F     0.34406   0.77927   0.89253   0.00000  Uiso   1.00
N844   N     0.37711   0.81375   0.56240   0.00000  Uiso   1.00
H845   H     0.37618   0.77782   0.57735   0.00000  Uiso   1.00
H846   H     0.39939   0.84590   0.58226   0.00000  Uiso   1.00
F847   F     0.63762   0.77142   0.99443   0.00000  Uiso   1.00
N848   N     0.56587   0.68178   0.79149   0.00000  Uiso   1.00
H849   H     0.60282   0.70547   0.76740   0.00000  Uiso   1.00
H850   H     0.54543   0.70392   0.82193   0.00000  Uiso   1.00
C851   C     0.84730   0.93307   0.75419   0.00000  Uiso   1.00
C852   C     0.80274   0.83851   0.98947   0.00000  Uiso   1.00
C853   C     0.81922   0.85226   0.93716   0.00000  Uiso   1.00
C854   C     0.85046   0.85209   0.51932   0.00000  Uiso   1.00
C855   C     0.90718   0.88815   0.50048   0.00000  Uiso   1.00
C856   C     0.91786   0.90768   0.95175   0.00000  Uiso   1.00
C857   C     0.87506   0.88959   0.92031   0.00000  Uiso   1.00
C858   C     0.84501   0.82950   0.56639   0.00000  Uiso   1.00
C859   C     0.94168   0.88684   0.58037   0.00000  Uiso   1.00
C860   C     0.77847   0.82968   0.90338   0.00000  Uiso   1.00
C861   C     0.85274   0.98824   0.76300   0.00000  Uiso   1.00
C862   C     0.79979   0.83167   0.84725   0.00000  Uiso   1.00
C863   C     0.81204   0.67765   0.74726   0.00000  Uiso   1.00
C864   C     0.81824   0.73338   0.74946   0.00000  Uiso   1.00
C865   C     0.86712   0.83775   0.65301   0.00000  Uiso   1.00
C866   C     0.95246   0.90481   0.53089   0.00000  Uiso   1.00
C867   C     0.88733   0.84925   0.59847   0.00000  Uiso   1.00
C868   C     0.71799   0.80119   0.92344   0.00000  Uiso   1.00
C869   C     0.69800   0.79531   0.97572   0.00000  Uiso   1.00
C870   C     0.73883   0.81371   0.50914   0.00000  Uiso   1.00
Cu871  Cu    0.77377   0.82772   0.74436   0.00000  Uiso   1.00
Cu872  Cu    0.89290   0.83895   0.75565   0.00000  Uiso   1.00
H873   H     0.77458   0.98793   0.72962   0.00000  Uiso   1.00
H874   H     0.66916   0.87072   0.79162   0.00000  Uiso   1.00
H875   H     0.96019   0.93631   0.93738   0.00000  Uiso   1.00
H876   H     0.99517   0.93322   0.51702   0.00000  Uiso   1.00
H877   H     0.80766   0.79670   0.57943   0.00000  Uiso   1.00
H878   H     0.88543   0.90691   0.88326   0.00000  Uiso   1.00
N879   N     0.98241   0.84741   0.76416   0.00000  Uiso   1.00
N880   N     0.68426   0.81926   0.73584   0.00000  Uiso   1.00
O881   O     0.79464   0.90474   0.74633   0.00000  Uiso   1.00
O882   O     0.89524   0.91422   0.75587   0.00000  Uiso   1.00
O883   O     0.75848   0.82627   0.81840   0.00000  Uiso   1.00
O884   O     0.85908   0.83575   0.82793   0.00000  Uiso   1.00
O885   O     0.77142   0.75245   0.74414   0.00000  Uiso   1.00
O886   O     0.87203   0.76193   0.75367   0.00000  Uiso   1.00
O887   O     0.80758   0.83092   0.67207   0.00000  Uiso   1.00
O888   O     0.90819   0.84040   0.68161   0.00000  Uiso   1.00
F889   F     0.98279   0.90786   0.61104   0.00000  Uiso   1.00
N890   N     0.99309   0.78910   0.69713   0.00000  Uiso   1.00
H891   H     0.68591   0.80544   0.66296   0.00000  Uiso   1.00
H892   H     0.66956   0.75201   0.69773   0.00000  Uiso   1.00
F893   F     0.67739   0.77927   0.89253   0.00000  Uiso   1.00
N894   N     0.71044   0.81375   0.56240   0.00000  Uiso   1.00
H895   H     0.70952   0.77782   0.57735   0.00000  Uiso   1.00
H896   H     0.73272   0.84590   0.58226   0.00000  Uiso   1.00
F897   F     0.97095   0.77142   0.99443   0.00000  Uiso   1.00
N898   N     0.89920   0.68178   0.79149   0.00000  Uiso   1.00
H899   H     0.93616   0.70547   0.76740   0.00000  Uiso   1.00
H900   H     0.87877   0.70392   0.82193   0.00000  Uiso   1.00
loop_
_geom_bond_atom_site_label_1
_geom_bond_atom_site_label_2
_geom_bond_distance
_geom_bond_site_symmetry_2
_ccdc_geom_bond_type
C1     C11     1.426   .     S
C1     O31     1.291   .     A
C1     O32     1.287   .     A
C2     C3      1.423   .     A
C2     C454    1.431   .     S
C2     C470    1.434   .     S
C3     C10     1.421   .     A
C3     C7      1.413   .     A
C4     C8      1.403   .     A
C4     C5      1.420   .     A
C4     C452    1.431   1_554 S
C5     C16     1.404   .     A
C5     C456    1.391   1_554 S
C6     C7      1.386   .     A
C6     H25     1.084   .     S
C6     C455    1.391   .     S
C7     H28     1.080   .     S
C8     H27     1.075   .     S
C8     C17     1.398   .     A
C9     F39     1.357   .     S
C9     C16     1.394   .     A
C9     C17     1.401   .     A
C10    C18     1.404   .     A
C10    C12     1.477   .     S
C11    C163    1.344   .     S
C11    N198    1.441   .     S
C12    O34     1.300   .     A
C12    O33     1.302   .     A
C13    C14     1.431   .     S
C13    C311    1.344   1_545 S
C13    H323    1.088   1_545 S
C14    O36     1.287   .     A
C14    O35     1.294   .     A
C15    O38     1.302   .     A
C15    C17     1.467   .     S
C15    O37     1.297   .     A
C16    H26     1.084   .     S
C18    C19     1.384   .     A
C18    F43     1.359   .     S
C19    C470    1.395   .     S
C19    F147    1.358   1_455 S
C20    N44     1.431   .     S
C20    C452    1.434   1_554 S
C20    C469    1.395   1_554 S
Cu21   O35     1.958   .     S
Cu21   N30     2.023   .     S
Cu21   Cu22    2.692   .     S
Cu21   O31     1.962   .     S
Cu21   O33     1.939   .     S
Cu21   O37     1.922   .     S
Cu22   N29     2.023   .     S
Cu22   O32     1.958   .     S
Cu22   O36     1.962   .     S
Cu22   O34     1.922   .     S
Cu22   O38     1.939   .     S
H23    C163    1.088   .     S
H24    N129    1.029   1_455 S
N29    H74     1.029   .     S
N29    N80     1.286   .     S
N30    N129    1.286   1_455 S
N30    N140    1.383   1_455 S
N40    N80     1.383   .     S
N40    H91     1.040   .     S
N40    H92     1.044   .     S
H41    N140    1.040   1_455 S
H42    N140    1.044   1_455 S
N44    H46     1.044   .     S
N44    H45     1.045   .     S
F47    C69     1.358   .     S
N48    H50     1.046   .     S
N48    H49     1.043   .     S
N48    C311    1.441   1_545 S
C51    C61     1.426   .     S
C51    O81     1.291   .     A
C51    O82     1.287   .     A
C52    C53     1.423   .     A
C52    C504    1.431   .     S
C52    C520    1.434   .     S
C53    C60     1.421   .     A
C53    C57     1.413   .     A
C54    C58     1.403   .     A
C54    C55     1.420   .     A
C54    C502    1.431   1_554 S
C55    C66     1.404   .     A
C55    C506    1.391   1_554 S
C56    C57     1.386   .     A
C56    H75     1.084   .     S
C56    C505    1.391   .     S
C57    H78     1.080   .     S
C58    H77     1.075   .     S
C58    C67     1.398   .     A
C59    F89     1.357   .     S
C59    C66     1.394   .     A
C59    C67     1.401   .     A
C60    C68     1.404   .     A
C60    C62     1.477   .     S
C61    C213    1.344   .     S
C61    N248    1.441   .     S
C62    O84     1.300   .     A
C62    O83     1.302   .     A
C63    C64     1.431   .     S
C63    C361    1.344   1_545 S
C63    H373    1.088   1_545 S
C64    O86     1.287   .     A
C64    O85     1.294   .     A
C65    O88     1.302   .     A
C65    C67     1.467   .     S
C65    O87     1.297   .     A
C66    H76     1.084   .     S
C68    C69     1.384   .     A
C68    F93     1.359   .     S
C69    C520    1.395   .     S
C70    N94     1.431   .     S
C70    C502    1.434   1_554 S
C70    C519    1.395   1_554 S
Cu71   O85     1.958   .     S
Cu71   N80     2.023   .     S
Cu71   Cu72    2.692   .     S
Cu71   O81     1.962   .     S
Cu71   O83     1.939   .     S
Cu71   O87     1.922   .     S
Cu72   N79     2.023   .     S
Cu72   O82     1.958   .     S
Cu72   O86     1.962   .     S
Cu72   O84     1.922   .     S
Cu72   O88     1.939   .     S
H73    C213    1.088   .     S
N79    H124    1.029   .     S
N79    N130    1.286   .     S
N90    N130    1.383   .     S
N90    H141    1.040   .     S
N90    H142    1.044   .     S
N94    H96     1.044   .     S
N94    H95     1.045   .     S
F97    C119    1.358   .     S
N98    H100    1.046   .     S
N98    H99     1.043   .     S
N98    C361    1.441   1_545 S
C101   C111    1.426   .     S
C101   O131    1.291   .     A
C101   O132    1.287   .     A
C102   C103    1.423   .     A
C102   C554    1.431   .     S
C102   C570    1.434   .     S
C103   C110    1.421   .     A
C103   C107    1.413   .     A
C104   C108    1.403   .     A
C104   C105    1.420   .     A
C104   C552    1.431   1_554 S
C105   C116    1.404   .     A
C105   C556    1.391   1_554 S
C106   C107    1.386   .     A
C106   H125    1.084   .     S
C106   C555    1.391   .     S
C107   H128    1.080   .     S
C108   H127    1.075   .     S
C108   C117    1.398   .     A
C109   F139    1.357   .     S
C109   C116    1.394   .     A
C109   C117    1.401   .     A
C110   C118    1.404   .     A
C110   C112    1.477   .     S
C111   C263    1.344   .     S
C111   N298    1.441   .     S
C112   O134    1.300   .     A
C112   O133    1.302   .     A
C113   C114    1.431   .     S
C113   C411    1.344   1_545 S
C113   H423    1.088   1_545 S
C114   O136    1.287   .     A
C114   O135    1.294   .     A
C115   O138    1.302   .     A
C115   C117    1.467   .     S
C115   O137    1.297   .     A
C116   H126    1.084   .     S
C118   C119    1.384   .     A
C118   F143    1.359   .     S
C119   C570    1.395   .     S
C120   N144    1.431   .     S
C120   C552    1.434   1_554 S
C120   C569    1.395   1_554 S
Cu121  O135    1.958   .     S
Cu121  N130    2.023   .     S
Cu121  Cu122   2.692   .     S
Cu121  O131    1.962   .     S
Cu121  O133    1.939   .     S
Cu121  O137    1.922   .     S
Cu122  N129    2.023   .     S
Cu122  O132    1.958   .     S
Cu122  O136    1.962   .     S
Cu122  O134    1.922   .     S
Cu122  O138    1.939   .     S
H123   C263    1.088   .     S
N129   H24     1.029   1_655 S
N129   N30     1.286   1_655 S
N140   N30     1.383   1_655 S
N140   H41     1.040   1_655 S
N140   H42     1.044   1_655 S
N144   H146    1.044   .     S
N144   H145    1.045   .     S
F147   C19     1.358   1_655 S
N148   H150    1.046   .     S
N148   H149    1.043   .     S
N148   C411    1.441   1_545 S
C151   C161    1.426   .     S
C151   O181    1.291   .     A
C151   O182    1.287   .     A
C152   C153    1.423   .     A
C152   C604    1.431   .     S
C152   C620    1.434   .     S
C153   C160    1.421   .     A
C153   C157    1.413   .     A
C154   C158    1.403   .     A
C154   C155    1.420   .     A
C154   C602    1.431   1_554 S
C155   C166    1.404   .     A
C155   C606    1.391   1_554 S
C156   C157    1.386   .     A
C156   H175    1.084   .     S
C156   C605    1.391   .     S
C157   H178    1.080   .     S
C158   H177    1.075   .     S
C158   C167    1.398   .     A
C159   F189    1.357   .     S
C159   C166    1.394   .     A
C159   C167    1.401   .     A
C160   C168    1.404   .     A
C160   C162    1.477   .     S
C161   C313    1.344   .     S
C161   N348    1.441   .     S
C162   O184    1.300   .     A
C162   O183    1.302   .     A
C163   C164    1.431   .     S
C164   O186    1.287   .     A
C164   O185    1.294   .     A
C165   O188    1.302   .     A
C165   C167    1.467   .     S
C165   O187    1.297   .     A
C166   H176    1.084   .     S
C168   C169    1.384   .     A
C168   F193    1.359   .     S
C169   C620    1.395   .     S
C169   F297    1.358   1_455 S
C170   N194    1.431   .     S
C170   C602    1.434   1_554 S
C170   C619    1.395   1_554 S
Cu171  O185    1.958   .     S
Cu171  N180    2.023   .     S
Cu171  Cu172   2.692   .     S
Cu171  O181    1.962   .     S
Cu171  O183    1.939   .     S
Cu171  O187    1.922   .     S
Cu172  N179    2.023   .     S
Cu172  O182    1.958   .     S
Cu172  O186    1.962   .     S
Cu172  O184    1.922   .     S
Cu172  O188    1.939   .     S
H173   C313    1.088   .     S
H174   N279    1.029   1_455 S
N179   H224    1.029   .     S
N179   N230    1.286   .     S
N180   N279    1.286   1_455 S
N180   N290    1.383   1_455 S
N190   N230    1.383   .     S
N190   H241    1.040   .     S
N190   H242    1.044   .     S
H191   N290    1.040   1_455 S
H192   N290    1.044   1_455 S
N194   H196    1.044   .     S
N194   H195    1.045   .     S
F197   C219    1.358   .     S
N198   H200    1.046   .     S
N198   H199    1.043   .     S
C201   C211    1.426   .     S
C201   O231    1.291   .     A
C201   O232    1.287   .     A
C202   C203    1.423   .     A
C202   C654    1.431   .     S
C202   C670    1.434   .     S
C203   C210    1.421   .     A
C203   C207    1.413   .     A
C204   C208    1.403   .     A
C204   C205    1.420   .     A
C204   C652    1.431   1_554 S
C205   C216    1.404   .     A
C205   C656    1.391   1_554 S
C206   C207    1.386   .     A
C206   H225    1.084   .     S
C206   C655    1.391   .     S
C207   H228    1.080   .     S
C208   H227    1.075   .     S
C208   C217    1.398   .     A
C209   F239    1.357   .     S
C209   C216    1.394   .     A
C209   C217    1.401   .     A
C210   C218    1.404   .     A
C210   C212    1.477   .     S
C211   C363    1.344   .     S
C211   N398    1.441   .     S
C212   O234    1.300   .     A
C212   O233    1.302   .     A
C213   C214    1.431   .     S
C214   O236    1.287   .     A
C214   O235    1.294   .     A
C215   O238    1.302   .     A
C215   C217    1.467   .     S
C215   O237    1.297   .     A
C216   H226    1.084   .     S
C218   C219    1.384   .     A
C218   F243    1.359   .     S
C219   C670    1.395   .     S
C220   N244    1.431   .     S
C220   C652    1.434   1_554 S
C220   C669    1.395   1_554 S
Cu221  O235    1.958   .     S
Cu221  N230    2.023   .     S
Cu221  Cu222   2.692   .     S
Cu221  O231    1.962   .     S
Cu221  O233    1.939   .     S
Cu221  O237    1.922   .     S
Cu222  N229    2.023   .     S
Cu222  O232    1.958   .     S
Cu222  O236    1.962   .     S
Cu222  O234    1.922   .     S
Cu222  O238    1.939   .     S
H223   C363    1.088   .     S
N229   H274    1.029   .     S
N229   N280    1.286   .     S
N240   N280    1.383   .     S
N240   H291    1.040   .     S
N240   H292    1.044   .     S
N244   H246    1.044   .     S
N244   H245    1.045   .     S
F247   C269    1.358   .     S
N248   H250    1.046   .     S
N248   H249    1.043   .     S
C251   C261    1.426   .     S
C251   O281    1.291   .     A
C251   O282    1.287   .     A
C252   C253    1.423   .     A
C252   C704    1.431   .     S
C252   C720    1.434   .     S
C253   C260    1.421   .     A
C253   C257    1.413   .     A
C254   C258    1.403   .     A
C254   C255    1.420   .     A
C254   C702    1.431   1_554 S
C255   C266    1.404   .     A
C255   C706    1.391   1_554 S
C256   C257    1.386   .     A
C256   H275    1.084   .     S
C256   C705    1.391   .     S
C257   H278    1.080   .     S
C258   H277    1.075   .     S
C258   C267    1.398   .     A
C259   F289    1.357   .     S
C259   C266    1.394   .     A
C259   C267    1.401   .     A
C260   C268    1.404   .     A
C260   C262    1.477   .     S
C261   C413    1.344   .     S
C261   N448    1.441   .     S
C262   O284    1.300   .     A
C262   O283    1.302   .     A
C263   C264    1.431   .     S
C264   O286    1.287   .     A
C264   O285    1.294   .     A
C265   O288    1.302   .     A
C265   C267    1.467   .     S
C265   O287    1.297   .     A
C266   H276    1.084   .     S
C268   C269    1.384   .     A
C268   F293    1.359   .     S
C269   C720    1.395   .     S
C270   N294    1.431   .     S
C270   C702    1.434   1_554 S
C270   C719    1.395   1_554 S
Cu271  O285    1.958   .     S
Cu271  N280    2.023   .     S
Cu271  Cu272   2.692   .     S
Cu271  O281    1.962   .     S
Cu271  O283    1.939   .     S
Cu271  O287    1.922   .     S
Cu272  N279    2.023   .     S
Cu272  O282    1.958   .     S
Cu272  O286    1.962   .     S
Cu272  O284    1.922   .     S
Cu272  O288    1.939   .     S
H273   C413    1.088   .     S
N279   H174    1.029   1_655 S
N279   N180    1.286   1_655 S
N290   N180    1.383   1_655 S
N290   H191    1.040   1_655 S
N290   H192    1.044   1_655 S
N294   H296    1.044   .     S
N294   H295    1.045   .     S
F297   C169    1.358   1_655 S
N298   H300    1.046   .     S
N298   H299    1.043   .     S
C301   C311    1.426   .     S
C301   O331    1.291   .     A
C301   O332    1.287   .     A
C302   C303    1.423   .     A
C302   C754    1.431   .     S
C302   C770    1.434   .     S
C303   C310    1.421   .     A
C303   C307    1.413   .     A
C304   C308    1.403   .     A
C304   C305    1.420   .     A
C304   C752    1.431   1_554 S
C305   C316    1.404   .     A
C305   C756    1.391   1_554 S
C306   C307    1.386   .     A
C306   H325    1.084   .     S
C306   C755    1.391   .     S
C307   H328    1.080   .     S
C308   H327    1.075   .     S
C308   C317    1.398   .     A
C309   F339    1.357   .     S
C309   C316    1.394   .     A
C309   C317    1.401   .     A
C310   C318    1.404   .     A
C310   C312    1.477   .     S
C311   C13     1.344   1_565 S
C311   N48     1.441   1_565 S
C312   O334    1.300   .     A
C312   O333    1.302   .     A
C313   C314    1.431   .     S
C314   O336    1.287   .     A
C314   O335    1.294   .     A
C315   O338    1.302   .     A
C315   C317    1.467   .     S
C315   O337    1.297   .     A
C316   H326    1.084   .     S
C318   C319    1.384   .     A
C318   F343    1.359   .     S
C319   C770    1.395   .     S
C319   F447    1.358   1_455 S
C320   N344    1.431   .     S
C320   C752    1.434   1_554 S
C320   C769    1.395   1_554 S
Cu321  O335    1.958   .     S
Cu321  N330    2.023   .     S
Cu321  Cu322   2.692   .     S
Cu321  O331    1.962   .     S
Cu321  O333    1.939   .     S
Cu321  O337    1.922   .     S
Cu322  N329    2.023   .     S
Cu322  O332    1.958   .     S
Cu322  O336    1.962   .     S
Cu322  O334    1.922   .     S
Cu322  O338    1.939   .     S
H323   C13     1.088   1_565 S
H324   N429    1.029   1_455 S
N329   H374    1.029   .     S
N329   N380    1.286   .     S
N330   N429    1.286   1_455 S
N330   N440    1.383   1_455 S
N340   N380    1.383   .     S
N340   H391    1.040   .     S
N340   H392    1.044   .     S
H341   N440    1.040   1_455 S
H342   N440    1.044   1_455 S
N344   H346    1.044   .     S
N344   H345    1.045   .     S
F347   C369    1.358   .     S
N348   H350    1.046   .     S
N348   H349    1.043   .     S
C351   C361    1.426   .     S
C351   O381    1.291   .     A
C351   O382    1.287   .     A
C352   C353    1.423   .     A
C352   C804    1.431   .     S
C352   C820    1.434   .     S
C353   C360    1.421   .     A
C353   C357    1.413   .     A
C354   C358    1.403   .     A
C354   C355    1.420   .     A
C354   C802    1.431   1_554 S
C355   C366    1.404   .     A
C355   C806    1.391   1_554 S
C356   C357    1.386   .     A
C356   H375    1.084   .     S
C356   C805    1.391   .     S
C357   H378    1.080   .     S
C358   H377    1.075   .     S
C358   C367    1.398   .     A
C359   F389    1.357   .     S
C359   C366    1.394   .     A
C359   C367    1.401   .     A
C360   C368    1.404   .     A
C360   C362    1.477   .     S
C361   C63     1.344   1_565 S
C361   N98     1.441   1_565 S
C362   O384    1.300   .     A
C362   O383    1.302   .     A
C363   C364    1.431   .     S
C364   O386    1.287   .     A
C364   O385    1.294   .     A
C365   O388    1.302   .     A
C365   C367    1.467   .     S
C365   O387    1.297   .     A
C366   H376    1.084   .     S
C368   C369    1.384   .     A
C368   F393    1.359   .     S
C369   C820    1.395   .     S
C370   N394    1.431   .     S
C370   C802    1.434   1_554 S
C370   C819    1.395   1_554 S
Cu371  O385    1.958   .     S
Cu371  N380    2.023   .     S
Cu371  Cu372   2.692   .     S
Cu371  O381    1.962   .     S
Cu371  O383    1.939   .     S
Cu371  O387    1.922   .     S
Cu372  N379    2.023   .     S
Cu372  O382    1.958   .     S
Cu372  O386    1.962   .     S
Cu372  O384    1.922   .     S
Cu372  O388    1.939   .     S
H373   C63     1.088   1_565 S
N379   H424    1.029   .     S
N379   N430    1.286   .     S
N390   N430    1.383   .     S
N390   H441    1.040   .     S
N390   H442    1.044   .     S
N394   H396    1.044   .     S
N394   H395    1.045   .     S
F397   C419    1.358   .     S
N398   H400    1.046   .     S
N398   H399    1.043   .     S
C401   C411    1.426   .     S
C401   O431    1.291   .     A
C401   O432    1.287   .     A
C402   C403    1.423   .     A
C402   C854    1.431   .     S
C402   C870    1.434   .     S
C403   C410    1.421   .     A
C403   C407    1.413   .     A
C404   C408    1.403   .     A
C404   C405    1.420   .     A
C404   C852    1.431   1_554 S
C405   C416    1.404   .     A
C405   C856    1.391   1_554 S
C406   C407    1.386   .     A
C406   H425    1.084   .     S
C406   C855    1.391   .     S
C407   H428    1.080   .     S
C408   H427    1.075   .     S
C408   C417    1.398   .     A
C409   F439    1.357   .     S
C409   C416    1.394   .     A
C409   C417    1.401   .     A
C410   C418    1.404   .     A
C410   C412    1.477   .     S
C411   C113    1.344   1_565 S
C411   N148    1.441   1_565 S
C412   O434    1.300   .     A
C412   O433    1.302   .     A
C413   C414    1.431   .     S
C414   O436    1.287   .     A
C414   O435    1.294   .     A
C415   O438    1.302   .     A
C415   C417    1.467   .     S
C415   O437    1.297   .     A
C416   H426    1.084   .     S
C418   C419    1.384   .     A
C418   F443    1.359   .     S
C419   C870    1.395   .     S
C420   N444    1.431   .     S
C420   C852    1.434   1_554 S
C420   C869    1.395   1_554 S
Cu421  O435    1.958   .     S
Cu421  N430    2.023   .     S
Cu421  Cu422   2.692   .     S
Cu421  O431    1.962   .     S
Cu421  O433    1.939   .     S
Cu421  O437    1.922   .     S
Cu422  N429    2.023   .     S
Cu422  O432    1.958   .     S
Cu422  O436    1.962   .     S
Cu422  O434    1.922   .     S
Cu422  O438    1.939   .     S
H423   C113    1.088   1_565 S
N429   H324    1.029   1_655 S
N429   N330    1.286   1_655 S
N440   N330    1.383   1_655 S
N440   H341    1.040   1_655 S
N440   H342    1.044   1_655 S
N444   H446    1.044   .     S
N444   H445    1.045   .     S
F447   C319    1.358   1_655 S
N448   H450    1.046   .     S
N448   H449    1.043   .     S
C451   C461    1.426   .     S
C451   O481    1.291   .     A
C451   O482    1.287   .     A
C452   C453    1.423   .     A
C452   C4      1.431   1_556 S
C452   C20     1.434   1_556 S
C453   C460    1.421   .     A
C453   C457    1.413   .     A
C454   C458    1.403   .     A
C454   C455    1.420   .     A
C455   C466    1.404   .     A
C456   C457    1.386   .     A
C456   H475    1.084   .     S
C456   C5      1.391   1_556 S
C457   H478    1.080   .     S
C458   H477    1.075   .     S
C458   C467    1.398   .     A
C459   F489    1.357   .     S
C459   C466    1.394   .     A
C459   C467    1.401   .     A
C460   C468    1.404   .     A
C460   C462    1.477   .     S
C461   C613    1.344   .     S
C461   N648    1.441   .     S
C462   O484    1.300   .     A
C462   O483    1.302   .     A
C463   C464    1.431   .     S
C463   C761    1.344   1_545 S
C463   H773    1.088   1_545 S
C464   O486    1.287   .     A
C464   O485    1.294   .     A
C465   O488    1.302   .     A
C465   C467    1.467   .     S
C465   O487    1.297   .     A
C466   H476    1.084   .     S
C468   C469    1.384   .     A
C468   F493    1.359   .     S
C469   C20     1.395   1_556 S
C469   F597    1.358   1_455 S
C470   N494    1.431   .     S
Cu471  O485    1.958   .     S
Cu471  N480    2.023   .     S
Cu471  Cu472   2.692   .     S
Cu471  O481    1.962   .     S
Cu471  O483    1.939   .     S
Cu471  O487    1.922   .     S
Cu472  N479    2.023   .     S
Cu472  O482    1.958   .     S
Cu472  O486    1.962   .     S
Cu472  O484    1.922   .     S
Cu472  O488    1.939   .     S
H473   C613    1.088   .     S
H474   N579    1.029   1_455 S
N479   H524    1.029   .     S
N479   N530    1.286   .     S
N480   N579    1.286   1_455 S
N480   N590    1.383   1_455 S
N490   N530    1.383   .     S
N490   H541    1.040   .     S
N490   H542    1.044   .     S
H491   N590    1.040   1_455 S
H492   N590    1.044   1_455 S
N494   H496    1.044   .     S
N494   H495    1.045   .     S
F497   C519    1.358   .     S
N498   H500    1.046   .     S
N498   H499    1.043   .     S
N498   C761    1.441   1_545 S
C501   C511    1.426   .     S
C501   O531    1.291   .     A
C501   O532    1.287   .     A
C502   C503    1.423   .     A
C502   C54     1.431   1_556 S
C502   C70     1.434   1_556 S
C503   C510    1.421   .     A
C503   C507    1.413   .     A
C504   C508    1.403   .     A
C504   C505    1.420   .     A
C505   C516    1.404   .     A
C506   C507    1.386   .     A
C506   H525    1.084   .     S
C506   C55     1.391   1_556 S
C507   H528    1.080   .     S
C508   H527    1.075   .     S
C508   C517    1.398   .     A
C509   F539    1.357   .     S
C509   C516    1.394   .     A
C509   C517    1.401   .     A
C510   C518    1.404   .     A
C510   C512    1.477   .     S
C511   C663    1.344   .     S
C511   N698    1.441   .     S
C512   O534    1.300   .     A
C512   O533    1.302   .     A
C513   C514    1.431   .     S
C513   C811    1.344   1_545 S
C513   H823    1.088   1_545 S
C514   O536    1.287   .     A
C514   O535    1.294   .     A
C515   O538    1.302   .     A
C515   C517    1.467   .     S
C515   O537    1.297   .     A
C516   H526    1.084   .     S
C518   C519    1.384   .     A
C518   F543    1.359   .     S
C519   C70     1.395   1_556 S
C520   N544    1.431   .     S
Cu521  O535    1.958   .     S
Cu521  N530    2.023   .     S
Cu521  Cu522   2.692   .     S
Cu521  O531    1.962   .     S
Cu521  O533    1.939   .     S
Cu521  O537    1.922   .     S
Cu522  N529    2.023   .     S
Cu522  O532    1.958   .     S
Cu522  O536    1.962   .     S
Cu522  O534    1.922   .     S
Cu522  O538    1.939   .     S
H523   C663    1.088   .     S
N529   H574    1.029   .     S
N529   N580    1.286   .     S
N540   N580    1.383   .     S
N540   H591    1.040   .     S
N540   H592    1.044   .     S
N544   H546    1.044   .     S
N544   H545    1.045   .     S
F547   C569    1.358   .     S
N548   H550    1.046   .     S
N548   H549    1.043   .     S
N548   C811    1.441   1_545 S
C551   C561    1.426   .     S
C551   O581    1.291   .     A
C551   O582    1.287   .     A
C552   C553    1.423   .     A
C552   C104    1.431   1_556 S
C552   C120    1.434   1_556 S
C553   C560    1.421   .     A
C553   C557    1.413   .     A
C554   C558    1.403   .     A
C554   C555    1.420   .     A
C555   C566    1.404   .     A
C556   C557    1.386   .     A
C556   H575    1.084   .     S
C556   C105    1.391   1_556 S
C557   H578    1.080   .     S
C558   H577    1.075   .     S
C558   C567    1.398   .     A
C559   F589    1.357   .     S
C559   C566    1.394   .     A
C559   C567    1.401   .     A
C560   C568    1.404   .     A
C560   C562    1.477   .     S
C561   C713    1.344   .     S
C561   N748    1.441   .     S
C562   O584    1.300   .     A
C562   O583    1.302   .     A
C563   C564    1.431   .     S
C563   C861    1.344   1_545 S
C563   H873    1.088   1_545 S
C564   O586    1.287   .     A
C564   O585    1.294   .     A
C565   O588    1.302   .     A
C565   C567    1.467   .     S
C565   O587    1.297   .     A
C566   H576    1.084   .     S
C568   C569    1.384   .     A
C568   F593    1.359   .     S
C569   C120    1.395   1_556 S
C570   N594    1.431   .     S
Cu571  O585    1.958   .     S
Cu571  N580    2.023   .     S
Cu571  Cu572   2.692   .     S
Cu571  O581    1.962   .     S
Cu571  O583    1.939   .     S
Cu571  O587    1.922   .     S
Cu572  N579    2.023   .     S
Cu572  O582    1.958   .     S
Cu572  O586    1.962   .     S
Cu572  O584    1.922   .     S
Cu572  O588    1.939   .     S
H573   C713    1.088   .     S
N579   H474    1.029   1_655 S
N579   N480    1.286   1_655 S
N590   N480    1.383   1_655 S
N590   H491    1.040   1_655 S
N590   H492    1.044   1_655 S
N594   H596    1.044   .     S
N594   H595    1.045   .     S
F597   C469    1.358   1_655 S
N598   H600    1.046   .     S
N598   H599    1.043   .     S
N598   C861    1.441   1_545 S
C601   C611    1.426   .     S
C601   O631    1.291   .     A
C601   O632    1.287   .     A
C602   C603    1.423   .     A
C602   C154    1.431   1_556 S
C602   C170    1.434   1_556 S
C603   C610    1.421   .     A
C603   C607    1.413   .     A
C604   C608    1.403   .     A
C604   C605    1.420   .     A
C605   C616    1.404   .     A
C606   C607    1.386   .     A
C606   H625    1.084   .     S
C606   C155    1.391   1_556 S
C607   H628    1.080   .     S
C608   H627    1.075   .     S
C608   C617    1.398   .     A
C609   F639    1.357   .     S
C609   C616    1.394   .     A
C609   C617    1.401   .     A
C610   C618    1.404   .     A
C610   C612    1.477   .     S
C611   C763    1.344   .     S
C611   N798    1.441   .     S
C612   O634    1.300   .     A
C612   O633    1.302   .     A
C613   C614    1.431   .     S
C614   O636    1.287   .     A
C614   O635    1.294   .     A
C615   O638    1.302   .     A
C615   C617    1.467   .     S
C615   O637    1.297   .     A
C616   H626    1.084   .     S
C618   C619    1.384   .     A
C618   F643    1.359   .     S
C619   C170    1.395   1_556 S
C619   F747    1.358   1_455 S
C620   N644    1.431   .     S
Cu621  O635    1.958   .     S
Cu621  N630    2.023   .     S
Cu621  Cu622   2.692   .     S
Cu621  O631    1.962   .     S
Cu621  O633    1.939   .     S
Cu621  O637    1.922   .     S
Cu622  N629    2.023   .     S
Cu622  O632    1.958   .     S
Cu622  O636    1.962   .     S
Cu622  O634    1.922   .     S
Cu622  O638    1.939   .     S
H623   C763    1.088   .     S
H624   N729    1.029   1_455 S
N629   H674    1.029   .     S
N629   N680    1.286   .     S
N630   N729    1.286   1_455 S
N630   N740    1.383   1_455 S
N640   N680    1.383   .     S
N640   H691    1.040   .     S
N640   H692    1.044   .     S
H641   N740    1.040   1_455 S
H642   N740    1.044   1_455 S
N644   H646    1.044   .     S
N644   H645    1.045   .     S
F647   C669    1.358   .     S
N648   H650    1.046   .     S
N648   H649    1.043   .     S
C651   C661    1.426   .     S
C651   O681    1.291   .     A
C651   O682    1.287   .     A
C652   C653    1.423   .     A
C652   C204    1.431   1_556 S
C652   C220    1.434   1_556 S
C653   C660    1.421   .     A
C653   C657    1.413   .     A
C654   C658    1.403   .     A
C654   C655    1.420   .     A
C655   C666    1.404   .     A
C656   C657    1.386   .     A
C656   H675    1.084   .     S
C656   C205    1.391   1_556 S
C657   H678    1.080   .     S
C658   H677    1.075   .     S
C658   C667    1.398   .     A
C659   F689    1.357   .     S
C659   C666    1.394   .     A
C659   C667    1.401   .     A
C660   C668    1.404   .     A
C660   C662    1.477   .     S
C661   C813    1.344   .     S
C661   N848    1.441   .     S
C662   O684    1.300   .     A
C662   O683    1.302   .     A
C663   C664    1.431   .     S
C664   O686    1.287   .     A
C664   O685    1.294   .     A
C665   O688    1.302   .     A
C665   C667    1.467   .     S
C665   O687    1.297   .     A
C666   H676    1.084   .     S
C668   C669    1.384   .     A
C668   F693    1.359   .     S
C669   C220    1.395   1_556 S
C670   N694    1.431   .     S
Cu671  O685    1.958   .     S
Cu671  N680    2.023   .     S
Cu671  Cu672   2.692   .     S
Cu671  O681    1.962   .     S
Cu671  O683    1.939   .     S
Cu671  O687    1.922   .     S
Cu672  N679    2.023   .     S
Cu672  O682    1.958   .     S
Cu672  O686    1.962   .     S
Cu672  O684    1.922   .     S
Cu672  O688    1.939   .     S
H673   C813    1.088   .     S
N679   H724    1.029   .     S
N679   N730    1.286   .     S
N690   N730    1.383   .     S
N690   H741    1.040   .     S
N690   H742    1.044   .     S
N694   H696    1.044   .     S
N694   H695    1.045   .     S
F697   C719    1.358   .     S
N698   H700    1.046   .     S
N698   H699    1.043   .     S
C701   C711    1.426   .     S
C701   O731    1.291   .     A
C701   O732    1.287   .     A
C702   C703    1.423   .     A
C702   C254    1.431   1_556 S
C702   C270    1.434   1_556 S
C703   C710    1.421   .     A
C703   C707    1.413   .     A
C704   C708    1.403   .     A
C704   C705    1.420   .     A
C705   C716    1.404   .     A
C706   C707    1.386   .     A
C706   H725    1.084   .     S
C706   C255    1.391   1_556 S
C707   H728    1.080   .     S
C708   H727    1.075   .     S
C708   C717    1.398   .     A
C709   F739    1.357   .     S
C709   C716    1.394   .     A
C709   C717    1.401   .     A
C710   C718    1.404   .     A
C710   C712    1.477   .     S
C711   C863    1.344   .     S
C711   N898    1.441   .     S
C712   O734    1.300   .     A
C712   O733    1.302   .     A
C713   C714    1.431   .     S
C714   O736    1.287   .     A
C714   O735    1.294   .     A
C715   O738    1.302   .     A
C715   C717    1.467   .     S
C715   O737    1.297   .     A
C716   H726    1.084   .     S
C718   C719    1.384   .     A
C718   F743    1.359   .     S
C719   C270    1.395   1_556 S
C720   N744    1.431   .     S
Cu721  O735    1.958   .     S
Cu721  N730    2.023   .     S
Cu721  Cu722   2.692   .     S
Cu721  O731    1.962   .     S
Cu721  O733    1.939   .     S
Cu721  O737    1.922   .     S
Cu722  N729    2.023   .     S
Cu722  O732    1.958   .     S
Cu722  O736    1.962   .     S
Cu722  O734    1.922   .     S
Cu722  O738    1.939   .     S
H723   C863    1.088   .     S
N729   H624    1.029   1_655 S
N729   N630    1.286   1_655 S
N740   N630    1.383   1_655 S
N740   H641    1.040   1_655 S
N740   H642    1.044   1_655 S
N744   H746    1.044   .     S
N744   H745    1.045   .     S
F747   C619    1.358   1_655 S
N748   H750    1.046   .     S
N748   H749    1.043   .     S
C751   C761    1.426   .     S
C751   O781    1.291   .     A
C751   O782    1.287   .     A
C752   C753    1.423   .     A
C752   C304    1.431   1_556 S
C752   C320    1.434   1_556 S
C753   C760    1.421   .     A
C753   C757    1.413   .     A
C754   C758    1.403   .     A
C754   C755    1.420   .     A
C755   C766    1.404   .     A
C756   C757    1.386   .     A
C756   H775    1.084   .     S
C756   C305    1.391   1_556 S
C757   H778    1.080   .     S
C758   H777    1.075   .     S
C758   C767    1.398   .     A
C759   F789    1.357   .     S
C759   C766    1.394   .     A
C759   C767    1.401   .     A
C760   C768    1.404   .     A
C760   C762    1.477   .     S
C761   C463    1.344   1_565 S
C761   N498    1.441   1_565 S
C762   O784    1.300   .     A
C762   O783    1.302   .     A
C763   C764    1.431   .     S
C764   O786    1.287   .     A
C764   O785    1.294   .     A
C765   O788    1.302   .     A
C765   C767    1.467   .     S
C765   O787    1.297   .     A
C766   H776    1.084   .     S
C768   C769    1.384   .     A
C768   F793    1.359   .     S
C769   C320    1.395   1_556 S
C769   F897    1.358   1_455 S
C770   N794    1.431   .     S
Cu771  O785    1.958   .     S
Cu771  N780    2.023   .     S
Cu771  Cu772   2.692   .     S
Cu771  O781    1.962   .     S
Cu771  O783    1.939   .     S
Cu771  O787    1.922   .     S
Cu772  N779    2.023   .     S
Cu772  O782    1.958   .     S
Cu772  O786    1.962   .     S
Cu772  O784    1.922   .     S
Cu772  O788    1.939   .     S
H773   C463    1.088   1_565 S
H774   N879    1.029   1_455 S
N779   H824    1.029   .     S
N779   N830    1.286   .     S
N780   N879    1.286   1_455 S
N780   N890    1.383   1_455 S
N790   N830    1.383   .     S
N790   H841    1.040   .     S
N790   H842    1.044   .     S
H791   N890    1.040   1_455 S
H792   N890    1.044   1_455 S
N794   H796    1.044   .     S
N794   H795    1.045   .     S
F797   C819    1.358   .     S
N798   H800    1.046   .     S
N798   H799    1.043   .     S
C801   C811    1.426   .     S
C801   O831    1.291   .     A
C801   O832    1.287   .     A
C802   C803    1.423   .     A
C802   C354    1.431   1_556 S
C802   C370    1.434   1_556 S
C803   C810    1.421   .     A
C803   C807    1.413   .     A
C804   C808    1.403   .     A
C804   C805    1.420   .     A
C805   C816    1.404   .     A
C806   C807    1.386   .     A
C806   H825    1.084   .     S
C806   C355    1.391   1_556 S
C807   H828    1.080   .     S
C808   H827    1.075   .     S
C808   C817    1.398   .     A
C809   F839    1.357   .     S
C809   C816    1.394   .     A
C809   C817    1.401   .     A
C810   C818    1.404   .     A
C810   C812    1.477   .     S
C811   C513    1.344   1_565 S
C811   N548    1.441   1_565 S
C812   O834    1.300   .     A
C812   O833    1.302   .     A
C813   C814    1.431   .     S
C814   O836    1.287   .     A
C814   O835    1.294   .     A
C815   O838    1.302   .     A
C815   C817    1.467   .     S
C815   O837    1.297   .     A
C816   H826    1.084   .     S
C818   C819    1.384   .     A
C818   F843    1.359   .     S
C819   C370    1.395   1_556 S
C820   N844    1.431   .     S
Cu821  O835    1.958   .     S
Cu821  N830    2.023   .     S
Cu821  Cu822   2.692   .     S
Cu821  O831    1.962   .     S
Cu821  O833    1.939   .     S
Cu821  O837    1.922   .     S
Cu822  N829    2.023   .     S
Cu822  O832    1.958   .     S
Cu822  O836    1.962   .     S
Cu822  O834    1.922   .     S
Cu822  O838    1.939   .     S
H823   C513    1.088   1_565 S
N829   H874    1.029   .     S
N829   N880    1.286   .     S
N840   N880    1.383   .     S
N840   H891    1.040   .     S
N840   H892    1.044   .     S
N844   H846    1.044   .     S
N844   H845    1.045   .     S
F847   C869    1.358   .     S
N848   H850    1.046   .     S
N848   H849    1.043   .     S
C851   C861    1.426   .     S
C851   O881    1.291   .     A
C851   O882    1.287   .     A
C852   C853    1.423   .     A
C852   C404    1.431   1_556 S
C852   C420    1.434   1_556 S
C853   C860    1.421   .     A
C853   C857    1.413   .     A
C854   C858    1.403   .     A
C854   C855    1.420   .     A
C855   C866    1.404   .     A
C856   C857    1.386   .     A
C856   H875    1.084   .     S
C856   C405    1.391   1_556 S
C857   H878    1.080   .     S
C858   H877    1.075   .     S
C858   C867    1.398   .     A
C859   F889    1.357   .     S
C859   C866    1.394   .     A
C859   C867    1.401   .     A
C860   C868    1.404   .     A
C860   C862    1.477   .     S
C861   C563    1.344   1_565 S
C861   N598    1.441   1_565 S
C862   O884    1.300   .     A
C862   O883    1.302   .     A
C863   C864    1.431   .     S
C864   O886    1.287   .     A
C864   O885    1.294   .     A
C865   O888    1.302   .     A
C865   C867    1.467   .     S
C865   O887    1.297   .     A
C866   H876    1.084   .     S
C868   C869    1.384   .     A
C868   F893    1.359   .     S
C869   C420    1.395   1_556 S
C870   N894    1.431   .     S
Cu871  O885    1.958   .     S
Cu871  N880    2.023   .     S
Cu871  Cu872   2.692   .     S
Cu871  O881    1.962   .     S
Cu871  O883    1.939   .     S
Cu871  O887    1.922   .     S
Cu872  N879    2.023   .     S
Cu872  O882    1.958   .     S
Cu872  O886    1.962   .     S
Cu872  O884    1.922   .     S
Cu872  O888    1.939   .     S
H873   C563    1.088   1_565 S
N879   H774    1.029   1_655 S
N879   N780    1.286   1_655 S
N890   N780    1.383   1_655 S
N890   H791    1.040   1_655 S
N890   H792    1.044   1_655 S
N894   H896    1.044   .     S
N894   H895    1.045   .     S
F897   C769    1.358   1_655 S
N898   H900    1.046   .     S
N898   H899    1.043   .     S
