data_str_m2_o1_o2_pcu_sym.41
_audit_creation_date              2020-01-03
_audit_creation_method            'Materials Studio'
_symmetry_space_group_name_H-M    'P1'
_symmetry_Int_Tables_number       1
_symmetry_cell_setting            triclinic
loop_
_symmetry_equiv_pos_as_xyz
  x,y,z
_cell_length_a                    32.4749
_cell_length_b                    28.5382
_cell_length_c                    30.2182
_cell_angle_alpha                 90.4054
_cell_angle_beta                  90.1504
_cell_angle_gamma                 90.0640
loop_
_atom_site_label
_atom_site_type_symbol
_atom_site_fract_x
_atom_site_fract_y
_atom_site_fract_z
_atom_site_U_iso_or_equiv
_atom_site_adp_type
_atom_site_occupancy
C1     C     0.08735   0.16665   0.24988   0.00000  Uiso   1.00
C2     C     0.31208   0.20923   0.24968   0.00000  Uiso   1.00
C3     C     0.31198   0.12406   0.24932   0.00000  Uiso   1.00
C4     C     0.02133   0.20922   0.24969   0.00000  Uiso   1.00
C5     C     0.13024   0.17317   0.04793   0.00000  Uiso   1.00
C6     C     0.18918   0.13203   0.45291   0.00000  Uiso   1.00
C7     C     0.14611   0.20123   0.45366   0.00000  Uiso   1.00
C8     C     0.20392   0.15903   0.04834   0.00000  Uiso   1.00
C9     C     0.12972   0.17298   0.09410   0.00000  Uiso   1.00
C10    C     0.19013   0.13251   0.40672   0.00000  Uiso   1.00
C11    C     0.14655   0.20246   0.40753   0.00000  Uiso   1.00
C12    C     0.24598   0.16668   0.24982   0.00000  Uiso   1.00
C13    C     0.20398   0.15860   0.09452   0.00000  Uiso   1.00
C14    C     0.16677   0.16572   0.11731   0.00000  Uiso   1.00
C15    C     0.16809   0.16747   0.38366   0.00000  Uiso   1.00
C16    C     0.16715   0.16595   0.02495   0.00000  Uiso   1.00
C17    C     0.16737   0.16628   0.47643   0.00000  Uiso   1.00
C18    C     0.29058   0.16666   0.24959   0.00000  Uiso   1.00
C19    C     0.04274   0.16663   0.24965   0.00000  Uiso   1.00
C20    C     0.07069   0.13887   0.12993   0.00000  Uiso   1.00
C21    C     0.25374   0.11438   0.36936   0.00000  Uiso   1.00
C22    C     0.14472   0.28288   0.38412   0.00000  Uiso   1.00
C23    C     0.16677   0.16647   0.16523   0.00000  Uiso   1.00
C24    C     0.25282   0.10535   0.12708   0.00000  Uiso   1.00
C25    C     0.16693   0.16688   0.33512   0.00000  Uiso   1.00
C26    C     0.13969   0.02459   0.22403   0.00000  Uiso   1.00
C27    C     0.19372   0.30875   0.27587   0.00000  Uiso   1.00
C28    C     0.19367   0.02503   0.27593   0.00000  Uiso   1.00
C29    C     0.13967   0.30830   0.22406   0.00000  Uiso   1.00
C30    C     0.02124   0.12404   0.24932   0.00000  Uiso   1.00
Cu31   Cu    0.16667   0.21355   0.25000   0.00000  Uiso   1.00
Cu32   Cu    0.16667   0.11978   0.25000   0.00000  Uiso   1.00
H33    H     0.11810   0.04313   0.20321   0.00000  Uiso   1.00
H34    H     0.29610   0.24253   0.24983   0.00000  Uiso   1.00
H35    H     0.29591   0.09077   0.24916   0.00000  Uiso   1.00
H36    H     0.03739   0.24251   0.24982   0.00000  Uiso   1.00
H37    H     0.07280   0.20425   0.10117   0.00000  Uiso   1.00
H38    H     0.06121   0.11848   0.10012   0.00000  Uiso   1.00
H39    H     0.04270   0.14836   0.14902   0.00000  Uiso   1.00
H40    H     0.09055   0.11678   0.15121   0.00000  Uiso   1.00
H41    H     0.21557   0.06637   0.39980   0.00000  Uiso   1.00
H42    H     0.27343   0.12284   0.39847   0.00000  Uiso   1.00
H43    H     0.25066   0.14597   0.34836   0.00000  Uiso   1.00
H44    H     0.21541   0.29022   0.29657   0.00000  Uiso   1.00
H45    H     0.26897   0.08653   0.34947   0.00000  Uiso   1.00
H46    H     0.09414   0.24114   0.39657   0.00000  Uiso   1.00
H47    H     0.14657   0.29842   0.41790   0.00000  Uiso   1.00
H48    H     0.12728   0.30710   0.36243   0.00000  Uiso   1.00
H49    H     0.17632   0.27897   0.37062   0.00000  Uiso   1.00
H50    H     0.26585   0.17155   0.10390   0.00000  Uiso   1.00
H51    H     0.25895   0.08612   0.09567   0.00000  Uiso   1.00
H52    H     0.22784   0.08737   0.14535   0.00000  Uiso   1.00
H53    H     0.28108   0.10470   0.14785   0.00000  Uiso   1.00
H54    H     0.21529   0.04391   0.29669   0.00000  Uiso   1.00
H55    H     0.11806   0.28940   0.20326   0.00000  Uiso   1.00
H56    H     0.10167   0.17824   0.02999   0.00000  Uiso   1.00
H57    H     0.20568   0.10488   0.47049   0.00000  Uiso   1.00
H58    H     0.12957   0.22817   0.47174   0.00000  Uiso   1.00
H59    H     0.23270   0.15447   0.03076   0.00000  Uiso   1.00
H60    H     0.03723   0.09075   0.24911   0.00000  Uiso   1.00
N61    N     0.16667   0.28402   0.25000   0.00000  Uiso   1.00
N62    N     0.16667   0.04931   0.25000   0.00000  Uiso   1.00
N63    N     0.09211   0.18108   0.11705   0.00000  Uiso   1.00
N64    N     0.21377   0.09810   0.38376   0.00000  Uiso   1.00
N65    N     0.12399   0.23799   0.38533   0.00000  Uiso   1.00
N66    N     0.24176   0.15340   0.11797   0.00000  Uiso   1.00
O67    O     0.10655   0.20625   0.24999   0.00000  Uiso   1.00
O68    O     0.22679   0.12709   0.25000   0.00000  Uiso   1.00
O69    O     0.22679   0.20625   0.25001   0.00000  Uiso   1.00
O70    O     0.10655   0.12709   0.24999   0.00000  Uiso   1.00
O71    O     0.16666   0.20626   0.18573   0.00000  Uiso   1.00
O72    O     0.16667   0.12707   0.31427   0.00000  Uiso   1.00
O73    O     0.16667   0.20626   0.31427   0.00000  Uiso   1.00
O74    O     0.16666   0.12707   0.18573   0.00000  Uiso   1.00
C75    C     0.42068   0.16665   0.24988   0.00000  Uiso   1.00
C76    C     0.64542   0.20923   0.24968   0.00000  Uiso   1.00
C77    C     0.64532   0.12406   0.24932   0.00000  Uiso   1.00
C78    C     0.35466   0.20922   0.24969   0.00000  Uiso   1.00
C79    C     0.46357   0.17317   0.04793   0.00000  Uiso   1.00
C80    C     0.52252   0.13203   0.45291   0.00000  Uiso   1.00
C81    C     0.47945   0.20123   0.45366   0.00000  Uiso   1.00
C82    C     0.53726   0.15903   0.04834   0.00000  Uiso   1.00
C83    C     0.46306   0.17298   0.09410   0.00000  Uiso   1.00
C84    C     0.52346   0.13251   0.40672   0.00000  Uiso   1.00
C85    C     0.47988   0.20246   0.40753   0.00000  Uiso   1.00
C86    C     0.57931   0.16668   0.24982   0.00000  Uiso   1.00
C87    C     0.53732   0.15860   0.09452   0.00000  Uiso   1.00
C88    C     0.50010   0.16572   0.11731   0.00000  Uiso   1.00
C89    C     0.50142   0.16747   0.38366   0.00000  Uiso   1.00
C90    C     0.50048   0.16595   0.02495   0.00000  Uiso   1.00
C91    C     0.50070   0.16628   0.47643   0.00000  Uiso   1.00
C92    C     0.62392   0.16666   0.24959   0.00000  Uiso   1.00
C93    C     0.37607   0.16663   0.24965   0.00000  Uiso   1.00
C94    C     0.40402   0.13887   0.12993   0.00000  Uiso   1.00
C95    C     0.58707   0.11438   0.36936   0.00000  Uiso   1.00
C96    C     0.47805   0.28288   0.38412   0.00000  Uiso   1.00
C97    C     0.50010   0.16647   0.16523   0.00000  Uiso   1.00
C98    C     0.58615   0.10535   0.12708   0.00000  Uiso   1.00
C99    C     0.50026   0.16688   0.33512   0.00000  Uiso   1.00
C100   C     0.47302   0.02459   0.22403   0.00000  Uiso   1.00
C101   C     0.52705   0.30875   0.27587   0.00000  Uiso   1.00
C102   C     0.52700   0.02503   0.27593   0.00000  Uiso   1.00
C103   C     0.47300   0.30830   0.22406   0.00000  Uiso   1.00
C104   C     0.35457   0.12404   0.24932   0.00000  Uiso   1.00
Cu105  Cu    0.50000   0.21355   0.25000   0.00000  Uiso   1.00
Cu106  Cu    0.50000   0.11978   0.25000   0.00000  Uiso   1.00
H107   H     0.45144   0.04313   0.20321   0.00000  Uiso   1.00
H108   H     0.62943   0.24253   0.24983   0.00000  Uiso   1.00
H109   H     0.62925   0.09077   0.24916   0.00000  Uiso   1.00
H110   H     0.37072   0.24251   0.24982   0.00000  Uiso   1.00
H111   H     0.40614   0.20425   0.10117   0.00000  Uiso   1.00
H112   H     0.39455   0.11848   0.10012   0.00000  Uiso   1.00
H113   H     0.37603   0.14836   0.14902   0.00000  Uiso   1.00
H114   H     0.42389   0.11678   0.15121   0.00000  Uiso   1.00
H115   H     0.54890   0.06637   0.39980   0.00000  Uiso   1.00
H116   H     0.60677   0.12284   0.39847   0.00000  Uiso   1.00
H117   H     0.58400   0.14597   0.34836   0.00000  Uiso   1.00
H118   H     0.54874   0.29022   0.29657   0.00000  Uiso   1.00
H119   H     0.60230   0.08653   0.34947   0.00000  Uiso   1.00
H120   H     0.42747   0.24114   0.39657   0.00000  Uiso   1.00
H121   H     0.47990   0.29842   0.41790   0.00000  Uiso   1.00
H122   H     0.46062   0.30710   0.36243   0.00000  Uiso   1.00
H123   H     0.50965   0.27897   0.37062   0.00000  Uiso   1.00
H124   H     0.59919   0.17155   0.10390   0.00000  Uiso   1.00
H125   H     0.59228   0.08612   0.09567   0.00000  Uiso   1.00
H126   H     0.56117   0.08737   0.14535   0.00000  Uiso   1.00
H127   H     0.61441   0.10470   0.14785   0.00000  Uiso   1.00
H128   H     0.54863   0.04391   0.29669   0.00000  Uiso   1.00
H129   H     0.45139   0.28940   0.20326   0.00000  Uiso   1.00
H130   H     0.43501   0.17824   0.02999   0.00000  Uiso   1.00
H131   H     0.53901   0.10488   0.47049   0.00000  Uiso   1.00
H132   H     0.46291   0.22817   0.47174   0.00000  Uiso   1.00
H133   H     0.56604   0.15447   0.03076   0.00000  Uiso   1.00
H134   H     0.37056   0.09075   0.24911   0.00000  Uiso   1.00
N135   N     0.50000   0.28402   0.25000   0.00000  Uiso   1.00
N136   N     0.50000   0.04931   0.25000   0.00000  Uiso   1.00
N137   N     0.42545   0.18108   0.11705   0.00000  Uiso   1.00
N138   N     0.54710   0.09810   0.38376   0.00000  Uiso   1.00
N139   N     0.45732   0.23799   0.38533   0.00000  Uiso   1.00
N140   N     0.57510   0.15340   0.11797   0.00000  Uiso   1.00
O141   O     0.43988   0.20625   0.24999   0.00000  Uiso   1.00
O142   O     0.56012   0.12709   0.25000   0.00000  Uiso   1.00
O143   O     0.56012   0.20625   0.25001   0.00000  Uiso   1.00
O144   O     0.43988   0.12709   0.24999   0.00000  Uiso   1.00
O145   O     0.50000   0.20626   0.18573   0.00000  Uiso   1.00
O146   O     0.50000   0.12707   0.31427   0.00000  Uiso   1.00
O147   O     0.50000   0.20626   0.31427   0.00000  Uiso   1.00
O148   O     0.50000   0.12707   0.18573   0.00000  Uiso   1.00
C149   C     0.75402   0.16665   0.24988   0.00000  Uiso   1.00
C150   C     0.97875   0.20923   0.24968   0.00000  Uiso   1.00
C151   C     0.97865   0.12406   0.24932   0.00000  Uiso   1.00
C152   C     0.68800   0.20922   0.24969   0.00000  Uiso   1.00
C153   C     0.79691   0.17317   0.04793   0.00000  Uiso   1.00
C154   C     0.85585   0.13203   0.45291   0.00000  Uiso   1.00
C155   C     0.81278   0.20123   0.45366   0.00000  Uiso   1.00
C156   C     0.87059   0.15903   0.04834   0.00000  Uiso   1.00
C157   C     0.79639   0.17298   0.09410   0.00000  Uiso   1.00
C158   C     0.85679   0.13251   0.40672   0.00000  Uiso   1.00
C159   C     0.81322   0.20246   0.40753   0.00000  Uiso   1.00
C160   C     0.91265   0.16668   0.24982   0.00000  Uiso   1.00
C161   C     0.87065   0.15860   0.09452   0.00000  Uiso   1.00
C162   C     0.83343   0.16572   0.11731   0.00000  Uiso   1.00
C163   C     0.83475   0.16747   0.38366   0.00000  Uiso   1.00
C164   C     0.83381   0.16595   0.02495   0.00000  Uiso   1.00
C165   C     0.83403   0.16628   0.47643   0.00000  Uiso   1.00
C166   C     0.95725   0.16666   0.24959   0.00000  Uiso   1.00
C167   C     0.70940   0.16663   0.24965   0.00000  Uiso   1.00
C168   C     0.73736   0.13887   0.12993   0.00000  Uiso   1.00
C169   C     0.92040   0.11438   0.36936   0.00000  Uiso   1.00
C170   C     0.81139   0.28288   0.38412   0.00000  Uiso   1.00
C171   C     0.83343   0.16647   0.16523   0.00000  Uiso   1.00
C172   C     0.91949   0.10535   0.12708   0.00000  Uiso   1.00
C173   C     0.83360   0.16688   0.33512   0.00000  Uiso   1.00
C174   C     0.80635   0.02459   0.22403   0.00000  Uiso   1.00
C175   C     0.86038   0.30875   0.27587   0.00000  Uiso   1.00
C176   C     0.86034   0.02503   0.27593   0.00000  Uiso   1.00
C177   C     0.80633   0.30830   0.22406   0.00000  Uiso   1.00
C178   C     0.68790   0.12404   0.24932   0.00000  Uiso   1.00
Cu179  Cu    0.83333   0.21355   0.25000   0.00000  Uiso   1.00
Cu180  Cu    0.83333   0.11978   0.25000   0.00000  Uiso   1.00
H181   H     0.78477   0.04313   0.20321   0.00000  Uiso   1.00
H182   H     0.96276   0.24253   0.24983   0.00000  Uiso   1.00
H183   H     0.96258   0.09077   0.24916   0.00000  Uiso   1.00
H184   H     0.70406   0.24251   0.24982   0.00000  Uiso   1.00
H185   H     0.73947   0.20425   0.10117   0.00000  Uiso   1.00
H186   H     0.72788   0.11848   0.10012   0.00000  Uiso   1.00
H187   H     0.70937   0.14836   0.14902   0.00000  Uiso   1.00
H188   H     0.75722   0.11678   0.15121   0.00000  Uiso   1.00
H189   H     0.88223   0.06637   0.39980   0.00000  Uiso   1.00
H190   H     0.94010   0.12284   0.39847   0.00000  Uiso   1.00
H191   H     0.91733   0.14597   0.34836   0.00000  Uiso   1.00
H192   H     0.88207   0.29022   0.29657   0.00000  Uiso   1.00
H193   H     0.93563   0.08653   0.34947   0.00000  Uiso   1.00
H194   H     0.76081   0.24114   0.39657   0.00000  Uiso   1.00
H195   H     0.81323   0.29842   0.41790   0.00000  Uiso   1.00
H196   H     0.79395   0.30710   0.36243   0.00000  Uiso   1.00
H197   H     0.84299   0.27897   0.37062   0.00000  Uiso   1.00
H198   H     0.93252   0.17155   0.10390   0.00000  Uiso   1.00
H199   H     0.92562   0.08612   0.09567   0.00000  Uiso   1.00
H200   H     0.89451   0.08737   0.14535   0.00000  Uiso   1.00
H201   H     0.94775   0.10470   0.14785   0.00000  Uiso   1.00
H202   H     0.88196   0.04391   0.29669   0.00000  Uiso   1.00
H203   H     0.78472   0.28940   0.20326   0.00000  Uiso   1.00
H204   H     0.76834   0.17824   0.02999   0.00000  Uiso   1.00
H205   H     0.87234   0.10488   0.47049   0.00000  Uiso   1.00
H206   H     0.79624   0.22817   0.47174   0.00000  Uiso   1.00
H207   H     0.89937   0.15447   0.03076   0.00000  Uiso   1.00
H208   H     0.70389   0.09075   0.24911   0.00000  Uiso   1.00
N209   N     0.83333   0.28402   0.25000   0.00000  Uiso   1.00
N210   N     0.83333   0.04931   0.25000   0.00000  Uiso   1.00
N211   N     0.75878   0.18108   0.11705   0.00000  Uiso   1.00
N212   N     0.88043   0.09810   0.38376   0.00000  Uiso   1.00
N213   N     0.79065   0.23799   0.38533   0.00000  Uiso   1.00
N214   N     0.90843   0.15340   0.11797   0.00000  Uiso   1.00
O215   O     0.77321   0.20625   0.24999   0.00000  Uiso   1.00
O216   O     0.89345   0.12709   0.25000   0.00000  Uiso   1.00
O217   O     0.89345   0.20625   0.25001   0.00000  Uiso   1.00
O218   O     0.77321   0.12709   0.24999   0.00000  Uiso   1.00
O219   O     0.83333   0.20626   0.18573   0.00000  Uiso   1.00
O220   O     0.83334   0.12707   0.31427   0.00000  Uiso   1.00
O221   O     0.83334   0.20626   0.31427   0.00000  Uiso   1.00
O222   O     0.83333   0.12707   0.18573   0.00000  Uiso   1.00
C223   C     0.08735   0.49998   0.24988   0.00000  Uiso   1.00
C224   C     0.31208   0.54257   0.24968   0.00000  Uiso   1.00
C225   C     0.31198   0.45739   0.24932   0.00000  Uiso   1.00
C226   C     0.02133   0.54255   0.24969   0.00000  Uiso   1.00
C227   C     0.13024   0.50650   0.04793   0.00000  Uiso   1.00
C228   C     0.18918   0.46536   0.45291   0.00000  Uiso   1.00
C229   C     0.14611   0.53457   0.45366   0.00000  Uiso   1.00
C230   C     0.20392   0.49237   0.04834   0.00000  Uiso   1.00
C231   C     0.12972   0.50631   0.09410   0.00000  Uiso   1.00
C232   C     0.19013   0.46584   0.40672   0.00000  Uiso   1.00
C233   C     0.14655   0.53579   0.40753   0.00000  Uiso   1.00
C234   C     0.24598   0.50001   0.24982   0.00000  Uiso   1.00
C235   C     0.20398   0.49193   0.09452   0.00000  Uiso   1.00
C236   C     0.16677   0.49906   0.11731   0.00000  Uiso   1.00
C237   C     0.16809   0.50081   0.38366   0.00000  Uiso   1.00
C238   C     0.16715   0.49929   0.02495   0.00000  Uiso   1.00
C239   C     0.16737   0.49961   0.47643   0.00000  Uiso   1.00
C240   C     0.29058   0.49999   0.24959   0.00000  Uiso   1.00
C241   C     0.04274   0.49996   0.24965   0.00000  Uiso   1.00
C242   C     0.07069   0.47220   0.12993   0.00000  Uiso   1.00
C243   C     0.25374   0.44771   0.36936   0.00000  Uiso   1.00
C244   C     0.14472   0.61622   0.38412   0.00000  Uiso   1.00
C245   C     0.16677   0.49980   0.16523   0.00000  Uiso   1.00
C246   C     0.25282   0.43868   0.12708   0.00000  Uiso   1.00
C247   C     0.16693   0.50022   0.33512   0.00000  Uiso   1.00
C248   C     0.13969   0.35792   0.22403   0.00000  Uiso   1.00
C249   C     0.19372   0.64208   0.27587   0.00000  Uiso   1.00
C250   C     0.19367   0.35837   0.27593   0.00000  Uiso   1.00
C251   C     0.13967   0.64163   0.22406   0.00000  Uiso   1.00
C252   C     0.02124   0.45737   0.24932   0.00000  Uiso   1.00
Cu253  Cu    0.16667   0.54689   0.25000   0.00000  Uiso   1.00
Cu254  Cu    0.16667   0.45311   0.25000   0.00000  Uiso   1.00
H255   H     0.11810   0.37646   0.20321   0.00000  Uiso   1.00
H256   H     0.29610   0.57586   0.24983   0.00000  Uiso   1.00
H257   H     0.29591   0.42410   0.24916   0.00000  Uiso   1.00
H258   H     0.03739   0.57584   0.24982   0.00000  Uiso   1.00
H259   H     0.07280   0.53759   0.10117   0.00000  Uiso   1.00
H260   H     0.06121   0.45181   0.10012   0.00000  Uiso   1.00
H261   H     0.04270   0.48169   0.14902   0.00000  Uiso   1.00
H262   H     0.09055   0.45011   0.15121   0.00000  Uiso   1.00
H263   H     0.21557   0.39970   0.39980   0.00000  Uiso   1.00
H264   H     0.27343   0.45618   0.39847   0.00000  Uiso   1.00
H265   H     0.25066   0.47930   0.34836   0.00000  Uiso   1.00
H266   H     0.21541   0.62356   0.29657   0.00000  Uiso   1.00
H267   H     0.26897   0.41986   0.34947   0.00000  Uiso   1.00
H268   H     0.09414   0.57447   0.39657   0.00000  Uiso   1.00
H269   H     0.14657   0.63175   0.41790   0.00000  Uiso   1.00
H270   H     0.12728   0.64043   0.36243   0.00000  Uiso   1.00
H271   H     0.17632   0.61230   0.37062   0.00000  Uiso   1.00
H272   H     0.26585   0.50488   0.10390   0.00000  Uiso   1.00
H273   H     0.25895   0.41945   0.09567   0.00000  Uiso   1.00
H274   H     0.22784   0.42070   0.14535   0.00000  Uiso   1.00
H275   H     0.28108   0.43803   0.14785   0.00000  Uiso   1.00
H276   H     0.21529   0.37724   0.29669   0.00000  Uiso   1.00
H277   H     0.11806   0.62273   0.20326   0.00000  Uiso   1.00
H278   H     0.10167   0.51158   0.02999   0.00000  Uiso   1.00
H279   H     0.20568   0.43822   0.47049   0.00000  Uiso   1.00
H280   H     0.12957   0.56151   0.47174   0.00000  Uiso   1.00
H281   H     0.23270   0.48781   0.03076   0.00000  Uiso   1.00
H282   H     0.03723   0.42408   0.24911   0.00000  Uiso   1.00
N283   N     0.16667   0.61736   0.25000   0.00000  Uiso   1.00
N284   N     0.16667   0.38264   0.25000   0.00000  Uiso   1.00
N285   N     0.09211   0.51441   0.11705   0.00000  Uiso   1.00
N286   N     0.21377   0.43143   0.38376   0.00000  Uiso   1.00
N287   N     0.12399   0.57133   0.38533   0.00000  Uiso   1.00
N288   N     0.24176   0.48673   0.11797   0.00000  Uiso   1.00
O289   O     0.10655   0.53958   0.24999   0.00000  Uiso   1.00
O290   O     0.22679   0.46042   0.25000   0.00000  Uiso   1.00
O291   O     0.22679   0.53958   0.25001   0.00000  Uiso   1.00
O292   O     0.10655   0.46042   0.24999   0.00000  Uiso   1.00
O293   O     0.16666   0.53959   0.18573   0.00000  Uiso   1.00
O294   O     0.16667   0.46041   0.31427   0.00000  Uiso   1.00
O295   O     0.16667   0.53959   0.31427   0.00000  Uiso   1.00
O296   O     0.16666   0.46041   0.18573   0.00000  Uiso   1.00
C297   C     0.42068   0.49998   0.24988   0.00000  Uiso   1.00
C298   C     0.64542   0.54257   0.24968   0.00000  Uiso   1.00
C299   C     0.64532   0.45739   0.24932   0.00000  Uiso   1.00
C300   C     0.35466   0.54255   0.24969   0.00000  Uiso   1.00
C301   C     0.46357   0.50650   0.04793   0.00000  Uiso   1.00
C302   C     0.52252   0.46536   0.45291   0.00000  Uiso   1.00
C303   C     0.47945   0.53457   0.45366   0.00000  Uiso   1.00
C304   C     0.53726   0.49237   0.04834   0.00000  Uiso   1.00
C305   C     0.46306   0.50631   0.09410   0.00000  Uiso   1.00
C306   C     0.52346   0.46584   0.40672   0.00000  Uiso   1.00
C307   C     0.47988   0.53579   0.40753   0.00000  Uiso   1.00
C308   C     0.57931   0.50001   0.24982   0.00000  Uiso   1.00
C309   C     0.53732   0.49193   0.09452   0.00000  Uiso   1.00
C310   C     0.50010   0.49906   0.11731   0.00000  Uiso   1.00
C311   C     0.50142   0.50081   0.38366   0.00000  Uiso   1.00
C312   C     0.50048   0.49929   0.02495   0.00000  Uiso   1.00
C313   C     0.50070   0.49961   0.47643   0.00000  Uiso   1.00
C314   C     0.62392   0.49999   0.24959   0.00000  Uiso   1.00
C315   C     0.37607   0.49996   0.24965   0.00000  Uiso   1.00
C316   C     0.40402   0.47220   0.12993   0.00000  Uiso   1.00
C317   C     0.58707   0.44771   0.36936   0.00000  Uiso   1.00
C318   C     0.47805   0.61622   0.38412   0.00000  Uiso   1.00
C319   C     0.50010   0.49980   0.16523   0.00000  Uiso   1.00
C320   C     0.58615   0.43868   0.12708   0.00000  Uiso   1.00
C321   C     0.50026   0.50022   0.33512   0.00000  Uiso   1.00
C322   C     0.47302   0.35792   0.22403   0.00000  Uiso   1.00
C323   C     0.52705   0.64208   0.27587   0.00000  Uiso   1.00
C324   C     0.52700   0.35837   0.27593   0.00000  Uiso   1.00
C325   C     0.47300   0.64163   0.22406   0.00000  Uiso   1.00
C326   C     0.35457   0.45737   0.24932   0.00000  Uiso   1.00
Cu327  Cu    0.50000   0.54689   0.25000   0.00000  Uiso   1.00
Cu328  Cu    0.50000   0.45311   0.25000   0.00000  Uiso   1.00
H329   H     0.45144   0.37646   0.20321   0.00000  Uiso   1.00
H330   H     0.62943   0.57586   0.24983   0.00000  Uiso   1.00
H331   H     0.62925   0.42410   0.24916   0.00000  Uiso   1.00
H332   H     0.37072   0.57584   0.24982   0.00000  Uiso   1.00
H333   H     0.40614   0.53759   0.10117   0.00000  Uiso   1.00
H334   H     0.39455   0.45181   0.10012   0.00000  Uiso   1.00
H335   H     0.37603   0.48169   0.14902   0.00000  Uiso   1.00
H336   H     0.42389   0.45011   0.15121   0.00000  Uiso   1.00
H337   H     0.54890   0.39970   0.39980   0.00000  Uiso   1.00
H338   H     0.60677   0.45618   0.39847   0.00000  Uiso   1.00
H339   H     0.58400   0.47930   0.34836   0.00000  Uiso   1.00
H340   H     0.54874   0.62356   0.29657   0.00000  Uiso   1.00
H341   H     0.60230   0.41986   0.34947   0.00000  Uiso   1.00
H342   H     0.42747   0.57447   0.39657   0.00000  Uiso   1.00
H343   H     0.47990   0.63175   0.41790   0.00000  Uiso   1.00
H344   H     0.46062   0.64043   0.36243   0.00000  Uiso   1.00
H345   H     0.50965   0.61230   0.37062   0.00000  Uiso   1.00
H346   H     0.59919   0.50488   0.10390   0.00000  Uiso   1.00
H347   H     0.59228   0.41945   0.09567   0.00000  Uiso   1.00
H348   H     0.56117   0.42070   0.14535   0.00000  Uiso   1.00
H349   H     0.61441   0.43803   0.14785   0.00000  Uiso   1.00
H350   H     0.54863   0.37724   0.29669   0.00000  Uiso   1.00
H351   H     0.45139   0.62273   0.20326   0.00000  Uiso   1.00
H352   H     0.43501   0.51158   0.02999   0.00000  Uiso   1.00
H353   H     0.53901   0.43822   0.47049   0.00000  Uiso   1.00
H354   H     0.46291   0.56151   0.47174   0.00000  Uiso   1.00
H355   H     0.56604   0.48781   0.03076   0.00000  Uiso   1.00
H356   H     0.37056   0.42408   0.24911   0.00000  Uiso   1.00
N357   N     0.50000   0.61736   0.25000   0.00000  Uiso   1.00
N358   N     0.50000   0.38264   0.25000   0.00000  Uiso   1.00
N359   N     0.42545   0.51441   0.11705   0.00000  Uiso   1.00
N360   N     0.54710   0.43143   0.38376   0.00000  Uiso   1.00
N361   N     0.45732   0.57133   0.38533   0.00000  Uiso   1.00
N362   N     0.57510   0.48673   0.11797   0.00000  Uiso   1.00
O363   O     0.43988   0.53958   0.24999   0.00000  Uiso   1.00
O364   O     0.56012   0.46042   0.25000   0.00000  Uiso   1.00
O365   O     0.56012   0.53958   0.25001   0.00000  Uiso   1.00
O366   O     0.43988   0.46042   0.24999   0.00000  Uiso   1.00
O367   O     0.50000   0.53959   0.18573   0.00000  Uiso   1.00
O368   O     0.50000   0.46041   0.31427   0.00000  Uiso   1.00
O369   O     0.50000   0.53959   0.31427   0.00000  Uiso   1.00
O370   O     0.50000   0.46041   0.18573   0.00000  Uiso   1.00
C371   C     0.75402   0.49998   0.24988   0.00000  Uiso   1.00
C372   C     0.97875   0.54257   0.24968   0.00000  Uiso   1.00
C373   C     0.97865   0.45739   0.24932   0.00000  Uiso   1.00
C374   C     0.68800   0.54255   0.24969   0.00000  Uiso   1.00
C375   C     0.79691   0.50650   0.04793   0.00000  Uiso   1.00
C376   C     0.85585   0.46536   0.45291   0.00000  Uiso   1.00
C377   C     0.81278   0.53457   0.45366   0.00000  Uiso   1.00
C378   C     0.87059   0.49237   0.04834   0.00000  Uiso   1.00
C379   C     0.79639   0.50631   0.09410   0.00000  Uiso   1.00
C380   C     0.85679   0.46584   0.40672   0.00000  Uiso   1.00
C381   C     0.81322   0.53579   0.40753   0.00000  Uiso   1.00
C382   C     0.91265   0.50001   0.24982   0.00000  Uiso   1.00
C383   C     0.87065   0.49193   0.09452   0.00000  Uiso   1.00
C384   C     0.83343   0.49906   0.11731   0.00000  Uiso   1.00
C385   C     0.83475   0.50081   0.38366   0.00000  Uiso   1.00
C386   C     0.83381   0.49929   0.02495   0.00000  Uiso   1.00
C387   C     0.83403   0.49961   0.47643   0.00000  Uiso   1.00
C388   C     0.95725   0.49999   0.24959   0.00000  Uiso   1.00
C389   C     0.70940   0.49996   0.24965   0.00000  Uiso   1.00
C390   C     0.73736   0.47220   0.12993   0.00000  Uiso   1.00
C391   C     0.92040   0.44771   0.36936   0.00000  Uiso   1.00
C392   C     0.81139   0.61622   0.38412   0.00000  Uiso   1.00
C393   C     0.83343   0.49980   0.16523   0.00000  Uiso   1.00
C394   C     0.91949   0.43868   0.12708   0.00000  Uiso   1.00
C395   C     0.83360   0.50022   0.33512   0.00000  Uiso   1.00
C396   C     0.80635   0.35792   0.22403   0.00000  Uiso   1.00
C397   C     0.86038   0.64208   0.27587   0.00000  Uiso   1.00
C398   C     0.86034   0.35837   0.27593   0.00000  Uiso   1.00
C399   C     0.80633   0.64163   0.22406   0.00000  Uiso   1.00
C400   C     0.68790   0.45737   0.24932   0.00000  Uiso   1.00
Cu401  Cu    0.83333   0.54689   0.25000   0.00000  Uiso   1.00
Cu402  Cu    0.83333   0.45311   0.25000   0.00000  Uiso   1.00
H403   H     0.78477   0.37646   0.20321   0.00000  Uiso   1.00
H404   H     0.96276   0.57586   0.24983   0.00000  Uiso   1.00
H405   H     0.96258   0.42410   0.24916   0.00000  Uiso   1.00
H406   H     0.70406   0.57584   0.24982   0.00000  Uiso   1.00
H407   H     0.73947   0.53759   0.10117   0.00000  Uiso   1.00
H408   H     0.72788   0.45181   0.10012   0.00000  Uiso   1.00
H409   H     0.70937   0.48169   0.14902   0.00000  Uiso   1.00
H410   H     0.75722   0.45011   0.15121   0.00000  Uiso   1.00
H411   H     0.88223   0.39970   0.39980   0.00000  Uiso   1.00
H412   H     0.94010   0.45618   0.39847   0.00000  Uiso   1.00
H413   H     0.91733   0.47930   0.34836   0.00000  Uiso   1.00
H414   H     0.88207   0.62356   0.29657   0.00000  Uiso   1.00
H415   H     0.93563   0.41986   0.34947   0.00000  Uiso   1.00
H416   H     0.76081   0.57447   0.39657   0.00000  Uiso   1.00
H417   H     0.81323   0.63175   0.41790   0.00000  Uiso   1.00
H418   H     0.79395   0.64043   0.36243   0.00000  Uiso   1.00
H419   H     0.84299   0.61230   0.37062   0.00000  Uiso   1.00
H420   H     0.93252   0.50488   0.10390   0.00000  Uiso   1.00
H421   H     0.92562   0.41945   0.09567   0.00000  Uiso   1.00
H422   H     0.89451   0.42070   0.14535   0.00000  Uiso   1.00
H423   H     0.94775   0.43803   0.14785   0.00000  Uiso   1.00
H424   H     0.88196   0.37724   0.29669   0.00000  Uiso   1.00
H425   H     0.78472   0.62273   0.20326   0.00000  Uiso   1.00
H426   H     0.76834   0.51158   0.02999   0.00000  Uiso   1.00
H427   H     0.87234   0.43822   0.47049   0.00000  Uiso   1.00
H428   H     0.79624   0.56151   0.47174   0.00000  Uiso   1.00
H429   H     0.89937   0.48781   0.03076   0.00000  Uiso   1.00
H430   H     0.70389   0.42408   0.24911   0.00000  Uiso   1.00
N431   N     0.83333   0.61736   0.25000   0.00000  Uiso   1.00
N432   N     0.83333   0.38264   0.25000   0.00000  Uiso   1.00
N433   N     0.75878   0.51441   0.11705   0.00000  Uiso   1.00
N434   N     0.88043   0.43143   0.38376   0.00000  Uiso   1.00
N435   N     0.79065   0.57133   0.38533   0.00000  Uiso   1.00
N436   N     0.90843   0.48673   0.11797   0.00000  Uiso   1.00
O437   O     0.77321   0.53958   0.24999   0.00000  Uiso   1.00
O438   O     0.89345   0.46042   0.25000   0.00000  Uiso   1.00
O439   O     0.89345   0.53958   0.25001   0.00000  Uiso   1.00
O440   O     0.77321   0.46042   0.24999   0.00000  Uiso   1.00
O441   O     0.83333   0.53959   0.18573   0.00000  Uiso   1.00
O442   O     0.83334   0.46041   0.31427   0.00000  Uiso   1.00
O443   O     0.83334   0.53959   0.31427   0.00000  Uiso   1.00
O444   O     0.83333   0.46041   0.18573   0.00000  Uiso   1.00
C445   C     0.08735   0.83331   0.24988   0.00000  Uiso   1.00
C446   C     0.31208   0.87590   0.24968   0.00000  Uiso   1.00
C447   C     0.31198   0.79072   0.24932   0.00000  Uiso   1.00
C448   C     0.02133   0.87588   0.24969   0.00000  Uiso   1.00
C449   C     0.13024   0.83983   0.04793   0.00000  Uiso   1.00
C450   C     0.18918   0.79870   0.45291   0.00000  Uiso   1.00
C451   C     0.14611   0.86790   0.45366   0.00000  Uiso   1.00
C452   C     0.20392   0.82570   0.04834   0.00000  Uiso   1.00
C453   C     0.12972   0.83964   0.09410   0.00000  Uiso   1.00
C454   C     0.19013   0.79917   0.40672   0.00000  Uiso   1.00
C455   C     0.14655   0.86912   0.40753   0.00000  Uiso   1.00
C456   C     0.24598   0.83334   0.24982   0.00000  Uiso   1.00
C457   C     0.20398   0.82527   0.09452   0.00000  Uiso   1.00
C458   C     0.16677   0.83239   0.11731   0.00000  Uiso   1.00
C459   C     0.16809   0.83414   0.38366   0.00000  Uiso   1.00
C460   C     0.16715   0.83262   0.02495   0.00000  Uiso   1.00
C461   C     0.16737   0.83295   0.47643   0.00000  Uiso   1.00
C462   C     0.29058   0.83333   0.24959   0.00000  Uiso   1.00
C463   C     0.04274   0.83329   0.24965   0.00000  Uiso   1.00
C464   C     0.07069   0.80554   0.12993   0.00000  Uiso   1.00
C465   C     0.25374   0.78104   0.36936   0.00000  Uiso   1.00
C466   C     0.14472   0.94955   0.38412   0.00000  Uiso   1.00
C467   C     0.16677   0.83313   0.16523   0.00000  Uiso   1.00
C468   C     0.25282   0.77201   0.12708   0.00000  Uiso   1.00
C469   C     0.16693   0.83355   0.33512   0.00000  Uiso   1.00
C470   C     0.13969   0.69126   0.22403   0.00000  Uiso   1.00
C471   C     0.19372   0.97542   0.27587   0.00000  Uiso   1.00
C472   C     0.19367   0.69170   0.27593   0.00000  Uiso   1.00
C473   C     0.13967   0.97496   0.22406   0.00000  Uiso   1.00
C474   C     0.02124   0.79071   0.24932   0.00000  Uiso   1.00
Cu475  Cu    0.16667   0.88022   0.25000   0.00000  Uiso   1.00
Cu476  Cu    0.16667   0.78645   0.25000   0.00000  Uiso   1.00
H477   H     0.11810   0.70979   0.20321   0.00000  Uiso   1.00
H478   H     0.29610   0.90920   0.24983   0.00000  Uiso   1.00
H479   H     0.29591   0.75744   0.24916   0.00000  Uiso   1.00
H480   H     0.03739   0.90918   0.24982   0.00000  Uiso   1.00
H481   H     0.07280   0.87092   0.10117   0.00000  Uiso   1.00
H482   H     0.06121   0.78514   0.10012   0.00000  Uiso   1.00
H483   H     0.04270   0.81503   0.14902   0.00000  Uiso   1.00
H484   H     0.09055   0.78344   0.15121   0.00000  Uiso   1.00
H485   H     0.21557   0.73303   0.39980   0.00000  Uiso   1.00
H486   H     0.27343   0.78951   0.39847   0.00000  Uiso   1.00
H487   H     0.25066   0.81263   0.34836   0.00000  Uiso   1.00
H488   H     0.21541   0.95689   0.29657   0.00000  Uiso   1.00
H489   H     0.26897   0.75320   0.34947   0.00000  Uiso   1.00
H490   H     0.09414   0.90781   0.39657   0.00000  Uiso   1.00
H491   H     0.14657   0.96508   0.41790   0.00000  Uiso   1.00
H492   H     0.12728   0.97376   0.36243   0.00000  Uiso   1.00
H493   H     0.17632   0.94563   0.37062   0.00000  Uiso   1.00
H494   H     0.26585   0.83821   0.10390   0.00000  Uiso   1.00
H495   H     0.25895   0.75279   0.09567   0.00000  Uiso   1.00
H496   H     0.22784   0.75403   0.14535   0.00000  Uiso   1.00
H497   H     0.28108   0.77136   0.14785   0.00000  Uiso   1.00
H498   H     0.21529   0.71058   0.29669   0.00000  Uiso   1.00
H499   H     0.11806   0.95607   0.20326   0.00000  Uiso   1.00
H500   H     0.10167   0.84491   0.02999   0.00000  Uiso   1.00
H501   H     0.20568   0.77155   0.47049   0.00000  Uiso   1.00
H502   H     0.12957   0.89484   0.47174   0.00000  Uiso   1.00
H503   H     0.23270   0.82114   0.03076   0.00000  Uiso   1.00
H504   H     0.03723   0.75742   0.24911   0.00000  Uiso   1.00
N505   N     0.16667   0.95069   0.25000   0.00000  Uiso   1.00
N506   N     0.16667   0.71598   0.25000   0.00000  Uiso   1.00
N507   N     0.09211   0.84774   0.11705   0.00000  Uiso   1.00
N508   N     0.21377   0.76477   0.38376   0.00000  Uiso   1.00
N509   N     0.12399   0.90466   0.38533   0.00000  Uiso   1.00
N510   N     0.24176   0.82007   0.11797   0.00000  Uiso   1.00
O511   O     0.10655   0.87291   0.24999   0.00000  Uiso   1.00
O512   O     0.22679   0.79375   0.25000   0.00000  Uiso   1.00
O513   O     0.22679   0.87291   0.25001   0.00000  Uiso   1.00
O514   O     0.10655   0.79375   0.24999   0.00000  Uiso   1.00
O515   O     0.16666   0.87293   0.18573   0.00000  Uiso   1.00
O516   O     0.16667   0.79374   0.31427   0.00000  Uiso   1.00
O517   O     0.16667   0.87293   0.31427   0.00000  Uiso   1.00
O518   O     0.16666   0.79374   0.18573   0.00000  Uiso   1.00
C519   C     0.42068   0.83331   0.24988   0.00000  Uiso   1.00
C520   C     0.64542   0.87590   0.24968   0.00000  Uiso   1.00
C521   C     0.64532   0.79072   0.24932   0.00000  Uiso   1.00
C522   C     0.35466   0.87588   0.24969   0.00000  Uiso   1.00
C523   C     0.46357   0.83983   0.04793   0.00000  Uiso   1.00
C524   C     0.52252   0.79870   0.45291   0.00000  Uiso   1.00
C525   C     0.47945   0.86790   0.45366   0.00000  Uiso   1.00
C526   C     0.53726   0.82570   0.04834   0.00000  Uiso   1.00
C527   C     0.46306   0.83964   0.09410   0.00000  Uiso   1.00
C528   C     0.52346   0.79917   0.40672   0.00000  Uiso   1.00
C529   C     0.47988   0.86912   0.40753   0.00000  Uiso   1.00
C530   C     0.57931   0.83334   0.24982   0.00000  Uiso   1.00
C531   C     0.53732   0.82527   0.09452   0.00000  Uiso   1.00
C532   C     0.50010   0.83239   0.11731   0.00000  Uiso   1.00
C533   C     0.50142   0.83414   0.38366   0.00000  Uiso   1.00
C534   C     0.50048   0.83262   0.02495   0.00000  Uiso   1.00
C535   C     0.50070   0.83295   0.47643   0.00000  Uiso   1.00
C536   C     0.62392   0.83333   0.24959   0.00000  Uiso   1.00
C537   C     0.37607   0.83329   0.24965   0.00000  Uiso   1.00
C538   C     0.40402   0.80554   0.12993   0.00000  Uiso   1.00
C539   C     0.58707   0.78104   0.36936   0.00000  Uiso   1.00
C540   C     0.47805   0.94955   0.38412   0.00000  Uiso   1.00
C541   C     0.50010   0.83313   0.16523   0.00000  Uiso   1.00
C542   C     0.58615   0.77201   0.12708   0.00000  Uiso   1.00
C543   C     0.50026   0.83355   0.33512   0.00000  Uiso   1.00
C544   C     0.47302   0.69126   0.22403   0.00000  Uiso   1.00
C545   C     0.52705   0.97542   0.27587   0.00000  Uiso   1.00
C546   C     0.52700   0.69170   0.27593   0.00000  Uiso   1.00
C547   C     0.47300   0.97496   0.22406   0.00000  Uiso   1.00
C548   C     0.35457   0.79071   0.24932   0.00000  Uiso   1.00
Cu549  Cu    0.50000   0.88022   0.25000   0.00000  Uiso   1.00
Cu550  Cu    0.50000   0.78645   0.25000   0.00000  Uiso   1.00
H551   H     0.45144   0.70979   0.20321   0.00000  Uiso   1.00
H552   H     0.62943   0.90920   0.24983   0.00000  Uiso   1.00
H553   H     0.62925   0.75744   0.24916   0.00000  Uiso   1.00
H554   H     0.37072   0.90918   0.24982   0.00000  Uiso   1.00
H555   H     0.40614   0.87092   0.10117   0.00000  Uiso   1.00
H556   H     0.39455   0.78514   0.10012   0.00000  Uiso   1.00
H557   H     0.37603   0.81503   0.14902   0.00000  Uiso   1.00
H558   H     0.42389   0.78344   0.15121   0.00000  Uiso   1.00
H559   H     0.54890   0.73303   0.39980   0.00000  Uiso   1.00
H560   H     0.60677   0.78951   0.39847   0.00000  Uiso   1.00
H561   H     0.58400   0.81263   0.34836   0.00000  Uiso   1.00
H562   H     0.54874   0.95689   0.29657   0.00000  Uiso   1.00
H563   H     0.60230   0.75320   0.34947   0.00000  Uiso   1.00
H564   H     0.42747   0.90781   0.39657   0.00000  Uiso   1.00
H565   H     0.47990   0.96508   0.41790   0.00000  Uiso   1.00
H566   H     0.46062   0.97376   0.36243   0.00000  Uiso   1.00
H567   H     0.50965   0.94563   0.37062   0.00000  Uiso   1.00
H568   H     0.59919   0.83821   0.10390   0.00000  Uiso   1.00
H569   H     0.59228   0.75279   0.09567   0.00000  Uiso   1.00
H570   H     0.56117   0.75403   0.14535   0.00000  Uiso   1.00
H571   H     0.61441   0.77136   0.14785   0.00000  Uiso   1.00
H572   H     0.54863   0.71058   0.29669   0.00000  Uiso   1.00
H573   H     0.45139   0.95607   0.20326   0.00000  Uiso   1.00
H574   H     0.43501   0.84491   0.02999   0.00000  Uiso   1.00
H575   H     0.53901   0.77155   0.47049   0.00000  Uiso   1.00
H576   H     0.46291   0.89484   0.47174   0.00000  Uiso   1.00
H577   H     0.56604   0.82114   0.03076   0.00000  Uiso   1.00
H578   H     0.37056   0.75742   0.24911   0.00000  Uiso   1.00
N579   N     0.50000   0.95069   0.25000   0.00000  Uiso   1.00
N580   N     0.50000   0.71598   0.25000   0.00000  Uiso   1.00
N581   N     0.42545   0.84774   0.11705   0.00000  Uiso   1.00
N582   N     0.54710   0.76477   0.38376   0.00000  Uiso   1.00
N583   N     0.45732   0.90466   0.38533   0.00000  Uiso   1.00
N584   N     0.57510   0.82007   0.11797   0.00000  Uiso   1.00
O585   O     0.43988   0.87291   0.24999   0.00000  Uiso   1.00
O586   O     0.56012   0.79375   0.25000   0.00000  Uiso   1.00
O587   O     0.56012   0.87291   0.25001   0.00000  Uiso   1.00
O588   O     0.43988   0.79375   0.24999   0.00000  Uiso   1.00
O589   O     0.50000   0.87293   0.18573   0.00000  Uiso   1.00
O590   O     0.50000   0.79374   0.31427   0.00000  Uiso   1.00
O591   O     0.50000   0.87293   0.31427   0.00000  Uiso   1.00
O592   O     0.50000   0.79374   0.18573   0.00000  Uiso   1.00
C593   C     0.75402   0.83331   0.24988   0.00000  Uiso   1.00
C594   C     0.97875   0.87590   0.24968   0.00000  Uiso   1.00
C595   C     0.97865   0.79072   0.24932   0.00000  Uiso   1.00
C596   C     0.68800   0.87588   0.24969   0.00000  Uiso   1.00
C597   C     0.79691   0.83983   0.04793   0.00000  Uiso   1.00
C598   C     0.85585   0.79870   0.45291   0.00000  Uiso   1.00
C599   C     0.81278   0.86790   0.45366   0.00000  Uiso   1.00
C600   C     0.87059   0.82570   0.04834   0.00000  Uiso   1.00
C601   C     0.79639   0.83964   0.09410   0.00000  Uiso   1.00
C602   C     0.85679   0.79917   0.40672   0.00000  Uiso   1.00
C603   C     0.81322   0.86912   0.40753   0.00000  Uiso   1.00
C604   C     0.91265   0.83334   0.24982   0.00000  Uiso   1.00
C605   C     0.87065   0.82527   0.09452   0.00000  Uiso   1.00
C606   C     0.83343   0.83239   0.11731   0.00000  Uiso   1.00
C607   C     0.83475   0.83414   0.38366   0.00000  Uiso   1.00
C608   C     0.83381   0.83262   0.02495   0.00000  Uiso   1.00
C609   C     0.83403   0.83295   0.47643   0.00000  Uiso   1.00
C610   C     0.95725   0.83333   0.24959   0.00000  Uiso   1.00
C611   C     0.70940   0.83329   0.24965   0.00000  Uiso   1.00
C612   C     0.73736   0.80554   0.12993   0.00000  Uiso   1.00
C613   C     0.92040   0.78104   0.36936   0.00000  Uiso   1.00
C614   C     0.81139   0.94955   0.38412   0.00000  Uiso   1.00
C615   C     0.83343   0.83313   0.16523   0.00000  Uiso   1.00
C616   C     0.91949   0.77201   0.12708   0.00000  Uiso   1.00
C617   C     0.83360   0.83355   0.33512   0.00000  Uiso   1.00
C618   C     0.80635   0.69126   0.22403   0.00000  Uiso   1.00
C619   C     0.86038   0.97542   0.27587   0.00000  Uiso   1.00
C620   C     0.86034   0.69170   0.27593   0.00000  Uiso   1.00
C621   C     0.80633   0.97496   0.22406   0.00000  Uiso   1.00
C622   C     0.68790   0.79071   0.24932   0.00000  Uiso   1.00
Cu623  Cu    0.83333   0.88022   0.25000   0.00000  Uiso   1.00
Cu624  Cu    0.83333   0.78645   0.25000   0.00000  Uiso   1.00
H625   H     0.78477   0.70979   0.20321   0.00000  Uiso   1.00
H626   H     0.96276   0.90920   0.24983   0.00000  Uiso   1.00
H627   H     0.96258   0.75744   0.24916   0.00000  Uiso   1.00
H628   H     0.70406   0.90918   0.24982   0.00000  Uiso   1.00
H629   H     0.73947   0.87092   0.10117   0.00000  Uiso   1.00
H630   H     0.72788   0.78514   0.10012   0.00000  Uiso   1.00
H631   H     0.70937   0.81503   0.14902   0.00000  Uiso   1.00
H632   H     0.75722   0.78344   0.15121   0.00000  Uiso   1.00
H633   H     0.88223   0.73303   0.39980   0.00000  Uiso   1.00
H634   H     0.94010   0.78951   0.39847   0.00000  Uiso   1.00
H635   H     0.91733   0.81263   0.34836   0.00000  Uiso   1.00
H636   H     0.88207   0.95689   0.29657   0.00000  Uiso   1.00
H637   H     0.93563   0.75320   0.34947   0.00000  Uiso   1.00
H638   H     0.76081   0.90781   0.39657   0.00000  Uiso   1.00
H639   H     0.81323   0.96508   0.41790   0.00000  Uiso   1.00
H640   H     0.79395   0.97376   0.36243   0.00000  Uiso   1.00
H641   H     0.84299   0.94563   0.37062   0.00000  Uiso   1.00
H642   H     0.93252   0.83821   0.10390   0.00000  Uiso   1.00
H643   H     0.92562   0.75279   0.09567   0.00000  Uiso   1.00
H644   H     0.89451   0.75403   0.14535   0.00000  Uiso   1.00
H645   H     0.94775   0.77136   0.14785   0.00000  Uiso   1.00
H646   H     0.88196   0.71058   0.29669   0.00000  Uiso   1.00
H647   H     0.78472   0.95607   0.20326   0.00000  Uiso   1.00
H648   H     0.76834   0.84491   0.02999   0.00000  Uiso   1.00
H649   H     0.87234   0.77155   0.47049   0.00000  Uiso   1.00
H650   H     0.79624   0.89484   0.47174   0.00000  Uiso   1.00
H651   H     0.89937   0.82114   0.03076   0.00000  Uiso   1.00
H652   H     0.70389   0.75742   0.24911   0.00000  Uiso   1.00
N653   N     0.83333   0.95069   0.25000   0.00000  Uiso   1.00
N654   N     0.83333   0.71598   0.25000   0.00000  Uiso   1.00
N655   N     0.75878   0.84774   0.11705   0.00000  Uiso   1.00
N656   N     0.88043   0.76477   0.38376   0.00000  Uiso   1.00
N657   N     0.79065   0.90466   0.38533   0.00000  Uiso   1.00
N658   N     0.90843   0.82007   0.11797   0.00000  Uiso   1.00
O659   O     0.77321   0.87291   0.24999   0.00000  Uiso   1.00
O660   O     0.89345   0.79375   0.25000   0.00000  Uiso   1.00
O661   O     0.89345   0.87291   0.25001   0.00000  Uiso   1.00
O662   O     0.77321   0.79375   0.24999   0.00000  Uiso   1.00
O663   O     0.83333   0.87293   0.18573   0.00000  Uiso   1.00
O664   O     0.83334   0.79374   0.31427   0.00000  Uiso   1.00
O665   O     0.83334   0.87293   0.31427   0.00000  Uiso   1.00
O666   O     0.83333   0.79374   0.18573   0.00000  Uiso   1.00
C667   C     0.08735   0.16665   0.74988   0.00000  Uiso   1.00
C668   C     0.31208   0.20923   0.74968   0.00000  Uiso   1.00
C669   C     0.31198   0.12406   0.74932   0.00000  Uiso   1.00
C670   C     0.02133   0.20922   0.74969   0.00000  Uiso   1.00
C671   C     0.13024   0.17317   0.54793   0.00000  Uiso   1.00
C672   C     0.18918   0.13203   0.95291   0.00000  Uiso   1.00
C673   C     0.14611   0.20123   0.95366   0.00000  Uiso   1.00
C674   C     0.20392   0.15903   0.54834   0.00000  Uiso   1.00
C675   C     0.12972   0.17298   0.59410   0.00000  Uiso   1.00
C676   C     0.19013   0.13251   0.90672   0.00000  Uiso   1.00
C677   C     0.14655   0.20246   0.90753   0.00000  Uiso   1.00
C678   C     0.24598   0.16668   0.74982   0.00000  Uiso   1.00
C679   C     0.20398   0.15860   0.59452   0.00000  Uiso   1.00
C680   C     0.16677   0.16572   0.61731   0.00000  Uiso   1.00
C681   C     0.16809   0.16747   0.88366   0.00000  Uiso   1.00
C682   C     0.16715   0.16595   0.52495   0.00000  Uiso   1.00
C683   C     0.16737   0.16628   0.97643   0.00000  Uiso   1.00
C684   C     0.29058   0.16666   0.74959   0.00000  Uiso   1.00
C685   C     0.04274   0.16663   0.74965   0.00000  Uiso   1.00
C686   C     0.07069   0.13887   0.62993   0.00000  Uiso   1.00
C687   C     0.25374   0.11438   0.86936   0.00000  Uiso   1.00
C688   C     0.14472   0.28288   0.88412   0.00000  Uiso   1.00
C689   C     0.16677   0.16647   0.66523   0.00000  Uiso   1.00
C690   C     0.25282   0.10535   0.62708   0.00000  Uiso   1.00
C691   C     0.16693   0.16688   0.83512   0.00000  Uiso   1.00
C692   C     0.13969   0.02459   0.72403   0.00000  Uiso   1.00
C693   C     0.19372   0.30875   0.77587   0.00000  Uiso   1.00
C694   C     0.19367   0.02503   0.77593   0.00000  Uiso   1.00
C695   C     0.13967   0.30830   0.72406   0.00000  Uiso   1.00
C696   C     0.02124   0.12404   0.74932   0.00000  Uiso   1.00
Cu697  Cu    0.16667   0.21355   0.75000   0.00000  Uiso   1.00
Cu698  Cu    0.16667   0.11978   0.75000   0.00000  Uiso   1.00
H699   H     0.11810   0.04313   0.70321   0.00000  Uiso   1.00
H700   H     0.29610   0.24253   0.74983   0.00000  Uiso   1.00
H701   H     0.29591   0.09077   0.74916   0.00000  Uiso   1.00
H702   H     0.03739   0.24251   0.74982   0.00000  Uiso   1.00
H703   H     0.07280   0.20425   0.60117   0.00000  Uiso   1.00
H704   H     0.06121   0.11848   0.60012   0.00000  Uiso   1.00
H705   H     0.04270   0.14836   0.64902   0.00000  Uiso   1.00
H706   H     0.09055   0.11678   0.65121   0.00000  Uiso   1.00
H707   H     0.21557   0.06637   0.89980   0.00000  Uiso   1.00
H708   H     0.27343   0.12284   0.89847   0.00000  Uiso   1.00
H709   H     0.25066   0.14597   0.84836   0.00000  Uiso   1.00
H710   H     0.21541   0.29022   0.79657   0.00000  Uiso   1.00
H711   H     0.26897   0.08653   0.84947   0.00000  Uiso   1.00
H712   H     0.09414   0.24114   0.89657   0.00000  Uiso   1.00
H713   H     0.14657   0.29842   0.91790   0.00000  Uiso   1.00
H714   H     0.12728   0.30710   0.86243   0.00000  Uiso   1.00
H715   H     0.17632   0.27897   0.87062   0.00000  Uiso   1.00
H716   H     0.26585   0.17155   0.60390   0.00000  Uiso   1.00
H717   H     0.25895   0.08612   0.59567   0.00000  Uiso   1.00
H718   H     0.22784   0.08737   0.64535   0.00000  Uiso   1.00
H719   H     0.28108   0.10470   0.64785   0.00000  Uiso   1.00
H720   H     0.21529   0.04391   0.79669   0.00000  Uiso   1.00
H721   H     0.11806   0.28940   0.70326   0.00000  Uiso   1.00
H722   H     0.10167   0.17824   0.52999   0.00000  Uiso   1.00
H723   H     0.20568   0.10488   0.97049   0.00000  Uiso   1.00
H724   H     0.12957   0.22817   0.97174   0.00000  Uiso   1.00
H725   H     0.23270   0.15447   0.53076   0.00000  Uiso   1.00
H726   H     0.03723   0.09075   0.74911   0.00000  Uiso   1.00
N727   N     0.16667   0.28402   0.75000   0.00000  Uiso   1.00
N728   N     0.16667   0.04931   0.75000   0.00000  Uiso   1.00
N729   N     0.09211   0.18108   0.61705   0.00000  Uiso   1.00
N730   N     0.21377   0.09810   0.88376   0.00000  Uiso   1.00
N731   N     0.12399   0.23799   0.88533   0.00000  Uiso   1.00
N732   N     0.24176   0.15340   0.61797   0.00000  Uiso   1.00
O733   O     0.10655   0.20625   0.74999   0.00000  Uiso   1.00
O734   O     0.22679   0.12709   0.75000   0.00000  Uiso   1.00
O735   O     0.22679   0.20625   0.75001   0.00000  Uiso   1.00
O736   O     0.10655   0.12709   0.74999   0.00000  Uiso   1.00
O737   O     0.16666   0.20626   0.68573   0.00000  Uiso   1.00
O738   O     0.16667   0.12707   0.81427   0.00000  Uiso   1.00
O739   O     0.16667   0.20626   0.81427   0.00000  Uiso   1.00
O740   O     0.16666   0.12707   0.68573   0.00000  Uiso   1.00
C741   C     0.42068   0.16665   0.74988   0.00000  Uiso   1.00
C742   C     0.64542   0.20923   0.74968   0.00000  Uiso   1.00
C743   C     0.64532   0.12406   0.74932   0.00000  Uiso   1.00
C744   C     0.35466   0.20922   0.74969   0.00000  Uiso   1.00
C745   C     0.46357   0.17317   0.54793   0.00000  Uiso   1.00
C746   C     0.52252   0.13203   0.95291   0.00000  Uiso   1.00
C747   C     0.47945   0.20123   0.95366   0.00000  Uiso   1.00
C748   C     0.53726   0.15903   0.54834   0.00000  Uiso   1.00
C749   C     0.46306   0.17298   0.59410   0.00000  Uiso   1.00
C750   C     0.52346   0.13251   0.90672   0.00000  Uiso   1.00
C751   C     0.47988   0.20246   0.90753   0.00000  Uiso   1.00
C752   C     0.57931   0.16668   0.74982   0.00000  Uiso   1.00
C753   C     0.53732   0.15860   0.59452   0.00000  Uiso   1.00
C754   C     0.50010   0.16572   0.61731   0.00000  Uiso   1.00
C755   C     0.50142   0.16747   0.88366   0.00000  Uiso   1.00
C756   C     0.50048   0.16595   0.52495   0.00000  Uiso   1.00
C757   C     0.50070   0.16628   0.97643   0.00000  Uiso   1.00
C758   C     0.62392   0.16666   0.74959   0.00000  Uiso   1.00
C759   C     0.37607   0.16663   0.74965   0.00000  Uiso   1.00
C760   C     0.40402   0.13887   0.62993   0.00000  Uiso   1.00
C761   C     0.58707   0.11438   0.86936   0.00000  Uiso   1.00
C762   C     0.47805   0.28288   0.88412   0.00000  Uiso   1.00
C763   C     0.50010   0.16647   0.66523   0.00000  Uiso   1.00
C764   C     0.58615   0.10535   0.62708   0.00000  Uiso   1.00
C765   C     0.50026   0.16688   0.83512   0.00000  Uiso   1.00
C766   C     0.47302   0.02459   0.72403   0.00000  Uiso   1.00
C767   C     0.52705   0.30875   0.77587   0.00000  Uiso   1.00
C768   C     0.52700   0.02503   0.77593   0.00000  Uiso   1.00
C769   C     0.47300   0.30830   0.72406   0.00000  Uiso   1.00
C770   C     0.35457   0.12404   0.74932   0.00000  Uiso   1.00
Cu771  Cu    0.50000   0.21355   0.75000   0.00000  Uiso   1.00
Cu772  Cu    0.50000   0.11978   0.75000   0.00000  Uiso   1.00
H773   H     0.45144   0.04313   0.70321   0.00000  Uiso   1.00
H774   H     0.62943   0.24253   0.74983   0.00000  Uiso   1.00
H775   H     0.62925   0.09077   0.74916   0.00000  Uiso   1.00
H776   H     0.37072   0.24251   0.74982   0.00000  Uiso   1.00
H777   H     0.40614   0.20425   0.60117   0.00000  Uiso   1.00
H778   H     0.39455   0.11848   0.60012   0.00000  Uiso   1.00
H779   H     0.37603   0.14836   0.64902   0.00000  Uiso   1.00
H780   H     0.42389   0.11678   0.65121   0.00000  Uiso   1.00
H781   H     0.54890   0.06637   0.89980   0.00000  Uiso   1.00
H782   H     0.60677   0.12284   0.89847   0.00000  Uiso   1.00
H783   H     0.58400   0.14597   0.84836   0.00000  Uiso   1.00
H784   H     0.54874   0.29022   0.79657   0.00000  Uiso   1.00
H785   H     0.60230   0.08653   0.84947   0.00000  Uiso   1.00
H786   H     0.42747   0.24114   0.89657   0.00000  Uiso   1.00
H787   H     0.47990   0.29842   0.91790   0.00000  Uiso   1.00
H788   H     0.46062   0.30710   0.86243   0.00000  Uiso   1.00
H789   H     0.50965   0.27897   0.87062   0.00000  Uiso   1.00
H790   H     0.59919   0.17155   0.60390   0.00000  Uiso   1.00
H791   H     0.59228   0.08612   0.59567   0.00000  Uiso   1.00
H792   H     0.56117   0.08737   0.64535   0.00000  Uiso   1.00
H793   H     0.61441   0.10470   0.64785   0.00000  Uiso   1.00
H794   H     0.54863   0.04391   0.79669   0.00000  Uiso   1.00
H795   H     0.45139   0.28940   0.70326   0.00000  Uiso   1.00
H796   H     0.43501   0.17824   0.52999   0.00000  Uiso   1.00
H797   H     0.53901   0.10488   0.97049   0.00000  Uiso   1.00
H798   H     0.46291   0.22817   0.97174   0.00000  Uiso   1.00
H799   H     0.56604   0.15447   0.53076   0.00000  Uiso   1.00
H800   H     0.37056   0.09075   0.74911   0.00000  Uiso   1.00
N801   N     0.50000   0.28402   0.75000   0.00000  Uiso   1.00
N802   N     0.50000   0.04931   0.75000   0.00000  Uiso   1.00
N803   N     0.42545   0.18108   0.61705   0.00000  Uiso   1.00
N804   N     0.54710   0.09810   0.88376   0.00000  Uiso   1.00
N805   N     0.45732   0.23799   0.88533   0.00000  Uiso   1.00
N806   N     0.57510   0.15340   0.61797   0.00000  Uiso   1.00
O807   O     0.43988   0.20625   0.74999   0.00000  Uiso   1.00
O808   O     0.56012   0.12709   0.75000   0.00000  Uiso   1.00
O809   O     0.56012   0.20625   0.75001   0.00000  Uiso   1.00
O810   O     0.43988   0.12709   0.74999   0.00000  Uiso   1.00
O811   O     0.50000   0.20626   0.68573   0.00000  Uiso   1.00
O812   O     0.50000   0.12707   0.81427   0.00000  Uiso   1.00
O813   O     0.50000   0.20626   0.81427   0.00000  Uiso   1.00
O814   O     0.50000   0.12707   0.68573   0.00000  Uiso   1.00
C815   C     0.75402   0.16665   0.74988   0.00000  Uiso   1.00
C816   C     0.97875   0.20923   0.74968   0.00000  Uiso   1.00
C817   C     0.97865   0.12406   0.74932   0.00000  Uiso   1.00
C818   C     0.68800   0.20922   0.74969   0.00000  Uiso   1.00
C819   C     0.79691   0.17317   0.54793   0.00000  Uiso   1.00
C820   C     0.85585   0.13203   0.95291   0.00000  Uiso   1.00
C821   C     0.81278   0.20123   0.95366   0.00000  Uiso   1.00
C822   C     0.87059   0.15903   0.54834   0.00000  Uiso   1.00
C823   C     0.79639   0.17298   0.59410   0.00000  Uiso   1.00
C824   C     0.85679   0.13251   0.90672   0.00000  Uiso   1.00
C825   C     0.81322   0.20246   0.90753   0.00000  Uiso   1.00
C826   C     0.91265   0.16668   0.74982   0.00000  Uiso   1.00
C827   C     0.87065   0.15860   0.59452   0.00000  Uiso   1.00
C828   C     0.83343   0.16572   0.61731   0.00000  Uiso   1.00
C829   C     0.83475   0.16747   0.88366   0.00000  Uiso   1.00
C830   C     0.83381   0.16595   0.52495   0.00000  Uiso   1.00
C831   C     0.83403   0.16628   0.97643   0.00000  Uiso   1.00
C832   C     0.95725   0.16666   0.74959   0.00000  Uiso   1.00
C833   C     0.70940   0.16663   0.74965   0.00000  Uiso   1.00
C834   C     0.73736   0.13887   0.62993   0.00000  Uiso   1.00
C835   C     0.92040   0.11438   0.86936   0.00000  Uiso   1.00
C836   C     0.81139   0.28288   0.88412   0.00000  Uiso   1.00
C837   C     0.83343   0.16647   0.66523   0.00000  Uiso   1.00
C838   C     0.91949   0.10535   0.62708   0.00000  Uiso   1.00
C839   C     0.83360   0.16688   0.83512   0.00000  Uiso   1.00
C840   C     0.80635   0.02459   0.72403   0.00000  Uiso   1.00
C841   C     0.86038   0.30875   0.77587   0.00000  Uiso   1.00
C842   C     0.86034   0.02503   0.77593   0.00000  Uiso   1.00
C843   C     0.80633   0.30830   0.72406   0.00000  Uiso   1.00
C844   C     0.68790   0.12404   0.74932   0.00000  Uiso   1.00
Cu845  Cu    0.83333   0.21355   0.75000   0.00000  Uiso   1.00
Cu846  Cu    0.83333   0.11978   0.75000   0.00000  Uiso   1.00
H847   H     0.78477   0.04313   0.70321   0.00000  Uiso   1.00
H848   H     0.96276   0.24253   0.74983   0.00000  Uiso   1.00
H849   H     0.96258   0.09077   0.74916   0.00000  Uiso   1.00
H850   H     0.70406   0.24251   0.74982   0.00000  Uiso   1.00
H851   H     0.73947   0.20425   0.60117   0.00000  Uiso   1.00
H852   H     0.72788   0.11848   0.60012   0.00000  Uiso   1.00
H853   H     0.70937   0.14836   0.64902   0.00000  Uiso   1.00
H854   H     0.75722   0.11678   0.65121   0.00000  Uiso   1.00
H855   H     0.88223   0.06637   0.89980   0.00000  Uiso   1.00
H856   H     0.94010   0.12284   0.89847   0.00000  Uiso   1.00
H857   H     0.91733   0.14597   0.84836   0.00000  Uiso   1.00
H858   H     0.88207   0.29022   0.79657   0.00000  Uiso   1.00
H859   H     0.93563   0.08653   0.84947   0.00000  Uiso   1.00
H860   H     0.76081   0.24114   0.89657   0.00000  Uiso   1.00
H861   H     0.81323   0.29842   0.91790   0.00000  Uiso   1.00
H862   H     0.79395   0.30710   0.86243   0.00000  Uiso   1.00
H863   H     0.84299   0.27897   0.87062   0.00000  Uiso   1.00
H864   H     0.93252   0.17155   0.60390   0.00000  Uiso   1.00
H865   H     0.92562   0.08612   0.59567   0.00000  Uiso   1.00
H866   H     0.89451   0.08737   0.64535   0.00000  Uiso   1.00
H867   H     0.94775   0.10470   0.64785   0.00000  Uiso   1.00
H868   H     0.88196   0.04391   0.79669   0.00000  Uiso   1.00
H869   H     0.78472   0.28940   0.70326   0.00000  Uiso   1.00
H870   H     0.76834   0.17824   0.52999   0.00000  Uiso   1.00
H871   H     0.87234   0.10488   0.97049   0.00000  Uiso   1.00
H872   H     0.79624   0.22817   0.97174   0.00000  Uiso   1.00
H873   H     0.89937   0.15447   0.53076   0.00000  Uiso   1.00
H874   H     0.70389   0.09075   0.74911   0.00000  Uiso   1.00
N875   N     0.83333   0.28402   0.75000   0.00000  Uiso   1.00
N876   N     0.83333   0.04931   0.75000   0.00000  Uiso   1.00
N877   N     0.75878   0.18108   0.61705   0.00000  Uiso   1.00
N878   N     0.88043   0.09810   0.88376   0.00000  Uiso   1.00
N879   N     0.79065   0.23799   0.88533   0.00000  Uiso   1.00
N880   N     0.90843   0.15340   0.61797   0.00000  Uiso   1.00
O881   O     0.77321   0.20625   0.74999   0.00000  Uiso   1.00
O882   O     0.89345   0.12709   0.75000   0.00000  Uiso   1.00
O883   O     0.89345   0.20625   0.75001   0.00000  Uiso   1.00
O884   O     0.77321   0.12709   0.74999   0.00000  Uiso   1.00
O885   O     0.83333   0.20626   0.68573   0.00000  Uiso   1.00
O886   O     0.83334   0.12707   0.81427   0.00000  Uiso   1.00
O887   O     0.83334   0.20626   0.81427   0.00000  Uiso   1.00
O888   O     0.83333   0.12707   0.68573   0.00000  Uiso   1.00
C889   C     0.08735   0.49998   0.74988   0.00000  Uiso   1.00
C890   C     0.31208   0.54257   0.74968   0.00000  Uiso   1.00
C891   C     0.31198   0.45739   0.74932   0.00000  Uiso   1.00
C892   C     0.02133   0.54255   0.74969   0.00000  Uiso   1.00
C893   C     0.13024   0.50650   0.54793   0.00000  Uiso   1.00
C894   C     0.18918   0.46536   0.95291   0.00000  Uiso   1.00
C895   C     0.14611   0.53457   0.95366   0.00000  Uiso   1.00
C896   C     0.20392   0.49237   0.54834   0.00000  Uiso   1.00
C897   C     0.12972   0.50631   0.59410   0.00000  Uiso   1.00
C898   C     0.19013   0.46584   0.90672   0.00000  Uiso   1.00
C899   C     0.14655   0.53579   0.90753   0.00000  Uiso   1.00
C900   C     0.24598   0.50001   0.74982   0.00000  Uiso   1.00
C901   C     0.20398   0.49193   0.59452   0.00000  Uiso   1.00
C902   C     0.16677   0.49906   0.61731   0.00000  Uiso   1.00
C903   C     0.16809   0.50081   0.88366   0.00000  Uiso   1.00
C904   C     0.16715   0.49929   0.52495   0.00000  Uiso   1.00
C905   C     0.16737   0.49961   0.97643   0.00000  Uiso   1.00
C906   C     0.29058   0.49999   0.74959   0.00000  Uiso   1.00
C907   C     0.04274   0.49996   0.74965   0.00000  Uiso   1.00
C908   C     0.07069   0.47220   0.62993   0.00000  Uiso   1.00
C909   C     0.25374   0.44771   0.86936   0.00000  Uiso   1.00
C910   C     0.14472   0.61622   0.88412   0.00000  Uiso   1.00
C911   C     0.16677   0.49980   0.66523   0.00000  Uiso   1.00
C912   C     0.25282   0.43868   0.62708   0.00000  Uiso   1.00
C913   C     0.16693   0.50022   0.83512   0.00000  Uiso   1.00
C914   C     0.13969   0.35792   0.72403   0.00000  Uiso   1.00
C915   C     0.19372   0.64208   0.77587   0.00000  Uiso   1.00
C916   C     0.19367   0.35837   0.77593   0.00000  Uiso   1.00
C917   C     0.13967   0.64163   0.72406   0.00000  Uiso   1.00
C918   C     0.02124   0.45737   0.74932   0.00000  Uiso   1.00
Cu919  Cu    0.16667   0.54689   0.75000   0.00000  Uiso   1.00
Cu920  Cu    0.16667   0.45311   0.75000   0.00000  Uiso   1.00
H921   H     0.11810   0.37646   0.70321   0.00000  Uiso   1.00
H922   H     0.29610   0.57586   0.74983   0.00000  Uiso   1.00
H923   H     0.29591   0.42410   0.74916   0.00000  Uiso   1.00
H924   H     0.03739   0.57584   0.74982   0.00000  Uiso   1.00
H925   H     0.07280   0.53759   0.60117   0.00000  Uiso   1.00
H926   H     0.06121   0.45181   0.60012   0.00000  Uiso   1.00
H927   H     0.04270   0.48169   0.64902   0.00000  Uiso   1.00
H928   H     0.09055   0.45011   0.65121   0.00000  Uiso   1.00
H929   H     0.21557   0.39970   0.89980   0.00000  Uiso   1.00
H930   H     0.27343   0.45618   0.89847   0.00000  Uiso   1.00
H931   H     0.25066   0.47930   0.84836   0.00000  Uiso   1.00
H932   H     0.21541   0.62356   0.79657   0.00000  Uiso   1.00
H933   H     0.26897   0.41986   0.84947   0.00000  Uiso   1.00
H934   H     0.09414   0.57447   0.89657   0.00000  Uiso   1.00
H935   H     0.14657   0.63175   0.91790   0.00000  Uiso   1.00
H936   H     0.12728   0.64043   0.86243   0.00000  Uiso   1.00
H937   H     0.17632   0.61230   0.87062   0.00000  Uiso   1.00
H938   H     0.26585   0.50488   0.60390   0.00000  Uiso   1.00
H939   H     0.25895   0.41945   0.59567   0.00000  Uiso   1.00
H940   H     0.22784   0.42070   0.64535   0.00000  Uiso   1.00
H941   H     0.28108   0.43803   0.64785   0.00000  Uiso   1.00
H942   H     0.21529   0.37724   0.79669   0.00000  Uiso   1.00
H943   H     0.11806   0.62273   0.70326   0.00000  Uiso   1.00
H944   H     0.10167   0.51158   0.52999   0.00000  Uiso   1.00
H945   H     0.20568   0.43822   0.97049   0.00000  Uiso   1.00
H946   H     0.12957   0.56151   0.97174   0.00000  Uiso   1.00
H947   H     0.23270   0.48781   0.53076   0.00000  Uiso   1.00
H948   H     0.03723   0.42408   0.74911   0.00000  Uiso   1.00
N949   N     0.16667   0.61736   0.75000   0.00000  Uiso   1.00
N950   N     0.16667   0.38264   0.75000   0.00000  Uiso   1.00
N951   N     0.09211   0.51441   0.61705   0.00000  Uiso   1.00
N952   N     0.21377   0.43143   0.88376   0.00000  Uiso   1.00
N953   N     0.12399   0.57133   0.88533   0.00000  Uiso   1.00
N954   N     0.24176   0.48673   0.61797   0.00000  Uiso   1.00
O955   O     0.10655   0.53958   0.74999   0.00000  Uiso   1.00
O956   O     0.22679   0.46042   0.75000   0.00000  Uiso   1.00
O957   O     0.22679   0.53958   0.75001   0.00000  Uiso   1.00
O958   O     0.10655   0.46042   0.74999   0.00000  Uiso   1.00
O959   O     0.16666   0.53959   0.68573   0.00000  Uiso   1.00
O960   O     0.16667   0.46041   0.81427   0.00000  Uiso   1.00
O961   O     0.16667   0.53959   0.81427   0.00000  Uiso   1.00
O962   O     0.16666   0.46041   0.68573   0.00000  Uiso   1.00
C963   C     0.42068   0.49998   0.74988   0.00000  Uiso   1.00
C964   C     0.64542   0.54257   0.74968   0.00000  Uiso   1.00
C965   C     0.64532   0.45739   0.74932   0.00000  Uiso   1.00
C966   C     0.35466   0.54255   0.74969   0.00000  Uiso   1.00
C967   C     0.46357   0.50650   0.54793   0.00000  Uiso   1.00
C968   C     0.52252   0.46536   0.95291   0.00000  Uiso   1.00
C969   C     0.47945   0.53457   0.95366   0.00000  Uiso   1.00
C970   C     0.53726   0.49237   0.54834   0.00000  Uiso   1.00
C971   C     0.46306   0.50631   0.59410   0.00000  Uiso   1.00
C972   C     0.52346   0.46584   0.90672   0.00000  Uiso   1.00
C973   C     0.47988   0.53579   0.90753   0.00000  Uiso   1.00
C974   C     0.57931   0.50001   0.74982   0.00000  Uiso   1.00
C975   C     0.53732   0.49193   0.59452   0.00000  Uiso   1.00
C976   C     0.50010   0.49906   0.61731   0.00000  Uiso   1.00
C977   C     0.50142   0.50081   0.88366   0.00000  Uiso   1.00
C978   C     0.50048   0.49929   0.52495   0.00000  Uiso   1.00
C979   C     0.50070   0.49961   0.97643   0.00000  Uiso   1.00
C980   C     0.62392   0.49999   0.74959   0.00000  Uiso   1.00
C981   C     0.37607   0.49996   0.74965   0.00000  Uiso   1.00
C982   C     0.40402   0.47220   0.62993   0.00000  Uiso   1.00
C983   C     0.58707   0.44771   0.86936   0.00000  Uiso   1.00
C984   C     0.47805   0.61622   0.88412   0.00000  Uiso   1.00
C985   C     0.50010   0.49980   0.66523   0.00000  Uiso   1.00
C986   C     0.58615   0.43868   0.62708   0.00000  Uiso   1.00
C987   C     0.50026   0.50022   0.83512   0.00000  Uiso   1.00
C988   C     0.47302   0.35792   0.72403   0.00000  Uiso   1.00
C989   C     0.52705   0.64208   0.77587   0.00000  Uiso   1.00
C990   C     0.52700   0.35837   0.77593   0.00000  Uiso   1.00
C991   C     0.47300   0.64163   0.72406   0.00000  Uiso   1.00
C992   C     0.35457   0.45737   0.74932   0.00000  Uiso   1.00
Cu993  Cu    0.50000   0.54689   0.75000   0.00000  Uiso   1.00
Cu994  Cu    0.50000   0.45311   0.75000   0.00000  Uiso   1.00
H995   H     0.45144   0.37646   0.70321   0.00000  Uiso   1.00
H996   H     0.62943   0.57586   0.74983   0.00000  Uiso   1.00
H997   H     0.62925   0.42410   0.74916   0.00000  Uiso   1.00
H998   H     0.37072   0.57584   0.74982   0.00000  Uiso   1.00
H999   H     0.40614   0.53759   0.60117   0.00000  Uiso   1.00
H1000  H     0.39455   0.45181   0.60012   0.00000  Uiso   1.00
H1001  H     0.37603   0.48169   0.64902   0.00000  Uiso   1.00
H1002  H     0.42389   0.45011   0.65121   0.00000  Uiso   1.00
H1003  H     0.54890   0.39970   0.89980   0.00000  Uiso   1.00
H1004  H     0.60677   0.45618   0.89847   0.00000  Uiso   1.00
H1005  H     0.58400   0.47930   0.84836   0.00000  Uiso   1.00
H1006  H     0.54874   0.62356   0.79657   0.00000  Uiso   1.00
H1007  H     0.60230   0.41986   0.84947   0.00000  Uiso   1.00
H1008  H     0.42747   0.57447   0.89657   0.00000  Uiso   1.00
H1009  H     0.47990   0.63175   0.91790   0.00000  Uiso   1.00
H1010  H     0.46062   0.64043   0.86243   0.00000  Uiso   1.00
H1011  H     0.50965   0.61230   0.87062   0.00000  Uiso   1.00
H1012  H     0.59919   0.50488   0.60390   0.00000  Uiso   1.00
H1013  H     0.59228   0.41945   0.59567   0.00000  Uiso   1.00
H1014  H     0.56117   0.42070   0.64535   0.00000  Uiso   1.00
H1015  H     0.61441   0.43803   0.64785   0.00000  Uiso   1.00
H1016  H     0.54863   0.37724   0.79669   0.00000  Uiso   1.00
H1017  H     0.45139   0.62273   0.70326   0.00000  Uiso   1.00
H1018  H     0.43501   0.51158   0.52999   0.00000  Uiso   1.00
H1019  H     0.53901   0.43822   0.97049   0.00000  Uiso   1.00
H1020  H     0.46291   0.56151   0.97174   0.00000  Uiso   1.00
H1021  H     0.56604   0.48781   0.53076   0.00000  Uiso   1.00
H1022  H     0.37056   0.42408   0.74911   0.00000  Uiso   1.00
N1023  N     0.50000   0.61736   0.75000   0.00000  Uiso   1.00
N1024  N     0.50000   0.38264   0.75000   0.00000  Uiso   1.00
N1025  N     0.42545   0.51441   0.61705   0.00000  Uiso   1.00
N1026  N     0.54710   0.43143   0.88376   0.00000  Uiso   1.00
N1027  N     0.45732   0.57133   0.88533   0.00000  Uiso   1.00
N1028  N     0.57510   0.48673   0.61797   0.00000  Uiso   1.00
O1029  O     0.43988   0.53958   0.74999   0.00000  Uiso   1.00
O1030  O     0.56012   0.46042   0.75000   0.00000  Uiso   1.00
O1031  O     0.56012   0.53958   0.75001   0.00000  Uiso   1.00
O1032  O     0.43988   0.46042   0.74999   0.00000  Uiso   1.00
O1033  O     0.50000   0.53959   0.68573   0.00000  Uiso   1.00
O1034  O     0.50000   0.46041   0.81427   0.00000  Uiso   1.00
O1035  O     0.50000   0.53959   0.81427   0.00000  Uiso   1.00
O1036  O     0.50000   0.46041   0.68573   0.00000  Uiso   1.00
C1037  C     0.75402   0.49998   0.74988   0.00000  Uiso   1.00
C1038  C     0.97875   0.54257   0.74968   0.00000  Uiso   1.00
C1039  C     0.97865   0.45739   0.74932   0.00000  Uiso   1.00
C1040  C     0.68800   0.54255   0.74969   0.00000  Uiso   1.00
C1041  C     0.79691   0.50650   0.54793   0.00000  Uiso   1.00
C1042  C     0.85585   0.46536   0.95291   0.00000  Uiso   1.00
C1043  C     0.81278   0.53457   0.95366   0.00000  Uiso   1.00
C1044  C     0.87059   0.49237   0.54834   0.00000  Uiso   1.00
C1045  C     0.79639   0.50631   0.59410   0.00000  Uiso   1.00
C1046  C     0.85679   0.46584   0.90672   0.00000  Uiso   1.00
C1047  C     0.81322   0.53579   0.90753   0.00000  Uiso   1.00
C1048  C     0.91265   0.50001   0.74982   0.00000  Uiso   1.00
C1049  C     0.87065   0.49193   0.59452   0.00000  Uiso   1.00
C1050  C     0.83343   0.49906   0.61731   0.00000  Uiso   1.00
C1051  C     0.83475   0.50081   0.88366   0.00000  Uiso   1.00
C1052  C     0.83381   0.49929   0.52495   0.00000  Uiso   1.00
C1053  C     0.83403   0.49961   0.97643   0.00000  Uiso   1.00
C1054  C     0.95725   0.49999   0.74959   0.00000  Uiso   1.00
C1055  C     0.70940   0.49996   0.74965   0.00000  Uiso   1.00
C1056  C     0.73736   0.47220   0.62993   0.00000  Uiso   1.00
C1057  C     0.92040   0.44771   0.86936   0.00000  Uiso   1.00
C1058  C     0.81139   0.61622   0.88412   0.00000  Uiso   1.00
C1059  C     0.83343   0.49980   0.66523   0.00000  Uiso   1.00
C1060  C     0.91949   0.43868   0.62708   0.00000  Uiso   1.00
C1061  C     0.83360   0.50022   0.83512   0.00000  Uiso   1.00
C1062  C     0.80635   0.35792   0.72403   0.00000  Uiso   1.00
C1063  C     0.86038   0.64208   0.77587   0.00000  Uiso   1.00
C1064  C     0.86034   0.35837   0.77593   0.00000  Uiso   1.00
C1065  C     0.80633   0.64163   0.72406   0.00000  Uiso   1.00
C1066  C     0.68790   0.45737   0.74932   0.00000  Uiso   1.00
Cu1067 Cu    0.83333   0.54689   0.75000   0.00000  Uiso   1.00
Cu1068 Cu    0.83333   0.45311   0.75000   0.00000  Uiso   1.00
H1069  H     0.78477   0.37646   0.70321   0.00000  Uiso   1.00
H1070  H     0.96276   0.57586   0.74983   0.00000  Uiso   1.00
H1071  H     0.96258   0.42410   0.74916   0.00000  Uiso   1.00
H1072  H     0.70406   0.57584   0.74982   0.00000  Uiso   1.00
H1073  H     0.73947   0.53759   0.60117   0.00000  Uiso   1.00
H1074  H     0.72788   0.45181   0.60012   0.00000  Uiso   1.00
H1075  H     0.70937   0.48169   0.64902   0.00000  Uiso   1.00
H1076  H     0.75722   0.45011   0.65121   0.00000  Uiso   1.00
H1077  H     0.88223   0.39970   0.89980   0.00000  Uiso   1.00
H1078  H     0.94010   0.45618   0.89847   0.00000  Uiso   1.00
H1079  H     0.91733   0.47930   0.84836   0.00000  Uiso   1.00
H1080  H     0.88207   0.62356   0.79657   0.00000  Uiso   1.00
H1081  H     0.93563   0.41986   0.84947   0.00000  Uiso   1.00
H1082  H     0.76081   0.57447   0.89657   0.00000  Uiso   1.00
H1083  H     0.81323   0.63175   0.91790   0.00000  Uiso   1.00
H1084  H     0.79395   0.64043   0.86243   0.00000  Uiso   1.00
H1085  H     0.84299   0.61230   0.87062   0.00000  Uiso   1.00
H1086  H     0.93252   0.50488   0.60390   0.00000  Uiso   1.00
H1087  H     0.92562   0.41945   0.59567   0.00000  Uiso   1.00
H1088  H     0.89451   0.42070   0.64535   0.00000  Uiso   1.00
H1089  H     0.94775   0.43803   0.64785   0.00000  Uiso   1.00
H1090  H     0.88196   0.37724   0.79669   0.00000  Uiso   1.00
H1091  H     0.78472   0.62273   0.70326   0.00000  Uiso   1.00
H1092  H     0.76834   0.51158   0.52999   0.00000  Uiso   1.00
H1093  H     0.87234   0.43822   0.97049   0.00000  Uiso   1.00
H1094  H     0.79624   0.56151   0.97174   0.00000  Uiso   1.00
H1095  H     0.89937   0.48781   0.53076   0.00000  Uiso   1.00
H1096  H     0.70389   0.42408   0.74911   0.00000  Uiso   1.00
N1097  N     0.83333   0.61736   0.75000   0.00000  Uiso   1.00
N1098  N     0.83333   0.38264   0.75000   0.00000  Uiso   1.00
N1099  N     0.75878   0.51441   0.61705   0.00000  Uiso   1.00
N1100  N     0.88043   0.43143   0.88376   0.00000  Uiso   1.00
N1101  N     0.79065   0.57133   0.88533   0.00000  Uiso   1.00
N1102  N     0.90843   0.48673   0.61797   0.00000  Uiso   1.00
O1103  O     0.77321   0.53958   0.74999   0.00000  Uiso   1.00
O1104  O     0.89345   0.46042   0.75000   0.00000  Uiso   1.00
O1105  O     0.89345   0.53958   0.75001   0.00000  Uiso   1.00
O1106  O     0.77321   0.46042   0.74999   0.00000  Uiso   1.00
O1107  O     0.83333   0.53959   0.68573   0.00000  Uiso   1.00
O1108  O     0.83334   0.46041   0.81427   0.00000  Uiso   1.00
O1109  O     0.83334   0.53959   0.81427   0.00000  Uiso   1.00
O1110  O     0.83333   0.46041   0.68573   0.00000  Uiso   1.00
C1111  C     0.08735   0.83331   0.74988   0.00000  Uiso   1.00
C1112  C     0.31208   0.87590   0.74968   0.00000  Uiso   1.00
C1113  C     0.31198   0.79072   0.74932   0.00000  Uiso   1.00
C1114  C     0.02133   0.87588   0.74969   0.00000  Uiso   1.00
C1115  C     0.13024   0.83983   0.54793   0.00000  Uiso   1.00
C1116  C     0.18918   0.79870   0.95291   0.00000  Uiso   1.00
C1117  C     0.14611   0.86790   0.95366   0.00000  Uiso   1.00
C1118  C     0.20392   0.82570   0.54834   0.00000  Uiso   1.00
C1119  C     0.12972   0.83964   0.59410   0.00000  Uiso   1.00
C1120  C     0.19013   0.79917   0.90672   0.00000  Uiso   1.00
C1121  C     0.14655   0.86912   0.90753   0.00000  Uiso   1.00
C1122  C     0.24598   0.83334   0.74982   0.00000  Uiso   1.00
C1123  C     0.20398   0.82527   0.59452   0.00000  Uiso   1.00
C1124  C     0.16677   0.83239   0.61731   0.00000  Uiso   1.00
C1125  C     0.16809   0.83414   0.88366   0.00000  Uiso   1.00
C1126  C     0.16715   0.83262   0.52495   0.00000  Uiso   1.00
C1127  C     0.16737   0.83295   0.97643   0.00000  Uiso   1.00
C1128  C     0.29058   0.83333   0.74959   0.00000  Uiso   1.00
C1129  C     0.04274   0.83329   0.74965   0.00000  Uiso   1.00
C1130  C     0.07069   0.80554   0.62993   0.00000  Uiso   1.00
C1131  C     0.25374   0.78104   0.86936   0.00000  Uiso   1.00
C1132  C     0.14472   0.94955   0.88412   0.00000  Uiso   1.00
C1133  C     0.16677   0.83313   0.66523   0.00000  Uiso   1.00
C1134  C     0.25282   0.77201   0.62708   0.00000  Uiso   1.00
C1135  C     0.16693   0.83355   0.83512   0.00000  Uiso   1.00
C1136  C     0.13969   0.69126   0.72403   0.00000  Uiso   1.00
C1137  C     0.19372   0.97542   0.77587   0.00000  Uiso   1.00
C1138  C     0.19367   0.69170   0.77593   0.00000  Uiso   1.00
C1139  C     0.13967   0.97496   0.72406   0.00000  Uiso   1.00
C1140  C     0.02124   0.79071   0.74932   0.00000  Uiso   1.00
Cu1141 Cu    0.16667   0.88022   0.75000   0.00000  Uiso   1.00
Cu1142 Cu    0.16667   0.78645   0.75000   0.00000  Uiso   1.00
H1143  H     0.11810   0.70979   0.70321   0.00000  Uiso   1.00
H1144  H     0.29610   0.90920   0.74983   0.00000  Uiso   1.00
H1145  H     0.29591   0.75744   0.74916   0.00000  Uiso   1.00
H1146  H     0.03739   0.90918   0.74982   0.00000  Uiso   1.00
H1147  H     0.07280   0.87092   0.60117   0.00000  Uiso   1.00
H1148  H     0.06121   0.78514   0.60012   0.00000  Uiso   1.00
H1149  H     0.04270   0.81503   0.64902   0.00000  Uiso   1.00
H1150  H     0.09055   0.78344   0.65121   0.00000  Uiso   1.00
H1151  H     0.21557   0.73303   0.89980   0.00000  Uiso   1.00
H1152  H     0.27343   0.78951   0.89847   0.00000  Uiso   1.00
H1153  H     0.25066   0.81263   0.84836   0.00000  Uiso   1.00
H1154  H     0.21541   0.95689   0.79657   0.00000  Uiso   1.00
H1155  H     0.26897   0.75320   0.84947   0.00000  Uiso   1.00
H1156  H     0.09414   0.90781   0.89657   0.00000  Uiso   1.00
H1157  H     0.14657   0.96508   0.91790   0.00000  Uiso   1.00
H1158  H     0.12728   0.97376   0.86243   0.00000  Uiso   1.00
H1159  H     0.17632   0.94563   0.87062   0.00000  Uiso   1.00
H1160  H     0.26585   0.83821   0.60390   0.00000  Uiso   1.00
H1161  H     0.25895   0.75279   0.59567   0.00000  Uiso   1.00
H1162  H     0.22784   0.75403   0.64535   0.00000  Uiso   1.00
H1163  H     0.28108   0.77136   0.64785   0.00000  Uiso   1.00
H1164  H     0.21529   0.71058   0.79669   0.00000  Uiso   1.00
H1165  H     0.11806   0.95607   0.70326   0.00000  Uiso   1.00
H1166  H     0.10167   0.84491   0.52999   0.00000  Uiso   1.00
H1167  H     0.20568   0.77155   0.97049   0.00000  Uiso   1.00
H1168  H     0.12957   0.89484   0.97174   0.00000  Uiso   1.00
H1169  H     0.23270   0.82114   0.53076   0.00000  Uiso   1.00
H1170  H     0.03723   0.75742   0.74911   0.00000  Uiso   1.00
N1171  N     0.16667   0.95069   0.75000   0.00000  Uiso   1.00
N1172  N     0.16667   0.71598   0.75000   0.00000  Uiso   1.00
N1173  N     0.09211   0.84774   0.61705   0.00000  Uiso   1.00
N1174  N     0.21377   0.76477   0.88376   0.00000  Uiso   1.00
N1175  N     0.12399   0.90466   0.88533   0.00000  Uiso   1.00
N1176  N     0.24176   0.82007   0.61797   0.00000  Uiso   1.00
O1177  O     0.10655   0.87291   0.74999   0.00000  Uiso   1.00
O1178  O     0.22679   0.79375   0.75000   0.00000  Uiso   1.00
O1179  O     0.22679   0.87291   0.75001   0.00000  Uiso   1.00
O1180  O     0.10655   0.79375   0.74999   0.00000  Uiso   1.00
O1181  O     0.16666   0.87293   0.68573   0.00000  Uiso   1.00
O1182  O     0.16667   0.79374   0.81427   0.00000  Uiso   1.00
O1183  O     0.16667   0.87293   0.81427   0.00000  Uiso   1.00
O1184  O     0.16666   0.79374   0.68573   0.00000  Uiso   1.00
C1185  C     0.42068   0.83331   0.74988   0.00000  Uiso   1.00
C1186  C     0.64542   0.87590   0.74968   0.00000  Uiso   1.00
C1187  C     0.64532   0.79072   0.74932   0.00000  Uiso   1.00
C1188  C     0.35466   0.87588   0.74969   0.00000  Uiso   1.00
C1189  C     0.46357   0.83983   0.54793   0.00000  Uiso   1.00
C1190  C     0.52252   0.79870   0.95291   0.00000  Uiso   1.00
C1191  C     0.47945   0.86790   0.95366   0.00000  Uiso   1.00
C1192  C     0.53726   0.82570   0.54834   0.00000  Uiso   1.00
C1193  C     0.46306   0.83964   0.59410   0.00000  Uiso   1.00
C1194  C     0.52346   0.79917   0.90672   0.00000  Uiso   1.00
C1195  C     0.47988   0.86912   0.90753   0.00000  Uiso   1.00
C1196  C     0.57931   0.83334   0.74982   0.00000  Uiso   1.00
C1197  C     0.53732   0.82527   0.59452   0.00000  Uiso   1.00
C1198  C     0.50010   0.83239   0.61731   0.00000  Uiso   1.00
C1199  C     0.50142   0.83414   0.88366   0.00000  Uiso   1.00
C1200  C     0.50048   0.83262   0.52495   0.00000  Uiso   1.00
C1201  C     0.50070   0.83295   0.97643   0.00000  Uiso   1.00
C1202  C     0.62392   0.83333   0.74959   0.00000  Uiso   1.00
C1203  C     0.37607   0.83329   0.74965   0.00000  Uiso   1.00
C1204  C     0.40402   0.80554   0.62993   0.00000  Uiso   1.00
C1205  C     0.58707   0.78104   0.86936   0.00000  Uiso   1.00
C1206  C     0.47805   0.94955   0.88412   0.00000  Uiso   1.00
C1207  C     0.50010   0.83313   0.66523   0.00000  Uiso   1.00
C1208  C     0.58615   0.77201   0.62708   0.00000  Uiso   1.00
C1209  C     0.50026   0.83355   0.83512   0.00000  Uiso   1.00
C1210  C     0.47302   0.69126   0.72403   0.00000  Uiso   1.00
C1211  C     0.52705   0.97542   0.77587   0.00000  Uiso   1.00
C1212  C     0.52700   0.69170   0.77593   0.00000  Uiso   1.00
C1213  C     0.47300   0.97496   0.72406   0.00000  Uiso   1.00
C1214  C     0.35457   0.79071   0.74932   0.00000  Uiso   1.00
Cu1215 Cu    0.50000   0.88022   0.75000   0.00000  Uiso   1.00
Cu1216 Cu    0.50000   0.78645   0.75000   0.00000  Uiso   1.00
H1217  H     0.45144   0.70979   0.70321   0.00000  Uiso   1.00
H1218  H     0.62943   0.90920   0.74983   0.00000  Uiso   1.00
H1219  H     0.62925   0.75744   0.74916   0.00000  Uiso   1.00
H1220  H     0.37072   0.90918   0.74982   0.00000  Uiso   1.00
H1221  H     0.40614   0.87092   0.60117   0.00000  Uiso   1.00
H1222  H     0.39455   0.78514   0.60012   0.00000  Uiso   1.00
H1223  H     0.37603   0.81503   0.64902   0.00000  Uiso   1.00
H1224  H     0.42389   0.78344   0.65121   0.00000  Uiso   1.00
H1225  H     0.54890   0.73303   0.89980   0.00000  Uiso   1.00
H1226  H     0.60677   0.78951   0.89847   0.00000  Uiso   1.00
H1227  H     0.58400   0.81263   0.84836   0.00000  Uiso   1.00
H1228  H     0.54874   0.95689   0.79657   0.00000  Uiso   1.00
H1229  H     0.60230   0.75320   0.84947   0.00000  Uiso   1.00
H1230  H     0.42747   0.90781   0.89657   0.00000  Uiso   1.00
H1231  H     0.47990   0.96508   0.91790   0.00000  Uiso   1.00
H1232  H     0.46062   0.97376   0.86243   0.00000  Uiso   1.00
H1233  H     0.50965   0.94563   0.87062   0.00000  Uiso   1.00
H1234  H     0.59919   0.83821   0.60390   0.00000  Uiso   1.00
H1235  H     0.59228   0.75279   0.59567   0.00000  Uiso   1.00
H1236  H     0.56117   0.75403   0.64535   0.00000  Uiso   1.00
H1237  H     0.61441   0.77136   0.64785   0.00000  Uiso   1.00
H1238  H     0.54863   0.71058   0.79669   0.00000  Uiso   1.00
H1239  H     0.45139   0.95607   0.70326   0.00000  Uiso   1.00
H1240  H     0.43501   0.84491   0.52999   0.00000  Uiso   1.00
H1241  H     0.53901   0.77155   0.97049   0.00000  Uiso   1.00
H1242  H     0.46291   0.89484   0.97174   0.00000  Uiso   1.00
H1243  H     0.56604   0.82114   0.53076   0.00000  Uiso   1.00
H1244  H     0.37056   0.75742   0.74911   0.00000  Uiso   1.00
N1245  N     0.50000   0.95069   0.75000   0.00000  Uiso   1.00
N1246  N     0.50000   0.71598   0.75000   0.00000  Uiso   1.00
N1247  N     0.42545   0.84774   0.61705   0.00000  Uiso   1.00
N1248  N     0.54710   0.76477   0.88376   0.00000  Uiso   1.00
N1249  N     0.45732   0.90466   0.88533   0.00000  Uiso   1.00
N1250  N     0.57510   0.82007   0.61797   0.00000  Uiso   1.00
O1251  O     0.43988   0.87291   0.74999   0.00000  Uiso   1.00
O1252  O     0.56012   0.79375   0.75000   0.00000  Uiso   1.00
O1253  O     0.56012   0.87291   0.75001   0.00000  Uiso   1.00
O1254  O     0.43988   0.79375   0.74999   0.00000  Uiso   1.00
O1255  O     0.50000   0.87293   0.68573   0.00000  Uiso   1.00
O1256  O     0.50000   0.79374   0.81427   0.00000  Uiso   1.00
O1257  O     0.50000   0.87293   0.81427   0.00000  Uiso   1.00
O1258  O     0.50000   0.79374   0.68573   0.00000  Uiso   1.00
C1259  C     0.75402   0.83331   0.74988   0.00000  Uiso   1.00
C1260  C     0.97875   0.87590   0.74968   0.00000  Uiso   1.00
C1261  C     0.97865   0.79072   0.74932   0.00000  Uiso   1.00
C1262  C     0.68800   0.87588   0.74969   0.00000  Uiso   1.00
C1263  C     0.79691   0.83983   0.54793   0.00000  Uiso   1.00
C1264  C     0.85585   0.79870   0.95291   0.00000  Uiso   1.00
C1265  C     0.81278   0.86790   0.95366   0.00000  Uiso   1.00
C1266  C     0.87059   0.82570   0.54834   0.00000  Uiso   1.00
C1267  C     0.79639   0.83964   0.59410   0.00000  Uiso   1.00
C1268  C     0.85679   0.79917   0.90672   0.00000  Uiso   1.00
C1269  C     0.81322   0.86912   0.90753   0.00000  Uiso   1.00
C1270  C     0.91265   0.83334   0.74982   0.00000  Uiso   1.00
C1271  C     0.87065   0.82527   0.59452   0.00000  Uiso   1.00
C1272  C     0.83343   0.83239   0.61731   0.00000  Uiso   1.00
C1273  C     0.83475   0.83414   0.88366   0.00000  Uiso   1.00
C1274  C     0.83381   0.83262   0.52495   0.00000  Uiso   1.00
C1275  C     0.83403   0.83295   0.97643   0.00000  Uiso   1.00
C1276  C     0.95725   0.83333   0.74959   0.00000  Uiso   1.00
C1277  C     0.70940   0.83329   0.74965   0.00000  Uiso   1.00
C1278  C     0.73736   0.80554   0.62993   0.00000  Uiso   1.00
C1279  C     0.92040   0.78104   0.86936   0.00000  Uiso   1.00
C1280  C     0.81139   0.94955   0.88412   0.00000  Uiso   1.00
C1281  C     0.83343   0.83313   0.66523   0.00000  Uiso   1.00
C1282  C     0.91949   0.77201   0.62708   0.00000  Uiso   1.00
C1283  C     0.83360   0.83355   0.83512   0.00000  Uiso   1.00
C1284  C     0.80635   0.69126   0.72403   0.00000  Uiso   1.00
C1285  C     0.86038   0.97542   0.77587   0.00000  Uiso   1.00
C1286  C     0.86034   0.69170   0.77593   0.00000  Uiso   1.00
C1287  C     0.80633   0.97496   0.72406   0.00000  Uiso   1.00
C1288  C     0.68790   0.79071   0.74932   0.00000  Uiso   1.00
Cu1289 Cu    0.83333   0.88022   0.75000   0.00000  Uiso   1.00
Cu1290 Cu    0.83333   0.78645   0.75000   0.00000  Uiso   1.00
H1291  H     0.78477   0.70979   0.70321   0.00000  Uiso   1.00
H1292  H     0.96276   0.90920   0.74983   0.00000  Uiso   1.00
H1293  H     0.96258   0.75744   0.74916   0.00000  Uiso   1.00
H1294  H     0.70406   0.90918   0.74982   0.00000  Uiso   1.00
H1295  H     0.73947   0.87092   0.60117   0.00000  Uiso   1.00
H1296  H     0.72788   0.78514   0.60012   0.00000  Uiso   1.00
H1297  H     0.70937   0.81503   0.64902   0.00000  Uiso   1.00
H1298  H     0.75722   0.78344   0.65121   0.00000  Uiso   1.00
H1299  H     0.88223   0.73303   0.89980   0.00000  Uiso   1.00
H1300  H     0.94010   0.78951   0.89847   0.00000  Uiso   1.00
H1301  H     0.91733   0.81263   0.84836   0.00000  Uiso   1.00
H1302  H     0.88207   0.95689   0.79657   0.00000  Uiso   1.00
H1303  H     0.93563   0.75320   0.84947   0.00000  Uiso   1.00
H1304  H     0.76081   0.90781   0.89657   0.00000  Uiso   1.00
H1305  H     0.81323   0.96508   0.91790   0.00000  Uiso   1.00
H1306  H     0.79395   0.97376   0.86243   0.00000  Uiso   1.00
H1307  H     0.84299   0.94563   0.87062   0.00000  Uiso   1.00
H1308  H     0.93252   0.83821   0.60390   0.00000  Uiso   1.00
H1309  H     0.92562   0.75279   0.59567   0.00000  Uiso   1.00
H1310  H     0.89451   0.75403   0.64535   0.00000  Uiso   1.00
H1311  H     0.94775   0.77136   0.64785   0.00000  Uiso   1.00
H1312  H     0.88196   0.71058   0.79669   0.00000  Uiso   1.00
H1313  H     0.78472   0.95607   0.70326   0.00000  Uiso   1.00
H1314  H     0.76834   0.84491   0.52999   0.00000  Uiso   1.00
H1315  H     0.87234   0.77155   0.97049   0.00000  Uiso   1.00
H1316  H     0.79624   0.89484   0.97174   0.00000  Uiso   1.00
H1317  H     0.89937   0.82114   0.53076   0.00000  Uiso   1.00
H1318  H     0.70389   0.75742   0.74911   0.00000  Uiso   1.00
N1319  N     0.83333   0.95069   0.75000   0.00000  Uiso   1.00
N1320  N     0.83333   0.71598   0.75000   0.00000  Uiso   1.00
N1321  N     0.75878   0.84774   0.61705   0.00000  Uiso   1.00
N1322  N     0.88043   0.76477   0.88376   0.00000  Uiso   1.00
N1323  N     0.79065   0.90466   0.88533   0.00000  Uiso   1.00
N1324  N     0.90843   0.82007   0.61797   0.00000  Uiso   1.00
O1325  O     0.77321   0.87291   0.74999   0.00000  Uiso   1.00
O1326  O     0.89345   0.79375   0.75000   0.00000  Uiso   1.00
O1327  O     0.89345   0.87291   0.75001   0.00000  Uiso   1.00
O1328  O     0.77321   0.79375   0.74999   0.00000  Uiso   1.00
O1329  O     0.83333   0.87293   0.68573   0.00000  Uiso   1.00
O1330  O     0.83334   0.79374   0.81427   0.00000  Uiso   1.00
O1331  O     0.83334   0.87293   0.81427   0.00000  Uiso   1.00
O1332  O     0.83333   0.79374   0.68573   0.00000  Uiso   1.00
loop_
_geom_bond_atom_site_label_1
_geom_bond_atom_site_label_2
_geom_bond_distance
_geom_bond_site_symmetry_2
_ccdc_geom_bond_type
C1     O70     1.290   .     A
C1     C19     1.449   .     S
C1     O67     1.290   .     A
C2     C18     1.401   .     A
C2     H34     1.083   .     S
C2     C78     1.383   .     S
C3     H35     1.083   .     S
C3     C18     1.401   .     A
C3     C104    1.383   .     S
C4     H36     1.083   .     S
C4     C19     1.401   .     A
C4     C150    1.383   1_455 S
C5     C9      1.395   .     A
C5     C16     1.401   .     A
C5     H56     1.084   .     S
C6     C10     1.396   .     A
C6     H57     1.084   .     S
C6     C17     1.399   .     A
C7     H58     1.084   .     S
C7     C11     1.395   .     A
C7     C17     1.398   .     A
C8     C13     1.395   .     A
C8     C16     1.401   .     A
C8     H59     1.084   .     S
C9     C14     1.407   .     A
C9     N63     1.424   .     S
C10    C15     1.415   .     A
C10    N64     1.425   .     S
C11    N65     1.423   .     S
C11    C15     1.414   .     A
C12    O69     1.291   .     A
C12    C18     1.449   .     S
C12    O68     1.290   .     A
C13    C14     1.407   .     A
C13    N66     1.424   .     S
C14    C23     1.448   .     S
C15    C25     1.467   .     S
C16    C683    1.466   1_554 S
C17    C682    1.466   .     S
C19    C30     1.401   .     A
C20    H38     1.112   .     S
C20    N63     1.447   .     S
C20    H40     1.110   .     S
C20    H39     1.110   .     S
C21    H43     1.110   .     S
C21    N64     1.447   .     S
C21    H42     1.111   .     S
C21    H45     1.110   .     S
C22    H48     1.110   .     S
C22    N65     1.447   .     S
C22    H47     1.112   .     S
C22    H49     1.111   .     S
C23    O74     1.288   .     A
C23    O71     1.290   .     A
C24    N66     1.446   .     S
C24    H51     1.112   .     S
C24    H52     1.110   .     S
C24    H53     1.111   .     S
C25    O72     1.295   .     A
C25    O73     1.292   .     A
C26    N62     1.367   .     A
C26    H33     1.082   .     S
C26    C473    1.416   1_545 S
C27    N61     1.367   .     A
C27    H44     1.082   .     S
C27    C250    1.416   .     S
C28    H54     1.081   .     S
C28    N62     1.367   .     A
C28    C471    1.416   1_545 S
C29    H55     1.082   .     S
C29    N61     1.367   .     A
C29    C248    1.416   .     S
C30    H60     1.083   .     S
C30    C151    1.383   1_455 S
Cu31   N61     2.011   .     S
Cu31   O71     1.952   .     S
Cu31   O73     1.955   .     S
Cu31   O67     1.963   .     S
Cu31   O69     1.964   .     S
Cu31   Cu32    2.676   .     S
Cu32   N62     2.011   .     S
Cu32   O68     1.963   .     S
Cu32   O74     1.955   .     S
Cu32   O72     1.952   .     S
Cu32   O70     1.964   .     S
H37    N63     1.032   .     S
H41    N64     1.032   .     S
H46    N65     1.032   .     S
H50    N66     1.032   .     S
C75    O144    1.290   .     A
C75    C93     1.449   .     S
C75    O141    1.290   .     A
C76    C92     1.401   .     A
C76    H108    1.083   .     S
C76    C152    1.383   .     S
C77    H109    1.083   .     S
C77    C92     1.401   .     A
C77    C178    1.383   .     S
C78    H110    1.083   .     S
C78    C93     1.401   .     A
C79    C83     1.395   .     A
C79    C90     1.401   .     A
C79    H130    1.084   .     S
C80    C84     1.396   .     A
C80    H131    1.084   .     S
C80    C91     1.399   .     A
C81    H132    1.084   .     S
C81    C85     1.395   .     A
C81    C91     1.398   .     A
C82    C87     1.395   .     A
C82    C90     1.401   .     A
C82    H133    1.084   .     S
C83    C88     1.407   .     A
C83    N137    1.424   .     S
C84    C89     1.415   .     A
C84    N138    1.425   .     S
C85    N139    1.423   .     S
C85    C89     1.414   .     A
C86    O143    1.291   .     A
C86    C92     1.449   .     S
C86    O142    1.290   .     A
C87    C88     1.407   .     A
C87    N140    1.424   .     S
C88    C97     1.448   .     S
C89    C99     1.467   .     S
C90    C757    1.466   1_554 S
C91    C756    1.466   .     S
C93    C104    1.401   .     A
C94    H112    1.112   .     S
C94    N137    1.447   .     S
C94    H114    1.110   .     S
C94    H113    1.110   .     S
C95    H117    1.110   .     S
C95    N138    1.447   .     S
C95    H116    1.111   .     S
C95    H119    1.110   .     S
C96    H122    1.110   .     S
C96    N139    1.447   .     S
C96    H121    1.112   .     S
C96    H123    1.111   .     S
C97    O148    1.288   .     A
C97    O145    1.290   .     A
C98    N140    1.446   .     S
C98    H125    1.112   .     S
C98    H126    1.110   .     S
C98    H127    1.111   .     S
C99    O146    1.295   .     A
C99    O147    1.292   .     A
C100   N136    1.367   .     A
C100   H107    1.082   .     S
C100   C547    1.416   1_545 S
C101   N135    1.367   .     A
C101   H118    1.082   .     S
C101   C324    1.416   .     S
C102   H128    1.081   .     S
C102   N136    1.367   .     A
C102   C545    1.416   1_545 S
C103   H129    1.082   .     S
C103   N135    1.367   .     A
C103   C322    1.416   .     S
C104   H134    1.083   .     S
Cu105  N135    2.011   .     S
Cu105  O145    1.952   .     S
Cu105  O147    1.955   .     S
Cu105  O141    1.963   .     S
Cu105  O143    1.964   .     S
Cu105  Cu106   2.676   .     S
Cu106  N136    2.011   .     S
Cu106  O142    1.963   .     S
Cu106  O148    1.955   .     S
Cu106  O146    1.952   .     S
Cu106  O144    1.964   .     S
H111   N137    1.032   .     S
H115   N138    1.032   .     S
H120   N139    1.032   .     S
H124   N140    1.032   .     S
C149   O218    1.290   .     A
C149   C167    1.449   .     S
C149   O215    1.290   .     A
C150   C166    1.401   .     A
C150   H182    1.083   .     S
C150   C4      1.383   1_655 S
C151   H183    1.083   .     S
C151   C166    1.401   .     A
C151   C30     1.383   1_655 S
C152   H184    1.083   .     S
C152   C167    1.401   .     A
C153   C157    1.395   .     A
C153   C164    1.401   .     A
C153   H204    1.084   .     S
C154   C158    1.396   .     A
C154   H205    1.084   .     S
C154   C165    1.399   .     A
C155   H206    1.084   .     S
C155   C159    1.395   .     A
C155   C165    1.398   .     A
C156   C161    1.395   .     A
C156   C164    1.401   .     A
C156   H207    1.084   .     S
C157   C162    1.407   .     A
C157   N211    1.424   .     S
C158   C163    1.415   .     A
C158   N212    1.425   .     S
C159   N213    1.423   .     S
C159   C163    1.414   .     A
C160   O217    1.291   .     A
C160   C166    1.449   .     S
C160   O216    1.290   .     A
C161   C162    1.407   .     A
C161   N214    1.424   .     S
C162   C171    1.448   .     S
C163   C173    1.467   .     S
C164   C831    1.466   1_554 S
C165   C830    1.466   .     S
C167   C178    1.401   .     A
C168   H186    1.112   .     S
C168   N211    1.447   .     S
C168   H188    1.110   .     S
C168   H187    1.110   .     S
C169   H191    1.110   .     S
C169   N212    1.447   .     S
C169   H190    1.111   .     S
C169   H193    1.110   .     S
C170   H196    1.110   .     S
C170   N213    1.447   .     S
C170   H195    1.112   .     S
C170   H197    1.111   .     S
C171   O222    1.288   .     A
C171   O219    1.290   .     A
C172   N214    1.446   .     S
C172   H199    1.112   .     S
C172   H200    1.110   .     S
C172   H201    1.111   .     S
C173   O220    1.295   .     A
C173   O221    1.292   .     A
C174   N210    1.367   .     A
C174   H181    1.082   .     S
C174   C621    1.416   1_545 S
C175   N209    1.367   .     A
C175   H192    1.082   .     S
C175   C398    1.416   .     S
C176   H202    1.081   .     S
C176   N210    1.367   .     A
C176   C619    1.416   1_545 S
C177   H203    1.082   .     S
C177   N209    1.367   .     A
C177   C396    1.416   .     S
C178   H208    1.083   .     S
Cu179  N209    2.011   .     S
Cu179  O219    1.952   .     S
Cu179  O221    1.955   .     S
Cu179  O215    1.963   .     S
Cu179  O217    1.964   .     S
Cu179  Cu180   2.676   .     S
Cu180  N210    2.011   .     S
Cu180  O216    1.963   .     S
Cu180  O222    1.955   .     S
Cu180  O220    1.952   .     S
Cu180  O218    1.964   .     S
H185   N211    1.032   .     S
H189   N212    1.032   .     S
H194   N213    1.032   .     S
H198   N214    1.032   .     S
C223   O292    1.290   .     A
C223   C241    1.449   .     S
C223   O289    1.290   .     A
C224   C240    1.401   .     A
C224   H256    1.083   .     S
C224   C300    1.383   .     S
C225   H257    1.083   .     S
C225   C240    1.401   .     A
C225   C326    1.383   .     S
C226   H258    1.083   .     S
C226   C241    1.401   .     A
C226   C372    1.383   1_455 S
C227   C231    1.395   .     A
C227   C238    1.401   .     A
C227   H278    1.084   .     S
C228   C232    1.396   .     A
C228   H279    1.084   .     S
C228   C239    1.399   .     A
C229   H280    1.084   .     S
C229   C233    1.395   .     A
C229   C239    1.398   .     A
C230   C235    1.395   .     A
C230   C238    1.401   .     A
C230   H281    1.084   .     S
C231   C236    1.407   .     A
C231   N285    1.424   .     S
C232   C237    1.415   .     A
C232   N286    1.425   .     S
C233   N287    1.423   .     S
C233   C237    1.414   .     A
C234   O291    1.291   .     A
C234   C240    1.449   .     S
C234   O290    1.290   .     A
C235   C236    1.407   .     A
C235   N288    1.424   .     S
C236   C245    1.448   .     S
C237   C247    1.467   .     S
C238   C905    1.466   1_554 S
C239   C904    1.466   .     S
C241   C252    1.401   .     A
C242   H260    1.112   .     S
C242   N285    1.447   .     S
C242   H262    1.110   .     S
C242   H261    1.110   .     S
C243   H265    1.110   .     S
C243   N286    1.447   .     S
C243   H264    1.111   .     S
C243   H267    1.110   .     S
C244   H270    1.110   .     S
C244   N287    1.447   .     S
C244   H269    1.112   .     S
C244   H271    1.111   .     S
C245   O296    1.288   .     A
C245   O293    1.290   .     A
C246   N288    1.446   .     S
C246   H273    1.112   .     S
C246   H274    1.110   .     S
C246   H275    1.111   .     S
C247   O294    1.295   .     A
C247   O295    1.292   .     A
C248   N284    1.367   .     A
C248   H255    1.082   .     S
C249   N283    1.367   .     A
C249   H266    1.082   .     S
C249   C472    1.416   .     S
C250   H276    1.081   .     S
C250   N284    1.367   .     A
C251   H277    1.082   .     S
C251   N283    1.367   .     A
C251   C470    1.416   .     S
C252   H282    1.083   .     S
C252   C373    1.383   1_455 S
Cu253  N283    2.011   .     S
Cu253  O293    1.952   .     S
Cu253  O295    1.955   .     S
Cu253  O289    1.963   .     S
Cu253  O291    1.964   .     S
Cu253  Cu254   2.676   .     S
Cu254  N284    2.011   .     S
Cu254  O290    1.963   .     S
Cu254  O296    1.955   .     S
Cu254  O294    1.952   .     S
Cu254  O292    1.964   .     S
H259   N285    1.032   .     S
H263   N286    1.032   .     S
H268   N287    1.032   .     S
H272   N288    1.032   .     S
C297   O366    1.290   .     A
C297   C315    1.449   .     S
C297   O363    1.290   .     A
C298   C314    1.401   .     A
C298   H330    1.083   .     S
C298   C374    1.383   .     S
C299   H331    1.083   .     S
C299   C314    1.401   .     A
C299   C400    1.383   .     S
C300   H332    1.083   .     S
C300   C315    1.401   .     A
C301   C305    1.395   .     A
C301   C312    1.401   .     A
C301   H352    1.084   .     S
C302   C306    1.396   .     A
C302   H353    1.084   .     S
C302   C313    1.399   .     A
C303   H354    1.084   .     S
C303   C307    1.395   .     A
C303   C313    1.398   .     A
C304   C309    1.395   .     A
C304   C312    1.401   .     A
C304   H355    1.084   .     S
C305   C310    1.407   .     A
C305   N359    1.424   .     S
C306   C311    1.415   .     A
C306   N360    1.425   .     S
C307   N361    1.423   .     S
C307   C311    1.414   .     A
C308   O365    1.291   .     A
C308   C314    1.449   .     S
C308   O364    1.290   .     A
C309   C310    1.407   .     A
C309   N362    1.424   .     S
C310   C319    1.448   .     S
C311   C321    1.467   .     S
C312   C979    1.466   1_554 S
C313   C978    1.466   .     S
C315   C326    1.401   .     A
C316   H334    1.112   .     S
C316   N359    1.447   .     S
C316   H336    1.110   .     S
C316   H335    1.110   .     S
C317   H339    1.110   .     S
C317   N360    1.447   .     S
C317   H338    1.111   .     S
C317   H341    1.110   .     S
C318   H344    1.110   .     S
C318   N361    1.447   .     S
C318   H343    1.112   .     S
C318   H345    1.111   .     S
C319   O370    1.288   .     A
C319   O367    1.290   .     A
C320   N362    1.446   .     S
C320   H347    1.112   .     S
C320   H348    1.110   .     S
C320   H349    1.111   .     S
C321   O368    1.295   .     A
C321   O369    1.292   .     A
C322   N358    1.367   .     A
C322   H329    1.082   .     S
C323   N357    1.367   .     A
C323   H340    1.082   .     S
C323   C546    1.416   .     S
C324   H350    1.081   .     S
C324   N358    1.367   .     A
C325   H351    1.082   .     S
C325   N357    1.367   .     A
C325   C544    1.416   .     S
C326   H356    1.083   .     S
Cu327  N357    2.011   .     S
Cu327  O367    1.952   .     S
Cu327  O369    1.955   .     S
Cu327  O363    1.963   .     S
Cu327  O365    1.964   .     S
Cu327  Cu328   2.676   .     S
Cu328  N358    2.011   .     S
Cu328  O364    1.963   .     S
Cu328  O370    1.955   .     S
Cu328  O368    1.952   .     S
Cu328  O366    1.964   .     S
H333   N359    1.032   .     S
H337   N360    1.032   .     S
H342   N361    1.032   .     S
H346   N362    1.032   .     S
C371   O440    1.290   .     A
C371   C389    1.449   .     S
C371   O437    1.290   .     A
C372   C388    1.401   .     A
C372   H404    1.083   .     S
C372   C226    1.383   1_655 S
C373   H405    1.083   .     S
C373   C388    1.401   .     A
C373   C252    1.383   1_655 S
C374   H406    1.083   .     S
C374   C389    1.401   .     A
C375   C379    1.395   .     A
C375   C386    1.401   .     A
C375   H426    1.084   .     S
C376   C380    1.396   .     A
C376   H427    1.084   .     S
C376   C387    1.399   .     A
C377   H428    1.084   .     S
C377   C381    1.395   .     A
C377   C387    1.398   .     A
C378   C383    1.395   .     A
C378   C386    1.401   .     A
C378   H429    1.084   .     S
C379   C384    1.407   .     A
C379   N433    1.424   .     S
C380   C385    1.415   .     A
C380   N434    1.425   .     S
C381   N435    1.423   .     S
C381   C385    1.414   .     A
C382   O439    1.291   .     A
C382   C388    1.449   .     S
C382   O438    1.290   .     A
C383   C384    1.407   .     A
C383   N436    1.424   .     S
C384   C393    1.448   .     S
C385   C395    1.467   .     S
C386   C1053   1.466   1_554 S
C387   C1052   1.466   .     S
C389   C400    1.401   .     A
C390   H408    1.112   .     S
C390   N433    1.447   .     S
C390   H410    1.110   .     S
C390   H409    1.110   .     S
C391   H413    1.110   .     S
C391   N434    1.447   .     S
C391   H412    1.111   .     S
C391   H415    1.110   .     S
C392   H418    1.110   .     S
C392   N435    1.447   .     S
C392   H417    1.112   .     S
C392   H419    1.111   .     S
C393   O444    1.288   .     A
C393   O441    1.290   .     A
C394   N436    1.446   .     S
C394   H421    1.112   .     S
C394   H422    1.110   .     S
C394   H423    1.111   .     S
C395   O442    1.295   .     A
C395   O443    1.292   .     A
C396   N432    1.367   .     A
C396   H403    1.082   .     S
C397   N431    1.367   .     A
C397   H414    1.082   .     S
C397   C620    1.416   .     S
C398   H424    1.081   .     S
C398   N432    1.367   .     A
C399   H425    1.082   .     S
C399   N431    1.367   .     A
C399   C618    1.416   .     S
C400   H430    1.083   .     S
Cu401  N431    2.011   .     S
Cu401  O441    1.952   .     S
Cu401  O443    1.955   .     S
Cu401  O437    1.963   .     S
Cu401  O439    1.964   .     S
Cu401  Cu402   2.676   .     S
Cu402  N432    2.011   .     S
Cu402  O438    1.963   .     S
Cu402  O444    1.955   .     S
Cu402  O442    1.952   .     S
Cu402  O440    1.964   .     S
H407   N433    1.032   .     S
H411   N434    1.032   .     S
H416   N435    1.032   .     S
H420   N436    1.032   .     S
C445   O514    1.290   .     A
C445   C463    1.449   .     S
C445   O511    1.290   .     A
C446   C462    1.401   .     A
C446   H478    1.083   .     S
C446   C522    1.383   .     S
C447   H479    1.083   .     S
C447   C462    1.401   .     A
C447   C548    1.383   .     S
C448   H480    1.083   .     S
C448   C463    1.401   .     A
C448   C594    1.383   1_455 S
C449   C453    1.395   .     A
C449   C460    1.401   .     A
C449   H500    1.084   .     S
C450   C454    1.396   .     A
C450   H501    1.084   .     S
C450   C461    1.399   .     A
C451   H502    1.084   .     S
C451   C455    1.395   .     A
C451   C461    1.398   .     A
C452   C457    1.395   .     A
C452   C460    1.401   .     A
C452   H503    1.084   .     S
C453   C458    1.407   .     A
C453   N507    1.424   .     S
C454   C459    1.415   .     A
C454   N508    1.425   .     S
C455   N509    1.423   .     S
C455   C459    1.414   .     A
C456   O513    1.291   .     A
C456   C462    1.449   .     S
C456   O512    1.290   .     A
C457   C458    1.407   .     A
C457   N510    1.424   .     S
C458   C467    1.448   .     S
C459   C469    1.467   .     S
C460   C1127   1.466   1_554 S
C461   C1126   1.466   .     S
C463   C474    1.401   .     A
C464   H482    1.112   .     S
C464   N507    1.447   .     S
C464   H484    1.110   .     S
C464   H483    1.110   .     S
C465   H487    1.110   .     S
C465   N508    1.447   .     S
C465   H486    1.111   .     S
C465   H489    1.110   .     S
C466   H492    1.110   .     S
C466   N509    1.447   .     S
C466   H491    1.112   .     S
C466   H493    1.111   .     S
C467   O518    1.288   .     A
C467   O515    1.290   .     A
C468   N510    1.446   .     S
C468   H495    1.112   .     S
C468   H496    1.110   .     S
C468   H497    1.111   .     S
C469   O516    1.295   .     A
C469   O517    1.292   .     A
C470   N506    1.367   .     A
C470   H477    1.082   .     S
C471   N505    1.367   .     A
C471   H488    1.082   .     S
C471   C28     1.416   1_565 S
C472   H498    1.081   .     S
C472   N506    1.367   .     A
C473   H499    1.082   .     S
C473   N505    1.367   .     A
C473   C26     1.416   1_565 S
C474   H504    1.083   .     S
C474   C595    1.383   1_455 S
Cu475  N505    2.011   .     S
Cu475  O515    1.952   .     S
Cu475  O517    1.955   .     S
Cu475  O511    1.963   .     S
Cu475  O513    1.964   .     S
Cu475  Cu476   2.676   .     S
Cu476  N506    2.011   .     S
Cu476  O512    1.963   .     S
Cu476  O518    1.955   .     S
Cu476  O516    1.952   .     S
Cu476  O514    1.964   .     S
H481   N507    1.032   .     S
H485   N508    1.032   .     S
H490   N509    1.032   .     S
H494   N510    1.032   .     S
C519   O588    1.290   .     A
C519   C537    1.449   .     S
C519   O585    1.290   .     A
C520   C536    1.401   .     A
C520   H552    1.083   .     S
C520   C596    1.383   .     S
C521   H553    1.083   .     S
C521   C536    1.401   .     A
C521   C622    1.383   .     S
C522   H554    1.083   .     S
C522   C537    1.401   .     A
C523   C527    1.395   .     A
C523   C534    1.401   .     A
C523   H574    1.084   .     S
C524   C528    1.396   .     A
C524   H575    1.084   .     S
C524   C535    1.399   .     A
C525   H576    1.084   .     S
C525   C529    1.395   .     A
C525   C535    1.398   .     A
C526   C531    1.395   .     A
C526   C534    1.401   .     A
C526   H577    1.084   .     S
C527   C532    1.407   .     A
C527   N581    1.424   .     S
C528   C533    1.415   .     A
C528   N582    1.425   .     S
C529   N583    1.423   .     S
C529   C533    1.414   .     A
C530   O587    1.291   .     A
C530   C536    1.449   .     S
C530   O586    1.290   .     A
C531   C532    1.407   .     A
C531   N584    1.424   .     S
C532   C541    1.448   .     S
C533   C543    1.467   .     S
C534   C1201   1.466   1_554 S
C535   C1200   1.466   .     S
C537   C548    1.401   .     A
C538   H556    1.112   .     S
C538   N581    1.447   .     S
C538   H558    1.110   .     S
C538   H557    1.110   .     S
C539   H561    1.110   .     S
C539   N582    1.447   .     S
C539   H560    1.111   .     S
C539   H563    1.110   .     S
C540   H566    1.110   .     S
C540   N583    1.447   .     S
C540   H565    1.112   .     S
C540   H567    1.111   .     S
C541   O592    1.288   .     A
C541   O589    1.290   .     A
C542   N584    1.446   .     S
C542   H569    1.112   .     S
C542   H570    1.110   .     S
C542   H571    1.111   .     S
C543   O590    1.295   .     A
C543   O591    1.292   .     A
C544   N580    1.367   .     A
C544   H551    1.082   .     S
C545   N579    1.367   .     A
C545   H562    1.082   .     S
C545   C102    1.416   1_565 S
C546   H572    1.081   .     S
C546   N580    1.367   .     A
C547   H573    1.082   .     S
C547   N579    1.367   .     A
C547   C100    1.416   1_565 S
C548   H578    1.083   .     S
Cu549  N579    2.011   .     S
Cu549  O589    1.952   .     S
Cu549  O591    1.955   .     S
Cu549  O585    1.963   .     S
Cu549  O587    1.964   .     S
Cu549  Cu550   2.676   .     S
Cu550  N580    2.011   .     S
Cu550  O586    1.963   .     S
Cu550  O592    1.955   .     S
Cu550  O590    1.952   .     S
Cu550  O588    1.964   .     S
H555   N581    1.032   .     S
H559   N582    1.032   .     S
H564   N583    1.032   .     S
H568   N584    1.032   .     S
C593   O662    1.290   .     A
C593   C611    1.449   .     S
C593   O659    1.290   .     A
C594   C610    1.401   .     A
C594   H626    1.083   .     S
C594   C448    1.383   1_655 S
C595   H627    1.083   .     S
C595   C610    1.401   .     A
C595   C474    1.383   1_655 S
C596   H628    1.083   .     S
C596   C611    1.401   .     A
C597   C601    1.395   .     A
C597   C608    1.401   .     A
C597   H648    1.084   .     S
C598   C602    1.396   .     A
C598   H649    1.084   .     S
C598   C609    1.399   .     A
C599   H650    1.084   .     S
C599   C603    1.395   .     A
C599   C609    1.398   .     A
C600   C605    1.395   .     A
C600   C608    1.401   .     A
C600   H651    1.084   .     S
C601   C606    1.407   .     A
C601   N655    1.424   .     S
C602   C607    1.415   .     A
C602   N656    1.425   .     S
C603   N657    1.423   .     S
C603   C607    1.414   .     A
C604   O661    1.291   .     A
C604   C610    1.449   .     S
C604   O660    1.290   .     A
C605   C606    1.407   .     A
C605   N658    1.424   .     S
C606   C615    1.448   .     S
C607   C617    1.467   .     S
C608   C1275   1.466   1_554 S
C609   C1274   1.466   .     S
C611   C622    1.401   .     A
C612   H630    1.112   .     S
C612   N655    1.447   .     S
C612   H632    1.110   .     S
C612   H631    1.110   .     S
C613   H635    1.110   .     S
C613   N656    1.447   .     S
C613   H634    1.111   .     S
C613   H637    1.110   .     S
C614   H640    1.110   .     S
C614   N657    1.447   .     S
C614   H639    1.112   .     S
C614   H641    1.111   .     S
C615   O666    1.288   .     A
C615   O663    1.290   .     A
C616   N658    1.446   .     S
C616   H643    1.112   .     S
C616   H644    1.110   .     S
C616   H645    1.111   .     S
C617   O664    1.295   .     A
C617   O665    1.292   .     A
C618   N654    1.367   .     A
C618   H625    1.082   .     S
C619   N653    1.367   .     A
C619   H636    1.082   .     S
C619   C176    1.416   1_565 S
C620   H646    1.081   .     S
C620   N654    1.367   .     A
C621   H647    1.082   .     S
C621   N653    1.367   .     A
C621   C174    1.416   1_565 S
C622   H652    1.083   .     S
Cu623  N653    2.011   .     S
Cu623  O663    1.952   .     S
Cu623  O665    1.955   .     S
Cu623  O659    1.963   .     S
Cu623  O661    1.964   .     S
Cu623  Cu624   2.676   .     S
Cu624  N654    2.011   .     S
Cu624  O660    1.963   .     S
Cu624  O666    1.955   .     S
Cu624  O664    1.952   .     S
Cu624  O662    1.964   .     S
H629   N655    1.032   .     S
H633   N656    1.032   .     S
H638   N657    1.032   .     S
H642   N658    1.032   .     S
C667   O736    1.290   .     A
C667   C685    1.449   .     S
C667   O733    1.290   .     A
C668   C684    1.401   .     A
C668   H700    1.083   .     S
C668   C744    1.383   .     S
C669   H701    1.083   .     S
C669   C684    1.401   .     A
C669   C770    1.383   .     S
C670   H702    1.083   .     S
C670   C685    1.401   .     A
C670   C816    1.383   1_455 S
C671   C675    1.395   .     A
C671   C682    1.401   .     A
C671   H722    1.084   .     S
C672   C676    1.396   .     A
C672   H723    1.084   .     S
C672   C683    1.399   .     A
C673   H724    1.084   .     S
C673   C677    1.395   .     A
C673   C683    1.398   .     A
C674   C679    1.395   .     A
C674   C682    1.401   .     A
C674   H725    1.084   .     S
C675   C680    1.407   .     A
C675   N729    1.424   .     S
C676   C681    1.415   .     A
C676   N730    1.425   .     S
C677   N731    1.423   .     S
C677   C681    1.414   .     A
C678   O735    1.291   .     A
C678   C684    1.449   .     S
C678   O734    1.290   .     A
C679   C680    1.407   .     A
C679   N732    1.424   .     S
C680   C689    1.448   .     S
C681   C691    1.467   .     S
C683   C16     1.466   1_556 S
C685   C696    1.401   .     A
C686   H704    1.112   .     S
C686   N729    1.447   .     S
C686   H706    1.110   .     S
C686   H705    1.110   .     S
C687   H709    1.110   .     S
C687   N730    1.447   .     S
C687   H708    1.111   .     S
C687   H711    1.110   .     S
C688   H714    1.110   .     S
C688   N731    1.447   .     S
C688   H713    1.112   .     S
C688   H715    1.111   .     S
C689   O740    1.288   .     A
C689   O737    1.290   .     A
C690   N732    1.446   .     S
C690   H717    1.112   .     S
C690   H718    1.110   .     S
C690   H719    1.111   .     S
C691   O738    1.295   .     A
C691   O739    1.292   .     A
C692   N728    1.367   .     A
C692   H699    1.082   .     S
C692   C1139   1.416   1_545 S
C693   N727    1.367   .     A
C693   H710    1.082   .     S
C693   C916    1.416   .     S
C694   H720    1.081   .     S
C694   N728    1.367   .     A
C694   C1137   1.416   1_545 S
C695   H721    1.082   .     S
C695   N727    1.367   .     A
C695   C914    1.416   .     S
C696   H726    1.083   .     S
C696   C817    1.383   1_455 S
Cu697  N727    2.011   .     S
Cu697  O737    1.952   .     S
Cu697  O739    1.955   .     S
Cu697  O733    1.963   .     S
Cu697  O735    1.964   .     S
Cu697  Cu698   2.676   .     S
Cu698  N728    2.011   .     S
Cu698  O734    1.963   .     S
Cu698  O740    1.955   .     S
Cu698  O738    1.952   .     S
Cu698  O736    1.964   .     S
H703   N729    1.032   .     S
H707   N730    1.032   .     S
H712   N731    1.032   .     S
H716   N732    1.032   .     S
C741   O810    1.290   .     A
C741   C759    1.449   .     S
C741   O807    1.290   .     A
C742   C758    1.401   .     A
C742   H774    1.083   .     S
C742   C818    1.383   .     S
C743   H775    1.083   .     S
C743   C758    1.401   .     A
C743   C844    1.383   .     S
C744   H776    1.083   .     S
C744   C759    1.401   .     A
C745   C749    1.395   .     A
C745   C756    1.401   .     A
C745   H796    1.084   .     S
C746   C750    1.396   .     A
C746   H797    1.084   .     S
C746   C757    1.399   .     A
C747   H798    1.084   .     S
C747   C751    1.395   .     A
C747   C757    1.398   .     A
C748   C753    1.395   .     A
C748   C756    1.401   .     A
C748   H799    1.084   .     S
C749   C754    1.407   .     A
C749   N803    1.424   .     S
C750   C755    1.415   .     A
C750   N804    1.425   .     S
C751   N805    1.423   .     S
C751   C755    1.414   .     A
C752   O809    1.291   .     A
C752   C758    1.449   .     S
C752   O808    1.290   .     A
C753   C754    1.407   .     A
C753   N806    1.424   .     S
C754   C763    1.448   .     S
C755   C765    1.467   .     S
C757   C90     1.466   1_556 S
C759   C770    1.401   .     A
C760   H778    1.112   .     S
C760   N803    1.447   .     S
C760   H780    1.110   .     S
C760   H779    1.110   .     S
C761   H783    1.110   .     S
C761   N804    1.447   .     S
C761   H782    1.111   .     S
C761   H785    1.110   .     S
C762   H788    1.110   .     S
C762   N805    1.447   .     S
C762   H787    1.112   .     S
C762   H789    1.111   .     S
C763   O814    1.288   .     A
C763   O811    1.290   .     A
C764   N806    1.446   .     S
C764   H791    1.112   .     S
C764   H792    1.110   .     S
C764   H793    1.111   .     S
C765   O812    1.295   .     A
C765   O813    1.292   .     A
C766   N802    1.367   .     A
C766   H773    1.082   .     S
C766   C1213   1.416   1_545 S
C767   N801    1.367   .     A
C767   H784    1.082   .     S
C767   C990    1.416   .     S
C768   H794    1.081   .     S
C768   N802    1.367   .     A
C768   C1211   1.416   1_545 S
C769   H795    1.082   .     S
C769   N801    1.367   .     A
C769   C988    1.416   .     S
C770   H800    1.083   .     S
Cu771  N801    2.011   .     S
Cu771  O811    1.952   .     S
Cu771  O813    1.955   .     S
Cu771  O807    1.963   .     S
Cu771  O809    1.964   .     S
Cu771  Cu772   2.676   .     S
Cu772  N802    2.011   .     S
Cu772  O808    1.963   .     S
Cu772  O814    1.955   .     S
Cu772  O812    1.952   .     S
Cu772  O810    1.964   .     S
H777   N803    1.032   .     S
H781   N804    1.032   .     S
H786   N805    1.032   .     S
H790   N806    1.032   .     S
C815   O884    1.290   .     A
C815   C833    1.449   .     S
C815   O881    1.290   .     A
C816   C832    1.401   .     A
C816   H848    1.083   .     S
C816   C670    1.383   1_655 S
C817   H849    1.083   .     S
C817   C832    1.401   .     A
C817   C696    1.383   1_655 S
C818   H850    1.083   .     S
C818   C833    1.401   .     A
C819   C823    1.395   .     A
C819   C830    1.401   .     A
C819   H870    1.084   .     S
C820   C824    1.396   .     A
C820   H871    1.084   .     S
C820   C831    1.399   .     A
C821   H872    1.084   .     S
C821   C825    1.395   .     A
C821   C831    1.398   .     A
C822   C827    1.395   .     A
C822   C830    1.401   .     A
C822   H873    1.084   .     S
C823   C828    1.407   .     A
C823   N877    1.424   .     S
C824   C829    1.415   .     A
C824   N878    1.425   .     S
C825   N879    1.423   .     S
C825   C829    1.414   .     A
C826   O883    1.291   .     A
C826   C832    1.449   .     S
C826   O882    1.290   .     A
C827   C828    1.407   .     A
C827   N880    1.424   .     S
C828   C837    1.448   .     S
C829   C839    1.467   .     S
C831   C164    1.466   1_556 S
C833   C844    1.401   .     A
C834   H852    1.112   .     S
C834   N877    1.447   .     S
C834   H854    1.110   .     S
C834   H853    1.110   .     S
C835   H857    1.110   .     S
C835   N878    1.447   .     S
C835   H856    1.111   .     S
C835   H859    1.110   .     S
C836   H862    1.110   .     S
C836   N879    1.447   .     S
C836   H861    1.112   .     S
C836   H863    1.111   .     S
C837   O888    1.288   .     A
C837   O885    1.290   .     A
C838   N880    1.446   .     S
C838   H865    1.112   .     S
C838   H866    1.110   .     S
C838   H867    1.111   .     S
C839   O886    1.295   .     A
C839   O887    1.292   .     A
C840   N876    1.367   .     A
C840   H847    1.082   .     S
C840   C1287   1.416   1_545 S
C841   N875    1.367   .     A
C841   H858    1.082   .     S
C841   C1064   1.416   .     S
C842   H868    1.081   .     S
C842   N876    1.367   .     A
C842   C1285   1.416   1_545 S
C843   H869    1.082   .     S
C843   N875    1.367   .     A
C843   C1062   1.416   .     S
C844   H874    1.083   .     S
Cu845  N875    2.011   .     S
Cu845  O885    1.952   .     S
Cu845  O887    1.955   .     S
Cu845  O881    1.963   .     S
Cu845  O883    1.964   .     S
Cu845  Cu846   2.676   .     S
Cu846  N876    2.011   .     S
Cu846  O882    1.963   .     S
Cu846  O888    1.955   .     S
Cu846  O886    1.952   .     S
Cu846  O884    1.964   .     S
H851   N877    1.032   .     S
H855   N878    1.032   .     S
H860   N879    1.032   .     S
H864   N880    1.032   .     S
C889   O958    1.290   .     A
C889   C907    1.449   .     S
C889   O955    1.290   .     A
C890   C906    1.401   .     A
C890   H922    1.083   .     S
C890   C966    1.383   .     S
C891   H923    1.083   .     S
C891   C906    1.401   .     A
C891   C992    1.383   .     S
C892   H924    1.083   .     S
C892   C907    1.401   .     A
C892   C1038   1.383   1_455 S
C893   C897    1.395   .     A
C893   C904    1.401   .     A
C893   H944    1.084   .     S
C894   C898    1.396   .     A
C894   H945    1.084   .     S
C894   C905    1.399   .     A
C895   H946    1.084   .     S
C895   C899    1.395   .     A
C895   C905    1.398   .     A
C896   C901    1.395   .     A
C896   C904    1.401   .     A
C896   H947    1.084   .     S
C897   C902    1.407   .     A
C897   N951    1.424   .     S
C898   C903    1.415   .     A
C898   N952    1.425   .     S
C899   N953    1.423   .     S
C899   C903    1.414   .     A
C900   O957    1.291   .     A
C900   C906    1.449   .     S
C900   O956    1.290   .     A
C901   C902    1.407   .     A
C901   N954    1.424   .     S
C902   C911    1.448   .     S
C903   C913    1.467   .     S
C905   C238    1.466   1_556 S
C907   C918    1.401   .     A
C908   H926    1.112   .     S
C908   N951    1.447   .     S
C908   H928    1.110   .     S
C908   H927    1.110   .     S
C909   H931    1.110   .     S
C909   N952    1.447   .     S
C909   H930    1.111   .     S
C909   H933    1.110   .     S
C910   H936    1.110   .     S
C910   N953    1.447   .     S
C910   H935    1.112   .     S
C910   H937    1.111   .     S
C911   O962    1.288   .     A
C911   O959    1.290   .     A
C912   N954    1.446   .     S
C912   H939    1.112   .     S
C912   H940    1.110   .     S
C912   H941    1.111   .     S
C913   O960    1.295   .     A
C913   O961    1.292   .     A
C914   N950    1.367   .     A
C914   H921    1.082   .     S
C915   N949    1.367   .     A
C915   H932    1.082   .     S
C915   C1138   1.416   .     S
C916   H942    1.081   .     S
C916   N950    1.367   .     A
C917   H943    1.082   .     S
C917   N949    1.367   .     A
C917   C1136   1.416   .     S
C918   H948    1.083   .     S
C918   C1039   1.383   1_455 S
Cu919  N949    2.011   .     S
Cu919  O959    1.952   .     S
Cu919  O961    1.955   .     S
Cu919  O955    1.963   .     S
Cu919  O957    1.964   .     S
Cu919  Cu920   2.676   .     S
Cu920  N950    2.011   .     S
Cu920  O956    1.963   .     S
Cu920  O962    1.955   .     S
Cu920  O960    1.952   .     S
Cu920  O958    1.964   .     S
H925   N951    1.032   .     S
H929   N952    1.032   .     S
H934   N953    1.032   .     S
H938   N954    1.032   .     S
C963   O1032   1.290   .     A
C963   C981    1.449   .     S
C963   O1029   1.290   .     A
C964   C980    1.401   .     A
C964   H996    1.083   .     S
C964   C1040   1.383   .     S
C965   H997    1.083   .     S
C965   C980    1.401   .     A
C965   C1066   1.383   .     S
C966   H998    1.083   .     S
C966   C981    1.401   .     A
C967   C971    1.395   .     A
C967   C978    1.401   .     A
C967   H1018   1.084   .     S
C968   C972    1.396   .     A
C968   H1019   1.084   .     S
C968   C979    1.399   .     A
C969   H1020   1.084   .     S
C969   C973    1.395   .     A
C969   C979    1.398   .     A
C970   C975    1.395   .     A
C970   C978    1.401   .     A
C970   H1021   1.084   .     S
C971   C976    1.407   .     A
C971   N1025   1.424   .     S
C972   C977    1.415   .     A
C972   N1026   1.425   .     S
C973   N1027   1.423   .     S
C973   C977    1.414   .     A
C974   O1031   1.291   .     A
C974   C980    1.449   .     S
C974   O1030   1.290   .     A
C975   C976    1.407   .     A
C975   N1028   1.424   .     S
C976   C985    1.448   .     S
C977   C987    1.467   .     S
C979   C312    1.466   1_556 S
C981   C992    1.401   .     A
C982   H1000   1.112   .     S
C982   N1025   1.447   .     S
C982   H1002   1.110   .     S
C982   H1001   1.110   .     S
C983   H1005   1.110   .     S
C983   N1026   1.447   .     S
C983   H1004   1.111   .     S
C983   H1007   1.110   .     S
C984   H1010   1.110   .     S
C984   N1027   1.447   .     S
C984   H1009   1.112   .     S
C984   H1011   1.111   .     S
C985   O1036   1.288   .     A
C985   O1033   1.290   .     A
C986   N1028   1.446   .     S
C986   H1013   1.112   .     S
C986   H1014   1.110   .     S
C986   H1015   1.111   .     S
C987   O1034   1.295   .     A
C987   O1035   1.292   .     A
C988   N1024   1.367   .     A
C988   H995    1.082   .     S
C989   N1023   1.367   .     A
C989   H1006   1.082   .     S
C989   C1212   1.416   .     S
C990   H1016   1.081   .     S
C990   N1024   1.367   .     A
C991   H1017   1.082   .     S
C991   N1023   1.367   .     A
C991   C1210   1.416   .     S
C992   H1022   1.083   .     S
Cu993  N1023   2.011   .     S
Cu993  O1033   1.952   .     S
Cu993  O1035   1.955   .     S
Cu993  O1029   1.963   .     S
Cu993  O1031   1.964   .     S
Cu993  Cu994   2.676   .     S
Cu994  N1024   2.011   .     S
Cu994  O1030   1.963   .     S
Cu994  O1036   1.955   .     S
Cu994  O1034   1.952   .     S
Cu994  O1032   1.964   .     S
H999   N1025   1.032   .     S
H1003  N1026   1.032   .     S
H1008  N1027   1.032   .     S
H1012  N1028   1.032   .     S
C1037  O1106   1.290   .     A
C1037  C1055   1.449   .     S
C1037  O1103   1.290   .     A
C1038  C1054   1.401   .     A
C1038  H1070   1.083   .     S
C1038  C892    1.383   1_655 S
C1039  H1071   1.083   .     S
C1039  C1054   1.401   .     A
C1039  C918    1.383   1_655 S
C1040  H1072   1.083   .     S
C1040  C1055   1.401   .     A
C1041  C1045   1.395   .     A
C1041  C1052   1.401   .     A
C1041  H1092   1.084   .     S
C1042  C1046   1.396   .     A
C1042  H1093   1.084   .     S
C1042  C1053   1.399   .     A
C1043  H1094   1.084   .     S
C1043  C1047   1.395   .     A
C1043  C1053   1.398   .     A
C1044  C1049   1.395   .     A
C1044  C1052   1.401   .     A
C1044  H1095   1.084   .     S
C1045  C1050   1.407   .     A
C1045  N1099   1.424   .     S
C1046  C1051   1.415   .     A
C1046  N1100   1.425   .     S
C1047  N1101   1.423   .     S
C1047  C1051   1.414   .     A
C1048  O1105   1.291   .     A
C1048  C1054   1.449   .     S
C1048  O1104   1.290   .     A
C1049  C1050   1.407   .     A
C1049  N1102   1.424   .     S
C1050  C1059   1.448   .     S
C1051  C1061   1.467   .     S
C1053  C386    1.466   1_556 S
C1055  C1066   1.401   .     A
C1056  H1074   1.112   .     S
C1056  N1099   1.447   .     S
C1056  H1076   1.110   .     S
C1056  H1075   1.110   .     S
C1057  H1079   1.110   .     S
C1057  N1100   1.447   .     S
C1057  H1078   1.111   .     S
C1057  H1081   1.110   .     S
C1058  H1084   1.110   .     S
C1058  N1101   1.447   .     S
C1058  H1083   1.112   .     S
C1058  H1085   1.111   .     S
C1059  O1110   1.288   .     A
C1059  O1107   1.290   .     A
C1060  N1102   1.446   .     S
C1060  H1087   1.112   .     S
C1060  H1088   1.110   .     S
C1060  H1089   1.111   .     S
C1061  O1108   1.295   .     A
C1061  O1109   1.292   .     A
C1062  N1098   1.367   .     A
C1062  H1069   1.082   .     S
C1063  N1097   1.367   .     A
C1063  H1080   1.082   .     S
C1063  C1286   1.416   .     S
C1064  H1090   1.081   .     S
C1064  N1098   1.367   .     A
C1065  H1091   1.082   .     S
C1065  N1097   1.367   .     A
C1065  C1284   1.416   .     S
C1066  H1096   1.083   .     S
Cu1067 N1097   2.011   .     S
Cu1067 O1107   1.952   .     S
Cu1067 O1109   1.955   .     S
Cu1067 O1103   1.963   .     S
Cu1067 O1105   1.964   .     S
Cu1067 Cu1068  2.676   .     S
Cu1068 N1098   2.011   .     S
Cu1068 O1104   1.963   .     S
Cu1068 O1110   1.955   .     S
Cu1068 O1108   1.952   .     S
Cu1068 O1106   1.964   .     S
H1073  N1099   1.032   .     S
H1077  N1100   1.032   .     S
H1082  N1101   1.032   .     S
H1086  N1102   1.032   .     S
C1111  O1180   1.290   .     A
C1111  C1129   1.449   .     S
C1111  O1177   1.290   .     A
C1112  C1128   1.401   .     A
C1112  H1144   1.083   .     S
C1112  C1188   1.383   .     S
C1113  H1145   1.083   .     S
C1113  C1128   1.401   .     A
C1113  C1214   1.383   .     S
C1114  H1146   1.083   .     S
C1114  C1129   1.401   .     A
C1114  C1260   1.383   1_455 S
C1115  C1119   1.395   .     A
C1115  C1126   1.401   .     A
C1115  H1166   1.084   .     S
C1116  C1120   1.396   .     A
C1116  H1167   1.084   .     S
C1116  C1127   1.399   .     A
C1117  H1168   1.084   .     S
C1117  C1121   1.395   .     A
C1117  C1127   1.398   .     A
C1118  C1123   1.395   .     A
C1118  C1126   1.401   .     A
C1118  H1169   1.084   .     S
C1119  C1124   1.407   .     A
C1119  N1173   1.424   .     S
C1120  C1125   1.415   .     A
C1120  N1174   1.425   .     S
C1121  N1175   1.423   .     S
C1121  C1125   1.414   .     A
C1122  O1179   1.291   .     A
C1122  C1128   1.449   .     S
C1122  O1178   1.290   .     A
C1123  C1124   1.407   .     A
C1123  N1176   1.424   .     S
C1124  C1133   1.448   .     S
C1125  C1135   1.467   .     S
C1127  C460    1.466   1_556 S
C1129  C1140   1.401   .     A
C1130  H1148   1.112   .     S
C1130  N1173   1.447   .     S
C1130  H1150   1.110   .     S
C1130  H1149   1.110   .     S
C1131  H1153   1.110   .     S
C1131  N1174   1.447   .     S
C1131  H1152   1.111   .     S
C1131  H1155   1.110   .     S
C1132  H1158   1.110   .     S
C1132  N1175   1.447   .     S
C1132  H1157   1.112   .     S
C1132  H1159   1.111   .     S
C1133  O1184   1.288   .     A
C1133  O1181   1.290   .     A
C1134  N1176   1.446   .     S
C1134  H1161   1.112   .     S
C1134  H1162   1.110   .     S
C1134  H1163   1.111   .     S
C1135  O1182   1.295   .     A
C1135  O1183   1.292   .     A
C1136  N1172   1.367   .     A
C1136  H1143   1.082   .     S
C1137  N1171   1.367   .     A
C1137  H1154   1.082   .     S
C1137  C694    1.416   1_565 S
C1138  H1164   1.081   .     S
C1138  N1172   1.367   .     A
C1139  H1165   1.082   .     S
C1139  N1171   1.367   .     A
C1139  C692    1.416   1_565 S
C1140  H1170   1.083   .     S
C1140  C1261   1.383   1_455 S
Cu1141 N1171   2.011   .     S
Cu1141 O1181   1.952   .     S
Cu1141 O1183   1.955   .     S
Cu1141 O1177   1.963   .     S
Cu1141 O1179   1.964   .     S
Cu1141 Cu1142  2.676   .     S
Cu1142 N1172   2.011   .     S
Cu1142 O1178   1.963   .     S
Cu1142 O1184   1.955   .     S
Cu1142 O1182   1.952   .     S
Cu1142 O1180   1.964   .     S
H1147  N1173   1.032   .     S
H1151  N1174   1.032   .     S
H1156  N1175   1.032   .     S
H1160  N1176   1.032   .     S
C1185  O1254   1.290   .     A
C1185  C1203   1.449   .     S
C1185  O1251   1.290   .     A
C1186  C1202   1.401   .     A
C1186  H1218   1.083   .     S
C1186  C1262   1.383   .     S
C1187  H1219   1.083   .     S
C1187  C1202   1.401   .     A
C1187  C1288   1.383   .     S
C1188  H1220   1.083   .     S
C1188  C1203   1.401   .     A
C1189  C1193   1.395   .     A
C1189  C1200   1.401   .     A
C1189  H1240   1.084   .     S
C1190  C1194   1.396   .     A
C1190  H1241   1.084   .     S
C1190  C1201   1.399   .     A
C1191  H1242   1.084   .     S
C1191  C1195   1.395   .     A
C1191  C1201   1.398   .     A
C1192  C1197   1.395   .     A
C1192  C1200   1.401   .     A
C1192  H1243   1.084   .     S
C1193  C1198   1.407   .     A
C1193  N1247   1.424   .     S
C1194  C1199   1.415   .     A
C1194  N1248   1.425   .     S
C1195  N1249   1.423   .     S
C1195  C1199   1.414   .     A
C1196  O1253   1.291   .     A
C1196  C1202   1.449   .     S
C1196  O1252   1.290   .     A
C1197  C1198   1.407   .     A
C1197  N1250   1.424   .     S
C1198  C1207   1.448   .     S
C1199  C1209   1.467   .     S
C1201  C534    1.466   1_556 S
C1203  C1214   1.401   .     A
C1204  H1222   1.112   .     S
C1204  N1247   1.447   .     S
C1204  H1224   1.110   .     S
C1204  H1223   1.110   .     S
C1205  H1227   1.110   .     S
C1205  N1248   1.447   .     S
C1205  H1226   1.111   .     S
C1205  H1229   1.110   .     S
C1206  H1232   1.110   .     S
C1206  N1249   1.447   .     S
C1206  H1231   1.112   .     S
C1206  H1233   1.111   .     S
C1207  O1258   1.288   .     A
C1207  O1255   1.290   .     A
C1208  N1250   1.446   .     S
C1208  H1235   1.112   .     S
C1208  H1236   1.110   .     S
C1208  H1237   1.111   .     S
C1209  O1256   1.295   .     A
C1209  O1257   1.292   .     A
C1210  N1246   1.367   .     A
C1210  H1217   1.082   .     S
C1211  N1245   1.367   .     A
C1211  H1228   1.082   .     S
C1211  C768    1.416   1_565 S
C1212  H1238   1.081   .     S
C1212  N1246   1.367   .     A
C1213  H1239   1.082   .     S
C1213  N1245   1.367   .     A
C1213  C766    1.416   1_565 S
C1214  H1244   1.083   .     S
Cu1215 N1245   2.011   .     S
Cu1215 O1255   1.952   .     S
Cu1215 O1257   1.955   .     S
Cu1215 O1251   1.963   .     S
Cu1215 O1253   1.964   .     S
Cu1215 Cu1216  2.676   .     S
Cu1216 N1246   2.011   .     S
Cu1216 O1252   1.963   .     S
Cu1216 O1258   1.955   .     S
Cu1216 O1256   1.952   .     S
Cu1216 O1254   1.964   .     S
H1221  N1247   1.032   .     S
H1225  N1248   1.032   .     S
H1230  N1249   1.032   .     S
H1234  N1250   1.032   .     S
C1259  O1328   1.290   .     A
C1259  C1277   1.449   .     S
C1259  O1325   1.290   .     A
C1260  C1276   1.401   .     A
C1260  H1292   1.083   .     S
C1260  C1114   1.383   1_655 S
C1261  H1293   1.083   .     S
C1261  C1276   1.401   .     A
C1261  C1140   1.383   1_655 S
C1262  H1294   1.083   .     S
C1262  C1277   1.401   .     A
C1263  C1267   1.395   .     A
C1263  C1274   1.401   .     A
C1263  H1314   1.084   .     S
C1264  C1268   1.396   .     A
C1264  H1315   1.084   .     S
C1264  C1275   1.399   .     A
C1265  H1316   1.084   .     S
C1265  C1269   1.395   .     A
C1265  C1275   1.398   .     A
C1266  C1271   1.395   .     A
C1266  C1274   1.401   .     A
C1266  H1317   1.084   .     S
C1267  C1272   1.407   .     A
C1267  N1321   1.424   .     S
C1268  C1273   1.415   .     A
C1268  N1322   1.425   .     S
C1269  N1323   1.423   .     S
C1269  C1273   1.414   .     A
C1270  O1327   1.291   .     A
C1270  C1276   1.449   .     S
C1270  O1326   1.290   .     A
C1271  C1272   1.407   .     A
C1271  N1324   1.424   .     S
C1272  C1281   1.448   .     S
C1273  C1283   1.467   .     S
C1275  C608    1.466   1_556 S
C1277  C1288   1.401   .     A
C1278  H1296   1.112   .     S
C1278  N1321   1.447   .     S
C1278  H1298   1.110   .     S
C1278  H1297   1.110   .     S
C1279  H1301   1.110   .     S
C1279  N1322   1.447   .     S
C1279  H1300   1.111   .     S
C1279  H1303   1.110   .     S
C1280  H1306   1.110   .     S
C1280  N1323   1.447   .     S
C1280  H1305   1.112   .     S
C1280  H1307   1.111   .     S
C1281  O1332   1.288   .     A
C1281  O1329   1.290   .     A
C1282  N1324   1.446   .     S
C1282  H1309   1.112   .     S
C1282  H1310   1.110   .     S
C1282  H1311   1.111   .     S
C1283  O1330   1.295   .     A
C1283  O1331   1.292   .     A
C1284  N1320   1.367   .     A
C1284  H1291   1.082   .     S
C1285  N1319   1.367   .     A
C1285  H1302   1.082   .     S
C1285  C842    1.416   1_565 S
C1286  H1312   1.081   .     S
C1286  N1320   1.367   .     A
C1287  H1313   1.082   .     S
C1287  N1319   1.367   .     A
C1287  C840    1.416   1_565 S
C1288  H1318   1.083   .     S
Cu1289 N1319   2.011   .     S
Cu1289 O1329   1.952   .     S
Cu1289 O1331   1.955   .     S
Cu1289 O1325   1.963   .     S
Cu1289 O1327   1.964   .     S
Cu1289 Cu1290  2.676   .     S
Cu1290 N1320   2.011   .     S
Cu1290 O1326   1.963   .     S
Cu1290 O1332   1.955   .     S
Cu1290 O1330   1.952   .     S
Cu1290 O1328   1.964   .     S
H1295  N1321   1.032   .     S
H1299  N1322   1.032   .     S
H1304  N1323   1.032   .     S
H1308  N1324   1.032   .     S
