data_str_m2_o10_o16_pcu_sym.8
_audit_creation_date              2020-01-03
_audit_creation_method            'Materials Studio'
_symmetry_space_group_name_H-M    'P1'
_symmetry_Int_Tables_number       1
_symmetry_cell_setting            triclinic
loop_
_symmetry_equiv_pos_as_xyz
  x,y,z
_cell_length_a                    22.6585
_cell_length_b                    26.1789
_cell_length_c                    26.7283
_cell_angle_alpha                 96.2450
_cell_angle_beta                  77.7225
_cell_angle_gamma                 103.7376
loop_
_atom_site_label
_atom_site_type_symbol
_atom_site_fract_x
_atom_site_fract_y
_atom_site_fract_z
_atom_site_U_iso_or_equiv
_atom_site_adp_type
_atom_site_occupancy
O1     O     0.12797   0.23807   0.24633   0.00000  Uiso   1.00
O2     O     0.22858   0.24755   0.25587   0.00000  Uiso   1.00
C3     C     0.18223   0.26656   0.25005   0.00000  Uiso   1.00
O4     O     0.09181   0.15960   0.31840   0.00000  Uiso   1.00
O5     O     0.19242   0.16908   0.32793   0.00000  Uiso   1.00
C6     C     0.13349   0.16507   0.34704   0.00000  Uiso   1.00
Cu7    Cu    0.10710   0.16105   0.24436   0.00000  Uiso   1.00
Cu8    Cu    0.22623   0.17228   0.25565   0.00000  Uiso   1.00
O9     O     0.10476   0.08578   0.24414   0.00000  Uiso   1.00
O10    O     0.20536   0.09526   0.25367   0.00000  Uiso   1.00
O11    O     0.14092   0.16425   0.17207   0.00000  Uiso   1.00
O12    O     0.24152   0.17373   0.18161   0.00000  Uiso   1.00
C13    C     0.15198   0.06669   0.24670   0.00000  Uiso   1.00
C14    C     0.20016   0.17119   0.15331   0.00000  Uiso   1.00
C15    C     0.28613   0.23535   0.03195   0.00000  Uiso   1.00
H16    H     0.30788   0.23383   0.10582   0.00000  Uiso   1.00
H17    H     0.29249   0.26923   0.44036   0.00000  Uiso   1.00
H18    H     0.32871   0.26364   0.01886   0.00000  Uiso   1.00
C19    C     0.21987   0.18169   0.09897   0.00000  Uiso   1.00
C20    C     0.05500   0.12960   0.42136   0.00000  Uiso   1.00
C21    C     0.03805   0.11777   0.47247   0.00000  Uiso   1.00
C22    C     0.08001   0.13491   0.00512   0.00000  Uiso   1.00
C23    C     0.13951   0.16664   0.48765   0.00000  Uiso   1.00
C24    C     0.15359   0.18388   0.43712   0.00000  Uiso   1.00
C25    C     0.18528   0.18226   0.01875   0.00000  Uiso   1.00
C26    C     0.24123   0.21889   0.00110   0.00000  Uiso   1.00
C27    C     0.25098   0.23983   0.45354   0.00000  Uiso   1.00
C28    C     0.20759   0.22303   0.42221   0.00000  Uiso   1.00
C29    C     0.17722   0.16247   0.06697   0.00000  Uiso   1.00
C30    C     0.27502   0.21752   0.08107   0.00000  Uiso   1.00
C31    C     0.11302   0.16161   0.40284   0.00000  Uiso   1.00
H32    H     0.13725   0.13279   0.08135   0.00000  Uiso   1.00
H33    H     0.02346   0.11190   0.39587   0.00000  Uiso   1.00
H34    H     0.06392   0.12331   0.04395   0.00000  Uiso   1.00
H35    H     0.32626   0.09335   0.48644   0.00000  Uiso   1.00
H36    H     0.21659   0.24174   0.38641   0.00000  Uiso   1.00
C37    C     0.18946   0.32266   0.25054   0.00000  Uiso   1.00
H38    H     0.22868   0.01354   0.26558   0.00000  Uiso   1.00
C39    C     0.14630   0.01068   0.23806   0.00000  Uiso   1.00
N40    N     0.31574   0.18074   0.26416   0.00000  Uiso   1.00
N41    N     0.01759   0.15259   0.23584   0.00000  Uiso   1.00
N42    N     0.09809   0.31409   0.21222   0.00000  Uiso   1.00
O43    O     0.04093   0.31800   0.22880   0.00000  Uiso   1.00
O44    O     0.11261   0.28894   0.16822   0.00000  Uiso   1.00
N45    N     0.32958   0.19716   0.31214   0.00000  Uiso   1.00
O46    O     0.01890   0.24680   0.32218   0.00000  Uiso   1.00
O47    O     0.30467   0.16694   0.35005   0.00000  Uiso   1.00
S48    S     0.00761   0.12334   0.17549   0.00000  Uiso   1.00
O49    O     0.27803   0.08970   0.17345   0.00000  Uiso   1.00
O50    O     0.02367   0.16536   0.13774   0.00000  Uiso   1.00
O51    O     0.05644   0.08250   0.15664   0.00000  Uiso   1.00
H52    H     0.04656   0.06497   0.12373   0.00000  Uiso   1.00
O53    O     0.46131   0.23807   0.24633   0.00000  Uiso   1.00
O54    O     0.56191   0.24755   0.25587   0.00000  Uiso   1.00
C55    C     0.51556   0.26656   0.25005   0.00000  Uiso   1.00
O56    O     0.42515   0.15960   0.31840   0.00000  Uiso   1.00
O57    O     0.52575   0.16908   0.32793   0.00000  Uiso   1.00
C58    C     0.46682   0.16507   0.34704   0.00000  Uiso   1.00
Cu59   Cu    0.44043   0.16105   0.24436   0.00000  Uiso   1.00
Cu60   Cu    0.55957   0.17228   0.25565   0.00000  Uiso   1.00
O61    O     0.43809   0.08578   0.24414   0.00000  Uiso   1.00
O62    O     0.53869   0.09526   0.25367   0.00000  Uiso   1.00
O63    O     0.47425   0.16425   0.17207   0.00000  Uiso   1.00
O64    O     0.57485   0.17373   0.18161   0.00000  Uiso   1.00
C65    C     0.48532   0.06669   0.24670   0.00000  Uiso   1.00
C66    C     0.53350   0.17119   0.15331   0.00000  Uiso   1.00
C67    C     0.61947   0.23535   0.03195   0.00000  Uiso   1.00
H68    H     0.64121   0.23383   0.10582   0.00000  Uiso   1.00
H69    H     0.62582   0.26923   0.44036   0.00000  Uiso   1.00
H70    H     0.66204   0.26364   0.01886   0.00000  Uiso   1.00
C71    C     0.55321   0.18169   0.09897   0.00000  Uiso   1.00
C72    C     0.38833   0.12960   0.42136   0.00000  Uiso   1.00
C73    C     0.37139   0.11777   0.47247   0.00000  Uiso   1.00
C74    C     0.41334   0.13491   0.00512   0.00000  Uiso   1.00
C75    C     0.47284   0.16664   0.48765   0.00000  Uiso   1.00
C76    C     0.48692   0.18388   0.43712   0.00000  Uiso   1.00
C77    C     0.51862   0.18226   0.01875   0.00000  Uiso   1.00
C78    C     0.57457   0.21889   0.00110   0.00000  Uiso   1.00
C79    C     0.58431   0.23983   0.45354   0.00000  Uiso   1.00
C80    C     0.54093   0.22303   0.42221   0.00000  Uiso   1.00
C81    C     0.51055   0.16247   0.06697   0.00000  Uiso   1.00
C82    C     0.60836   0.21752   0.08107   0.00000  Uiso   1.00
C83    C     0.44635   0.16161   0.40284   0.00000  Uiso   1.00
H84    H     0.47058   0.13279   0.08135   0.00000  Uiso   1.00
H85    H     0.35679   0.11190   0.39587   0.00000  Uiso   1.00
H86    H     0.39725   0.12331   0.04395   0.00000  Uiso   1.00
H87    H     0.65959   0.09335   0.48644   0.00000  Uiso   1.00
H88    H     0.54992   0.24174   0.38641   0.00000  Uiso   1.00
C89    C     0.52279   0.32266   0.25054   0.00000  Uiso   1.00
H90    H     0.56201   0.01354   0.26558   0.00000  Uiso   1.00
C91    C     0.47963   0.01068   0.23806   0.00000  Uiso   1.00
N92    N     0.64908   0.18074   0.26416   0.00000  Uiso   1.00
N93    N     0.35092   0.15259   0.23584   0.00000  Uiso   1.00
N94    N     0.43142   0.31409   0.21222   0.00000  Uiso   1.00
O95    O     0.37426   0.31800   0.22880   0.00000  Uiso   1.00
O96    O     0.44595   0.28894   0.16822   0.00000  Uiso   1.00
N97    N     0.66292   0.19716   0.31214   0.00000  Uiso   1.00
O98    O     0.35224   0.24680   0.32218   0.00000  Uiso   1.00
O99    O     0.63800   0.16694   0.35005   0.00000  Uiso   1.00
S100   S     0.34095   0.12334   0.17549   0.00000  Uiso   1.00
O101   O     0.61137   0.08970   0.17345   0.00000  Uiso   1.00
O102   O     0.35700   0.16536   0.13774   0.00000  Uiso   1.00
O103   O     0.38978   0.08250   0.15664   0.00000  Uiso   1.00
H104   H     0.37990   0.06497   0.12373   0.00000  Uiso   1.00
O105   O     0.79464   0.23807   0.24633   0.00000  Uiso   1.00
O106   O     0.89524   0.24755   0.25587   0.00000  Uiso   1.00
C107   C     0.84890   0.26656   0.25005   0.00000  Uiso   1.00
O108   O     0.75848   0.15960   0.31840   0.00000  Uiso   1.00
O109   O     0.85908   0.16908   0.32793   0.00000  Uiso   1.00
C110   C     0.80015   0.16507   0.34704   0.00000  Uiso   1.00
Cu111  Cu    0.77377   0.16105   0.24436   0.00000  Uiso   1.00
Cu112  Cu    0.89290   0.17228   0.25565   0.00000  Uiso   1.00
O113   O     0.77142   0.08578   0.24414   0.00000  Uiso   1.00
O114   O     0.87203   0.09526   0.25367   0.00000  Uiso   1.00
O115   O     0.80758   0.16425   0.17207   0.00000  Uiso   1.00
O116   O     0.90819   0.17373   0.18161   0.00000  Uiso   1.00
C117   C     0.81865   0.06669   0.24670   0.00000  Uiso   1.00
C118   C     0.86683   0.17119   0.15331   0.00000  Uiso   1.00
C119   C     0.95280   0.23535   0.03195   0.00000  Uiso   1.00
H120   H     0.97455   0.23383   0.10582   0.00000  Uiso   1.00
H121   H     0.95915   0.26923   0.44036   0.00000  Uiso   1.00
H122   H     0.99537   0.26364   0.01886   0.00000  Uiso   1.00
C123   C     0.88654   0.18169   0.09897   0.00000  Uiso   1.00
C124   C     0.72167   0.12960   0.42136   0.00000  Uiso   1.00
C125   C     0.70472   0.11777   0.47247   0.00000  Uiso   1.00
C126   C     0.74667   0.13491   0.00512   0.00000  Uiso   1.00
C127   C     0.80618   0.16664   0.48765   0.00000  Uiso   1.00
C128   C     0.82026   0.18388   0.43712   0.00000  Uiso   1.00
C129   C     0.85195   0.18226   0.01875   0.00000  Uiso   1.00
C130   C     0.90790   0.21889   0.00110   0.00000  Uiso   1.00
C131   C     0.91765   0.23983   0.45354   0.00000  Uiso   1.00
C132   C     0.87426   0.22303   0.42221   0.00000  Uiso   1.00
C133   C     0.84389   0.16247   0.06697   0.00000  Uiso   1.00
C134   C     0.94169   0.21752   0.08107   0.00000  Uiso   1.00
C135   C     0.77969   0.16161   0.40284   0.00000  Uiso   1.00
H136   H     0.80392   0.13279   0.08135   0.00000  Uiso   1.00
H137   H     0.69012   0.11190   0.39587   0.00000  Uiso   1.00
H138   H     0.73058   0.12331   0.04395   0.00000  Uiso   1.00
H139   H     0.99293   0.09335   0.48644   0.00000  Uiso   1.00
H140   H     0.88326   0.24174   0.38641   0.00000  Uiso   1.00
C141   C     0.85613   0.32266   0.25054   0.00000  Uiso   1.00
H142   H     0.89535   0.01354   0.26558   0.00000  Uiso   1.00
C143   C     0.81297   0.01068   0.23806   0.00000  Uiso   1.00
N144   N     0.98241   0.18074   0.26416   0.00000  Uiso   1.00
N145   N     0.68426   0.15259   0.23584   0.00000  Uiso   1.00
N146   N     0.76476   0.31409   0.21222   0.00000  Uiso   1.00
O147   O     0.70760   0.31800   0.22880   0.00000  Uiso   1.00
O148   O     0.77928   0.28894   0.16822   0.00000  Uiso   1.00
N149   N     0.99625   0.19716   0.31214   0.00000  Uiso   1.00
O150   O     0.68557   0.24680   0.32218   0.00000  Uiso   1.00
O151   O     0.97134   0.16694   0.35005   0.00000  Uiso   1.00
S152   S     0.67428   0.12334   0.17549   0.00000  Uiso   1.00
O153   O     0.94470   0.08970   0.17345   0.00000  Uiso   1.00
O154   O     0.69034   0.16536   0.13774   0.00000  Uiso   1.00
O155   O     0.72311   0.08250   0.15664   0.00000  Uiso   1.00
H156   H     0.71323   0.06497   0.12373   0.00000  Uiso   1.00
O157   O     0.12797   0.57141   0.24633   0.00000  Uiso   1.00
O158   O     0.22858   0.58089   0.25587   0.00000  Uiso   1.00
C159   C     0.18223   0.59990   0.25005   0.00000  Uiso   1.00
O160   O     0.09181   0.49293   0.31840   0.00000  Uiso   1.00
O161   O     0.19242   0.50241   0.32793   0.00000  Uiso   1.00
C162   C     0.13349   0.49840   0.34704   0.00000  Uiso   1.00
Cu163  Cu    0.10710   0.49439   0.24436   0.00000  Uiso   1.00
Cu164  Cu    0.22623   0.50561   0.25565   0.00000  Uiso   1.00
O165   O     0.10476   0.41911   0.24414   0.00000  Uiso   1.00
O166   O     0.20536   0.42859   0.25367   0.00000  Uiso   1.00
O167   O     0.14092   0.49759   0.17207   0.00000  Uiso   1.00
O168   O     0.24152   0.50707   0.18161   0.00000  Uiso   1.00
C169   C     0.15198   0.40002   0.24670   0.00000  Uiso   1.00
C170   C     0.20016   0.50452   0.15331   0.00000  Uiso   1.00
C171   C     0.28613   0.56869   0.03195   0.00000  Uiso   1.00
H172   H     0.30788   0.56717   0.10582   0.00000  Uiso   1.00
H173   H     0.29249   0.60257   0.44036   0.00000  Uiso   1.00
H174   H     0.32871   0.59697   0.01886   0.00000  Uiso   1.00
C175   C     0.21987   0.51503   0.09897   0.00000  Uiso   1.00
C176   C     0.05500   0.46293   0.42136   0.00000  Uiso   1.00
C177   C     0.03805   0.45111   0.47247   0.00000  Uiso   1.00
C178   C     0.08001   0.46825   0.00512   0.00000  Uiso   1.00
C179   C     0.13951   0.49998   0.48765   0.00000  Uiso   1.00
C180   C     0.15359   0.51722   0.43712   0.00000  Uiso   1.00
C181   C     0.18528   0.51559   0.01875   0.00000  Uiso   1.00
C182   C     0.24123   0.55222   0.00110   0.00000  Uiso   1.00
C183   C     0.25098   0.57317   0.45354   0.00000  Uiso   1.00
C184   C     0.20759   0.55636   0.42221   0.00000  Uiso   1.00
C185   C     0.17722   0.49581   0.06697   0.00000  Uiso   1.00
C186   C     0.27502   0.55085   0.08107   0.00000  Uiso   1.00
C187   C     0.11302   0.49495   0.40284   0.00000  Uiso   1.00
H188   H     0.13725   0.46612   0.08135   0.00000  Uiso   1.00
H189   H     0.02346   0.44523   0.39587   0.00000  Uiso   1.00
H190   H     0.06392   0.45664   0.04395   0.00000  Uiso   1.00
H191   H     0.32626   0.42668   0.48644   0.00000  Uiso   1.00
H192   H     0.21659   0.57507   0.38641   0.00000  Uiso   1.00
C193   C     0.18946   0.65599   0.25054   0.00000  Uiso   1.00
H194   H     0.22868   0.34688   0.26558   0.00000  Uiso   1.00
C195   C     0.14630   0.34401   0.23806   0.00000  Uiso   1.00
N196   N     0.31574   0.51407   0.26416   0.00000  Uiso   1.00
N197   N     0.01759   0.48593   0.23584   0.00000  Uiso   1.00
N198   N     0.09809   0.64742   0.21222   0.00000  Uiso   1.00
O199   O     0.04093   0.65133   0.22880   0.00000  Uiso   1.00
O200   O     0.11261   0.62227   0.16822   0.00000  Uiso   1.00
N201   N     0.32958   0.53049   0.31214   0.00000  Uiso   1.00
O202   O     0.01890   0.58013   0.32218   0.00000  Uiso   1.00
O203   O     0.30467   0.50027   0.35005   0.00000  Uiso   1.00
S204   S     0.00761   0.45668   0.17549   0.00000  Uiso   1.00
O205   O     0.27803   0.42303   0.17345   0.00000  Uiso   1.00
O206   O     0.02367   0.49870   0.13774   0.00000  Uiso   1.00
O207   O     0.05644   0.41584   0.15664   0.00000  Uiso   1.00
H208   H     0.04656   0.39830   0.12373   0.00000  Uiso   1.00
O209   O     0.46131   0.57141   0.24633   0.00000  Uiso   1.00
O210   O     0.56191   0.58089   0.25587   0.00000  Uiso   1.00
C211   C     0.51556   0.59990   0.25005   0.00000  Uiso   1.00
O212   O     0.42515   0.49293   0.31840   0.00000  Uiso   1.00
O213   O     0.52575   0.50241   0.32793   0.00000  Uiso   1.00
C214   C     0.46682   0.49840   0.34704   0.00000  Uiso   1.00
Cu215  Cu    0.44043   0.49439   0.24436   0.00000  Uiso   1.00
Cu216  Cu    0.55957   0.50561   0.25565   0.00000  Uiso   1.00
O217   O     0.43809   0.41911   0.24414   0.00000  Uiso   1.00
O218   O     0.53869   0.42859   0.25367   0.00000  Uiso   1.00
O219   O     0.47425   0.49759   0.17207   0.00000  Uiso   1.00
O220   O     0.57485   0.50707   0.18161   0.00000  Uiso   1.00
C221   C     0.48532   0.40002   0.24670   0.00000  Uiso   1.00
C222   C     0.53350   0.50452   0.15331   0.00000  Uiso   1.00
C223   C     0.61947   0.56869   0.03195   0.00000  Uiso   1.00
H224   H     0.64121   0.56717   0.10582   0.00000  Uiso   1.00
H225   H     0.62582   0.60257   0.44036   0.00000  Uiso   1.00
H226   H     0.66204   0.59697   0.01886   0.00000  Uiso   1.00
C227   C     0.55321   0.51503   0.09897   0.00000  Uiso   1.00
C228   C     0.38833   0.46293   0.42136   0.00000  Uiso   1.00
C229   C     0.37139   0.45111   0.47247   0.00000  Uiso   1.00
C230   C     0.41334   0.46825   0.00512   0.00000  Uiso   1.00
C231   C     0.47284   0.49998   0.48765   0.00000  Uiso   1.00
C232   C     0.48692   0.51722   0.43712   0.00000  Uiso   1.00
C233   C     0.51862   0.51559   0.01875   0.00000  Uiso   1.00
C234   C     0.57457   0.55222   0.00110   0.00000  Uiso   1.00
C235   C     0.58431   0.57317   0.45354   0.00000  Uiso   1.00
C236   C     0.54093   0.55636   0.42221   0.00000  Uiso   1.00
C237   C     0.51055   0.49581   0.06697   0.00000  Uiso   1.00
C238   C     0.60836   0.55085   0.08107   0.00000  Uiso   1.00
C239   C     0.44635   0.49495   0.40284   0.00000  Uiso   1.00
H240   H     0.47058   0.46612   0.08135   0.00000  Uiso   1.00
H241   H     0.35679   0.44523   0.39587   0.00000  Uiso   1.00
H242   H     0.39725   0.45664   0.04395   0.00000  Uiso   1.00
H243   H     0.65959   0.42668   0.48644   0.00000  Uiso   1.00
H244   H     0.54992   0.57507   0.38641   0.00000  Uiso   1.00
C245   C     0.52279   0.65599   0.25054   0.00000  Uiso   1.00
H246   H     0.56201   0.34688   0.26558   0.00000  Uiso   1.00
C247   C     0.47963   0.34401   0.23806   0.00000  Uiso   1.00
N248   N     0.64908   0.51407   0.26416   0.00000  Uiso   1.00
N249   N     0.35092   0.48593   0.23584   0.00000  Uiso   1.00
N250   N     0.43142   0.64742   0.21222   0.00000  Uiso   1.00
O251   O     0.37426   0.65133   0.22880   0.00000  Uiso   1.00
O252   O     0.44595   0.62227   0.16822   0.00000  Uiso   1.00
N253   N     0.66292   0.53049   0.31214   0.00000  Uiso   1.00
O254   O     0.35224   0.58013   0.32218   0.00000  Uiso   1.00
O255   O     0.63800   0.50027   0.35005   0.00000  Uiso   1.00
S256   S     0.34095   0.45668   0.17549   0.00000  Uiso   1.00
O257   O     0.61137   0.42303   0.17345   0.00000  Uiso   1.00
O258   O     0.35700   0.49870   0.13774   0.00000  Uiso   1.00
O259   O     0.38978   0.41584   0.15664   0.00000  Uiso   1.00
H260   H     0.37990   0.39830   0.12373   0.00000  Uiso   1.00
O261   O     0.79464   0.57141   0.24633   0.00000  Uiso   1.00
O262   O     0.89524   0.58089   0.25587   0.00000  Uiso   1.00
C263   C     0.84890   0.59990   0.25005   0.00000  Uiso   1.00
O264   O     0.75848   0.49293   0.31840   0.00000  Uiso   1.00
O265   O     0.85908   0.50241   0.32793   0.00000  Uiso   1.00
C266   C     0.80015   0.49840   0.34704   0.00000  Uiso   1.00
Cu267  Cu    0.77377   0.49439   0.24436   0.00000  Uiso   1.00
Cu268  Cu    0.89290   0.50561   0.25565   0.00000  Uiso   1.00
O269   O     0.77142   0.41911   0.24414   0.00000  Uiso   1.00
O270   O     0.87203   0.42859   0.25367   0.00000  Uiso   1.00
O271   O     0.80758   0.49759   0.17207   0.00000  Uiso   1.00
O272   O     0.90819   0.50707   0.18161   0.00000  Uiso   1.00
C273   C     0.81865   0.40002   0.24670   0.00000  Uiso   1.00
C274   C     0.86683   0.50452   0.15331   0.00000  Uiso   1.00
C275   C     0.95280   0.56869   0.03195   0.00000  Uiso   1.00
H276   H     0.97455   0.56717   0.10582   0.00000  Uiso   1.00
H277   H     0.95915   0.60257   0.44036   0.00000  Uiso   1.00
H278   H     0.99537   0.59697   0.01886   0.00000  Uiso   1.00
C279   C     0.88654   0.51503   0.09897   0.00000  Uiso   1.00
C280   C     0.72167   0.46293   0.42136   0.00000  Uiso   1.00
C281   C     0.70472   0.45111   0.47247   0.00000  Uiso   1.00
C282   C     0.74667   0.46825   0.00512   0.00000  Uiso   1.00
C283   C     0.80618   0.49998   0.48765   0.00000  Uiso   1.00
C284   C     0.82026   0.51722   0.43712   0.00000  Uiso   1.00
C285   C     0.85195   0.51559   0.01875   0.00000  Uiso   1.00
C286   C     0.90790   0.55222   0.00110   0.00000  Uiso   1.00
C287   C     0.91765   0.57317   0.45354   0.00000  Uiso   1.00
C288   C     0.87426   0.55636   0.42221   0.00000  Uiso   1.00
C289   C     0.84389   0.49581   0.06697   0.00000  Uiso   1.00
C290   C     0.94169   0.55085   0.08107   0.00000  Uiso   1.00
C291   C     0.77969   0.49495   0.40284   0.00000  Uiso   1.00
H292   H     0.80392   0.46612   0.08135   0.00000  Uiso   1.00
H293   H     0.69012   0.44523   0.39587   0.00000  Uiso   1.00
H294   H     0.73058   0.45664   0.04395   0.00000  Uiso   1.00
H295   H     0.99293   0.42668   0.48644   0.00000  Uiso   1.00
H296   H     0.88326   0.57507   0.38641   0.00000  Uiso   1.00
C297   C     0.85613   0.65599   0.25054   0.00000  Uiso   1.00
H298   H     0.89535   0.34688   0.26558   0.00000  Uiso   1.00
C299   C     0.81297   0.34401   0.23806   0.00000  Uiso   1.00
N300   N     0.98241   0.51407   0.26416   0.00000  Uiso   1.00
N301   N     0.68426   0.48593   0.23584   0.00000  Uiso   1.00
N302   N     0.76476   0.64742   0.21222   0.00000  Uiso   1.00
O303   O     0.70760   0.65133   0.22880   0.00000  Uiso   1.00
O304   O     0.77928   0.62227   0.16822   0.00000  Uiso   1.00
N305   N     0.99625   0.53049   0.31214   0.00000  Uiso   1.00
O306   O     0.68557   0.58013   0.32218   0.00000  Uiso   1.00
O307   O     0.97134   0.50027   0.35005   0.00000  Uiso   1.00
S308   S     0.67428   0.45668   0.17549   0.00000  Uiso   1.00
O309   O     0.94470   0.42303   0.17345   0.00000  Uiso   1.00
O310   O     0.69034   0.49870   0.13774   0.00000  Uiso   1.00
O311   O     0.72311   0.41584   0.15664   0.00000  Uiso   1.00
H312   H     0.71323   0.39830   0.12373   0.00000  Uiso   1.00
O313   O     0.12797   0.90474   0.24633   0.00000  Uiso   1.00
O314   O     0.22858   0.91422   0.25587   0.00000  Uiso   1.00
C315   C     0.18223   0.93323   0.25005   0.00000  Uiso   1.00
O316   O     0.09181   0.82627   0.31840   0.00000  Uiso   1.00
O317   O     0.19242   0.83575   0.32793   0.00000  Uiso   1.00
C318   C     0.13349   0.83174   0.34704   0.00000  Uiso   1.00
Cu319  Cu    0.10710   0.82772   0.24436   0.00000  Uiso   1.00
Cu320  Cu    0.22623   0.83895   0.25565   0.00000  Uiso   1.00
O321   O     0.10476   0.75245   0.24414   0.00000  Uiso   1.00
O322   O     0.20536   0.76193   0.25367   0.00000  Uiso   1.00
O323   O     0.14092   0.83092   0.17207   0.00000  Uiso   1.00
O324   O     0.24152   0.84040   0.18161   0.00000  Uiso   1.00
C325   C     0.15198   0.73335   0.24670   0.00000  Uiso   1.00
C326   C     0.20016   0.83785   0.15331   0.00000  Uiso   1.00
C327   C     0.28613   0.90202   0.03195   0.00000  Uiso   1.00
H328   H     0.30788   0.90050   0.10582   0.00000  Uiso   1.00
H329   H     0.29249   0.93590   0.44036   0.00000  Uiso   1.00
H330   H     0.32871   0.93030   0.01886   0.00000  Uiso   1.00
C331   C     0.21987   0.84836   0.09897   0.00000  Uiso   1.00
C332   C     0.05500   0.79627   0.42136   0.00000  Uiso   1.00
C333   C     0.03805   0.78444   0.47247   0.00000  Uiso   1.00
C334   C     0.08001   0.80158   0.00512   0.00000  Uiso   1.00
C335   C     0.13951   0.83331   0.48765   0.00000  Uiso   1.00
C336   C     0.15359   0.85055   0.43712   0.00000  Uiso   1.00
C337   C     0.18528   0.84892   0.01875   0.00000  Uiso   1.00
C338   C     0.24123   0.88556   0.00110   0.00000  Uiso   1.00
C339   C     0.25098   0.90650   0.45354   0.00000  Uiso   1.00
C340   C     0.20759   0.88969   0.42221   0.00000  Uiso   1.00
C341   C     0.17722   0.82914   0.06697   0.00000  Uiso   1.00
C342   C     0.27502   0.88418   0.08107   0.00000  Uiso   1.00
C343   C     0.11302   0.82828   0.40284   0.00000  Uiso   1.00
H344   H     0.13725   0.79945   0.08135   0.00000  Uiso   1.00
H345   H     0.02346   0.77856   0.39587   0.00000  Uiso   1.00
H346   H     0.06392   0.78998   0.04395   0.00000  Uiso   1.00
H347   H     0.32626   0.76001   0.48644   0.00000  Uiso   1.00
H348   H     0.21659   0.90841   0.38641   0.00000  Uiso   1.00
C349   C     0.18946   0.98933   0.25054   0.00000  Uiso   1.00
H350   H     0.22868   0.68021   0.26558   0.00000  Uiso   1.00
C351   C     0.14630   0.67734   0.23806   0.00000  Uiso   1.00
N352   N     0.31574   0.84741   0.26416   0.00000  Uiso   1.00
N353   N     0.01759   0.81926   0.23584   0.00000  Uiso   1.00
N354   N     0.09809   0.98075   0.21222   0.00000  Uiso   1.00
O355   O     0.04093   0.98467   0.22880   0.00000  Uiso   1.00
O356   O     0.11261   0.95561   0.16822   0.00000  Uiso   1.00
N357   N     0.32958   0.86382   0.31214   0.00000  Uiso   1.00
O358   O     0.01890   0.91346   0.32218   0.00000  Uiso   1.00
O359   O     0.30467   0.83360   0.35005   0.00000  Uiso   1.00
S360   S     0.00761   0.79001   0.17549   0.00000  Uiso   1.00
O361   O     0.27803   0.75636   0.17345   0.00000  Uiso   1.00
O362   O     0.02367   0.83203   0.13774   0.00000  Uiso   1.00
O363   O     0.05644   0.74917   0.15664   0.00000  Uiso   1.00
H364   H     0.04656   0.73164   0.12373   0.00000  Uiso   1.00
O365   O     0.46131   0.90474   0.24633   0.00000  Uiso   1.00
O366   O     0.56191   0.91422   0.25587   0.00000  Uiso   1.00
C367   C     0.51556   0.93323   0.25005   0.00000  Uiso   1.00
O368   O     0.42515   0.82627   0.31840   0.00000  Uiso   1.00
O369   O     0.52575   0.83575   0.32793   0.00000  Uiso   1.00
C370   C     0.46682   0.83174   0.34704   0.00000  Uiso   1.00
Cu371  Cu    0.44043   0.82772   0.24436   0.00000  Uiso   1.00
Cu372  Cu    0.55957   0.83895   0.25565   0.00000  Uiso   1.00
O373   O     0.43809   0.75245   0.24414   0.00000  Uiso   1.00
O374   O     0.53869   0.76193   0.25367   0.00000  Uiso   1.00
O375   O     0.47425   0.83092   0.17207   0.00000  Uiso   1.00
O376   O     0.57485   0.84040   0.18161   0.00000  Uiso   1.00
C377   C     0.48532   0.73335   0.24670   0.00000  Uiso   1.00
C378   C     0.53350   0.83785   0.15331   0.00000  Uiso   1.00
C379   C     0.61947   0.90202   0.03195   0.00000  Uiso   1.00
H380   H     0.64121   0.90050   0.10582   0.00000  Uiso   1.00
H381   H     0.62582   0.93590   0.44036   0.00000  Uiso   1.00
H382   H     0.66204   0.93030   0.01886   0.00000  Uiso   1.00
C383   C     0.55321   0.84836   0.09897   0.00000  Uiso   1.00
C384   C     0.38833   0.79627   0.42136   0.00000  Uiso   1.00
C385   C     0.37139   0.78444   0.47247   0.00000  Uiso   1.00
C386   C     0.41334   0.80158   0.00512   0.00000  Uiso   1.00
C387   C     0.47284   0.83331   0.48765   0.00000  Uiso   1.00
C388   C     0.48692   0.85055   0.43712   0.00000  Uiso   1.00
C389   C     0.51862   0.84892   0.01875   0.00000  Uiso   1.00
C390   C     0.57457   0.88556   0.00110   0.00000  Uiso   1.00
C391   C     0.58431   0.90650   0.45354   0.00000  Uiso   1.00
C392   C     0.54093   0.88969   0.42221   0.00000  Uiso   1.00
C393   C     0.51055   0.82914   0.06697   0.00000  Uiso   1.00
C394   C     0.60836   0.88418   0.08107   0.00000  Uiso   1.00
C395   C     0.44635   0.82828   0.40284   0.00000  Uiso   1.00
H396   H     0.47058   0.79945   0.08135   0.00000  Uiso   1.00
H397   H     0.35679   0.77856   0.39587   0.00000  Uiso   1.00
H398   H     0.39725   0.78998   0.04395   0.00000  Uiso   1.00
H399   H     0.65959   0.76001   0.48644   0.00000  Uiso   1.00
H400   H     0.54992   0.90841   0.38641   0.00000  Uiso   1.00
C401   C     0.52279   0.98933   0.25054   0.00000  Uiso   1.00
H402   H     0.56201   0.68021   0.26558   0.00000  Uiso   1.00
C403   C     0.47963   0.67734   0.23806   0.00000  Uiso   1.00
N404   N     0.64908   0.84741   0.26416   0.00000  Uiso   1.00
N405   N     0.35092   0.81926   0.23584   0.00000  Uiso   1.00
N406   N     0.43142   0.98075   0.21222   0.00000  Uiso   1.00
O407   O     0.37426   0.98467   0.22880   0.00000  Uiso   1.00
O408   O     0.44595   0.95561   0.16822   0.00000  Uiso   1.00
N409   N     0.66292   0.86382   0.31214   0.00000  Uiso   1.00
O410   O     0.35224   0.91346   0.32218   0.00000  Uiso   1.00
O411   O     0.63800   0.83360   0.35005   0.00000  Uiso   1.00
S412   S     0.34095   0.79001   0.17549   0.00000  Uiso   1.00
O413   O     0.61137   0.75636   0.17345   0.00000  Uiso   1.00
O414   O     0.35700   0.83203   0.13774   0.00000  Uiso   1.00
O415   O     0.38978   0.74917   0.15664   0.00000  Uiso   1.00
H416   H     0.37990   0.73164   0.12373   0.00000  Uiso   1.00
O417   O     0.79464   0.90474   0.24633   0.00000  Uiso   1.00
O418   O     0.89524   0.91422   0.25587   0.00000  Uiso   1.00
C419   C     0.84890   0.93323   0.25005   0.00000  Uiso   1.00
O420   O     0.75848   0.82627   0.31840   0.00000  Uiso   1.00
O421   O     0.85908   0.83575   0.32793   0.00000  Uiso   1.00
C422   C     0.80015   0.83174   0.34704   0.00000  Uiso   1.00
Cu423  Cu    0.77377   0.82772   0.24436   0.00000  Uiso   1.00
Cu424  Cu    0.89290   0.83895   0.25565   0.00000  Uiso   1.00
O425   O     0.77142   0.75245   0.24414   0.00000  Uiso   1.00
O426   O     0.87203   0.76193   0.25367   0.00000  Uiso   1.00
O427   O     0.80758   0.83092   0.17207   0.00000  Uiso   1.00
O428   O     0.90819   0.84040   0.18161   0.00000  Uiso   1.00
C429   C     0.81865   0.73335   0.24670   0.00000  Uiso   1.00
C430   C     0.86683   0.83785   0.15331   0.00000  Uiso   1.00
C431   C     0.95280   0.90202   0.03195   0.00000  Uiso   1.00
H432   H     0.97455   0.90050   0.10582   0.00000  Uiso   1.00
H433   H     0.95915   0.93590   0.44036   0.00000  Uiso   1.00
H434   H     0.99537   0.93030   0.01886   0.00000  Uiso   1.00
C435   C     0.88654   0.84836   0.09897   0.00000  Uiso   1.00
C436   C     0.72167   0.79627   0.42136   0.00000  Uiso   1.00
C437   C     0.70472   0.78444   0.47247   0.00000  Uiso   1.00
C438   C     0.74667   0.80158   0.00512   0.00000  Uiso   1.00
C439   C     0.80618   0.83331   0.48765   0.00000  Uiso   1.00
C440   C     0.82026   0.85055   0.43712   0.00000  Uiso   1.00
C441   C     0.85195   0.84892   0.01875   0.00000  Uiso   1.00
C442   C     0.90790   0.88556   0.00110   0.00000  Uiso   1.00
C443   C     0.91765   0.90650   0.45354   0.00000  Uiso   1.00
C444   C     0.87426   0.88969   0.42221   0.00000  Uiso   1.00
C445   C     0.84389   0.82914   0.06697   0.00000  Uiso   1.00
C446   C     0.94169   0.88418   0.08107   0.00000  Uiso   1.00
C447   C     0.77969   0.82828   0.40284   0.00000  Uiso   1.00
H448   H     0.80392   0.79945   0.08135   0.00000  Uiso   1.00
H449   H     0.69012   0.77856   0.39587   0.00000  Uiso   1.00
H450   H     0.73058   0.78998   0.04395   0.00000  Uiso   1.00
H451   H     0.99293   0.76001   0.48644   0.00000  Uiso   1.00
H452   H     0.88326   0.90841   0.38641   0.00000  Uiso   1.00
C453   C     0.85613   0.98933   0.25054   0.00000  Uiso   1.00
H454   H     0.89535   0.68021   0.26558   0.00000  Uiso   1.00
C455   C     0.81297   0.67734   0.23806   0.00000  Uiso   1.00
N456   N     0.98241   0.84741   0.26416   0.00000  Uiso   1.00
N457   N     0.68426   0.81926   0.23584   0.00000  Uiso   1.00
N458   N     0.76476   0.98075   0.21222   0.00000  Uiso   1.00
O459   O     0.70760   0.98467   0.22880   0.00000  Uiso   1.00
O460   O     0.77928   0.95561   0.16822   0.00000  Uiso   1.00
N461   N     0.99625   0.86382   0.31214   0.00000  Uiso   1.00
O462   O     0.68557   0.91346   0.32218   0.00000  Uiso   1.00
O463   O     0.97134   0.83360   0.35005   0.00000  Uiso   1.00
S464   S     0.67428   0.79001   0.17549   0.00000  Uiso   1.00
O465   O     0.94470   0.75636   0.17345   0.00000  Uiso   1.00
O466   O     0.69034   0.83203   0.13774   0.00000  Uiso   1.00
O467   O     0.72311   0.74917   0.15664   0.00000  Uiso   1.00
H468   H     0.71323   0.73164   0.12373   0.00000  Uiso   1.00
O469   O     0.12797   0.23807   0.74633   0.00000  Uiso   1.00
O470   O     0.22858   0.24755   0.75587   0.00000  Uiso   1.00
C471   C     0.18223   0.26656   0.75005   0.00000  Uiso   1.00
O472   O     0.09181   0.15960   0.81840   0.00000  Uiso   1.00
O473   O     0.19242   0.16908   0.82793   0.00000  Uiso   1.00
C474   C     0.13349   0.16507   0.84704   0.00000  Uiso   1.00
Cu475  Cu    0.10710   0.16105   0.74436   0.00000  Uiso   1.00
Cu476  Cu    0.22623   0.17228   0.75565   0.00000  Uiso   1.00
O477   O     0.10476   0.08578   0.74414   0.00000  Uiso   1.00
O478   O     0.20536   0.09526   0.75367   0.00000  Uiso   1.00
O479   O     0.14092   0.16425   0.67207   0.00000  Uiso   1.00
O480   O     0.24152   0.17373   0.68161   0.00000  Uiso   1.00
C481   C     0.15198   0.06669   0.74670   0.00000  Uiso   1.00
C482   C     0.20016   0.17119   0.65331   0.00000  Uiso   1.00
C483   C     0.28613   0.23535   0.53195   0.00000  Uiso   1.00
H484   H     0.30788   0.23383   0.60582   0.00000  Uiso   1.00
H485   H     0.29249   0.26923   0.94036   0.00000  Uiso   1.00
H486   H     0.32871   0.26364   0.51886   0.00000  Uiso   1.00
C487   C     0.21987   0.18169   0.59897   0.00000  Uiso   1.00
C488   C     0.05500   0.12960   0.92136   0.00000  Uiso   1.00
C489   C     0.03805   0.11777   0.97247   0.00000  Uiso   1.00
C490   C     0.08001   0.13491   0.50512   0.00000  Uiso   1.00
C491   C     0.13951   0.16664   0.98765   0.00000  Uiso   1.00
C492   C     0.15359   0.18388   0.93712   0.00000  Uiso   1.00
C493   C     0.18528   0.18226   0.51875   0.00000  Uiso   1.00
C494   C     0.24123   0.21889   0.50110   0.00000  Uiso   1.00
C495   C     0.25098   0.23983   0.95354   0.00000  Uiso   1.00
C496   C     0.20759   0.22303   0.92221   0.00000  Uiso   1.00
C497   C     0.17722   0.16247   0.56697   0.00000  Uiso   1.00
C498   C     0.27502   0.21752   0.58107   0.00000  Uiso   1.00
C499   C     0.11302   0.16161   0.90284   0.00000  Uiso   1.00
H500   H     0.13725   0.13279   0.58135   0.00000  Uiso   1.00
H501   H     0.02346   0.11190   0.89587   0.00000  Uiso   1.00
H502   H     0.06392   0.12331   0.54395   0.00000  Uiso   1.00
H503   H     0.32626   0.09335   0.98644   0.00000  Uiso   1.00
H504   H     0.21659   0.24174   0.88641   0.00000  Uiso   1.00
C505   C     0.18946   0.32266   0.75054   0.00000  Uiso   1.00
H506   H     0.22868   0.01354   0.76558   0.00000  Uiso   1.00
C507   C     0.14630   0.01068   0.73806   0.00000  Uiso   1.00
N508   N     0.31574   0.18074   0.76416   0.00000  Uiso   1.00
N509   N     0.01759   0.15259   0.73584   0.00000  Uiso   1.00
N510   N     0.09809   0.31409   0.71222   0.00000  Uiso   1.00
O511   O     0.04093   0.31800   0.72880   0.00000  Uiso   1.00
O512   O     0.11261   0.28894   0.66822   0.00000  Uiso   1.00
N513   N     0.32958   0.19716   0.81214   0.00000  Uiso   1.00
O514   O     0.01890   0.24680   0.82218   0.00000  Uiso   1.00
O515   O     0.30467   0.16694   0.85005   0.00000  Uiso   1.00
S516   S     0.00761   0.12334   0.67549   0.00000  Uiso   1.00
O517   O     0.27803   0.08970   0.67345   0.00000  Uiso   1.00
O518   O     0.02367   0.16536   0.63774   0.00000  Uiso   1.00
O519   O     0.05644   0.08250   0.65664   0.00000  Uiso   1.00
H520   H     0.04656   0.06497   0.62373   0.00000  Uiso   1.00
O521   O     0.46131   0.23807   0.74633   0.00000  Uiso   1.00
O522   O     0.56191   0.24755   0.75587   0.00000  Uiso   1.00
C523   C     0.51556   0.26656   0.75005   0.00000  Uiso   1.00
O524   O     0.42515   0.15960   0.81840   0.00000  Uiso   1.00
O525   O     0.52575   0.16908   0.82793   0.00000  Uiso   1.00
C526   C     0.46682   0.16507   0.84704   0.00000  Uiso   1.00
Cu527  Cu    0.44043   0.16105   0.74436   0.00000  Uiso   1.00
Cu528  Cu    0.55957   0.17228   0.75565   0.00000  Uiso   1.00
O529   O     0.43809   0.08578   0.74414   0.00000  Uiso   1.00
O530   O     0.53869   0.09526   0.75367   0.00000  Uiso   1.00
O531   O     0.47425   0.16425   0.67207   0.00000  Uiso   1.00
O532   O     0.57485   0.17373   0.68161   0.00000  Uiso   1.00
C533   C     0.48532   0.06669   0.74670   0.00000  Uiso   1.00
C534   C     0.53350   0.17119   0.65331   0.00000  Uiso   1.00
C535   C     0.61947   0.23535   0.53195   0.00000  Uiso   1.00
H536   H     0.64121   0.23383   0.60582   0.00000  Uiso   1.00
H537   H     0.62582   0.26923   0.94036   0.00000  Uiso   1.00
H538   H     0.66204   0.26364   0.51886   0.00000  Uiso   1.00
C539   C     0.55321   0.18169   0.59897   0.00000  Uiso   1.00
C540   C     0.38833   0.12960   0.92136   0.00000  Uiso   1.00
C541   C     0.37139   0.11777   0.97247   0.00000  Uiso   1.00
C542   C     0.41334   0.13491   0.50512   0.00000  Uiso   1.00
C543   C     0.47284   0.16664   0.98765   0.00000  Uiso   1.00
C544   C     0.48692   0.18388   0.93712   0.00000  Uiso   1.00
C545   C     0.51862   0.18226   0.51875   0.00000  Uiso   1.00
C546   C     0.57457   0.21889   0.50110   0.00000  Uiso   1.00
C547   C     0.58431   0.23983   0.95354   0.00000  Uiso   1.00
C548   C     0.54093   0.22303   0.92221   0.00000  Uiso   1.00
C549   C     0.51055   0.16247   0.56697   0.00000  Uiso   1.00
C550   C     0.60836   0.21752   0.58107   0.00000  Uiso   1.00
C551   C     0.44635   0.16161   0.90284   0.00000  Uiso   1.00
H552   H     0.47058   0.13279   0.58135   0.00000  Uiso   1.00
H553   H     0.35679   0.11190   0.89587   0.00000  Uiso   1.00
H554   H     0.39725   0.12331   0.54395   0.00000  Uiso   1.00
H555   H     0.65959   0.09335   0.98644   0.00000  Uiso   1.00
H556   H     0.54992   0.24174   0.88641   0.00000  Uiso   1.00
C557   C     0.52279   0.32266   0.75054   0.00000  Uiso   1.00
H558   H     0.56201   0.01354   0.76558   0.00000  Uiso   1.00
C559   C     0.47963   0.01068   0.73806   0.00000  Uiso   1.00
N560   N     0.64908   0.18074   0.76416   0.00000  Uiso   1.00
N561   N     0.35092   0.15259   0.73584   0.00000  Uiso   1.00
N562   N     0.43142   0.31409   0.71222   0.00000  Uiso   1.00
O563   O     0.37426   0.31800   0.72880   0.00000  Uiso   1.00
O564   O     0.44595   0.28894   0.66822   0.00000  Uiso   1.00
N565   N     0.66292   0.19716   0.81214   0.00000  Uiso   1.00
O566   O     0.35224   0.24680   0.82218   0.00000  Uiso   1.00
O567   O     0.63800   0.16694   0.85005   0.00000  Uiso   1.00
S568   S     0.34095   0.12334   0.67549   0.00000  Uiso   1.00
O569   O     0.61137   0.08970   0.67345   0.00000  Uiso   1.00
O570   O     0.35700   0.16536   0.63774   0.00000  Uiso   1.00
O571   O     0.38978   0.08250   0.65664   0.00000  Uiso   1.00
H572   H     0.37990   0.06497   0.62373   0.00000  Uiso   1.00
O573   O     0.79464   0.23807   0.74633   0.00000  Uiso   1.00
O574   O     0.89524   0.24755   0.75587   0.00000  Uiso   1.00
C575   C     0.84890   0.26656   0.75005   0.00000  Uiso   1.00
O576   O     0.75848   0.15960   0.81840   0.00000  Uiso   1.00
O577   O     0.85908   0.16908   0.82793   0.00000  Uiso   1.00
C578   C     0.80015   0.16507   0.84704   0.00000  Uiso   1.00
Cu579  Cu    0.77377   0.16105   0.74436   0.00000  Uiso   1.00
Cu580  Cu    0.89290   0.17228   0.75565   0.00000  Uiso   1.00
O581   O     0.77142   0.08578   0.74414   0.00000  Uiso   1.00
O582   O     0.87203   0.09526   0.75367   0.00000  Uiso   1.00
O583   O     0.80758   0.16425   0.67207   0.00000  Uiso   1.00
O584   O     0.90819   0.17373   0.68161   0.00000  Uiso   1.00
C585   C     0.81865   0.06669   0.74670   0.00000  Uiso   1.00
C586   C     0.86683   0.17119   0.65331   0.00000  Uiso   1.00
C587   C     0.95280   0.23535   0.53195   0.00000  Uiso   1.00
H588   H     0.97455   0.23383   0.60582   0.00000  Uiso   1.00
H589   H     0.95915   0.26923   0.94036   0.00000  Uiso   1.00
H590   H     0.99537   0.26364   0.51886   0.00000  Uiso   1.00
C591   C     0.88654   0.18169   0.59897   0.00000  Uiso   1.00
C592   C     0.72167   0.12960   0.92136   0.00000  Uiso   1.00
C593   C     0.70472   0.11777   0.97247   0.00000  Uiso   1.00
C594   C     0.74667   0.13491   0.50512   0.00000  Uiso   1.00
C595   C     0.80618   0.16664   0.98765   0.00000  Uiso   1.00
C596   C     0.82026   0.18388   0.93712   0.00000  Uiso   1.00
C597   C     0.85195   0.18226   0.51875   0.00000  Uiso   1.00
C598   C     0.90790   0.21889   0.50110   0.00000  Uiso   1.00
C599   C     0.91765   0.23983   0.95354   0.00000  Uiso   1.00
C600   C     0.87426   0.22303   0.92221   0.00000  Uiso   1.00
C601   C     0.84389   0.16247   0.56697   0.00000  Uiso   1.00
C602   C     0.94169   0.21752   0.58107   0.00000  Uiso   1.00
C603   C     0.77969   0.16161   0.90284   0.00000  Uiso   1.00
H604   H     0.80392   0.13279   0.58135   0.00000  Uiso   1.00
H605   H     0.69012   0.11190   0.89587   0.00000  Uiso   1.00
H606   H     0.73058   0.12331   0.54395   0.00000  Uiso   1.00
H607   H     0.99293   0.09335   0.98644   0.00000  Uiso   1.00
H608   H     0.88326   0.24174   0.88641   0.00000  Uiso   1.00
C609   C     0.85613   0.32266   0.75054   0.00000  Uiso   1.00
H610   H     0.89535   0.01354   0.76558   0.00000  Uiso   1.00
C611   C     0.81297   0.01068   0.73806   0.00000  Uiso   1.00
N612   N     0.98241   0.18074   0.76416   0.00000  Uiso   1.00
N613   N     0.68426   0.15259   0.73584   0.00000  Uiso   1.00
N614   N     0.76476   0.31409   0.71222   0.00000  Uiso   1.00
O615   O     0.70760   0.31800   0.72880   0.00000  Uiso   1.00
O616   O     0.77928   0.28894   0.66822   0.00000  Uiso   1.00
N617   N     0.99625   0.19716   0.81214   0.00000  Uiso   1.00
O618   O     0.68557   0.24680   0.82218   0.00000  Uiso   1.00
O619   O     0.97134   0.16694   0.85005   0.00000  Uiso   1.00
S620   S     0.67428   0.12334   0.67549   0.00000  Uiso   1.00
O621   O     0.94470   0.08970   0.67345   0.00000  Uiso   1.00
O622   O     0.69034   0.16536   0.63774   0.00000  Uiso   1.00
O623   O     0.72311   0.08250   0.65664   0.00000  Uiso   1.00
H624   H     0.71323   0.06497   0.62373   0.00000  Uiso   1.00
O625   O     0.12797   0.57141   0.74633   0.00000  Uiso   1.00
O626   O     0.22858   0.58089   0.75587   0.00000  Uiso   1.00
C627   C     0.18223   0.59990   0.75005   0.00000  Uiso   1.00
O628   O     0.09181   0.49293   0.81840   0.00000  Uiso   1.00
O629   O     0.19242   0.50241   0.82793   0.00000  Uiso   1.00
C630   C     0.13349   0.49840   0.84704   0.00000  Uiso   1.00
Cu631  Cu    0.10710   0.49439   0.74436   0.00000  Uiso   1.00
Cu632  Cu    0.22623   0.50561   0.75565   0.00000  Uiso   1.00
O633   O     0.10476   0.41911   0.74414   0.00000  Uiso   1.00
O634   O     0.20536   0.42859   0.75367   0.00000  Uiso   1.00
O635   O     0.14092   0.49759   0.67207   0.00000  Uiso   1.00
O636   O     0.24152   0.50707   0.68161   0.00000  Uiso   1.00
C637   C     0.15198   0.40002   0.74670   0.00000  Uiso   1.00
C638   C     0.20016   0.50452   0.65331   0.00000  Uiso   1.00
C639   C     0.28613   0.56869   0.53195   0.00000  Uiso   1.00
H640   H     0.30788   0.56717   0.60582   0.00000  Uiso   1.00
H641   H     0.29249   0.60257   0.94036   0.00000  Uiso   1.00
H642   H     0.32871   0.59697   0.51886   0.00000  Uiso   1.00
C643   C     0.21987   0.51503   0.59897   0.00000  Uiso   1.00
C644   C     0.05500   0.46293   0.92136   0.00000  Uiso   1.00
C645   C     0.03805   0.45111   0.97247   0.00000  Uiso   1.00
C646   C     0.08001   0.46825   0.50512   0.00000  Uiso   1.00
C647   C     0.13951   0.49998   0.98765   0.00000  Uiso   1.00
C648   C     0.15359   0.51722   0.93712   0.00000  Uiso   1.00
C649   C     0.18528   0.51559   0.51875   0.00000  Uiso   1.00
C650   C     0.24123   0.55222   0.50110   0.00000  Uiso   1.00
C651   C     0.25098   0.57317   0.95354   0.00000  Uiso   1.00
C652   C     0.20759   0.55636   0.92221   0.00000  Uiso   1.00
C653   C     0.17722   0.49581   0.56697   0.00000  Uiso   1.00
C654   C     0.27502   0.55085   0.58107   0.00000  Uiso   1.00
C655   C     0.11302   0.49495   0.90284   0.00000  Uiso   1.00
H656   H     0.13725   0.46612   0.58135   0.00000  Uiso   1.00
H657   H     0.02346   0.44523   0.89587   0.00000  Uiso   1.00
H658   H     0.06392   0.45664   0.54395   0.00000  Uiso   1.00
H659   H     0.32626   0.42668   0.98644   0.00000  Uiso   1.00
H660   H     0.21659   0.57507   0.88641   0.00000  Uiso   1.00
C661   C     0.18946   0.65599   0.75054   0.00000  Uiso   1.00
H662   H     0.22868   0.34688   0.76558   0.00000  Uiso   1.00
C663   C     0.14630   0.34401   0.73806   0.00000  Uiso   1.00
N664   N     0.31574   0.51407   0.76416   0.00000  Uiso   1.00
N665   N     0.01759   0.48593   0.73584   0.00000  Uiso   1.00
N666   N     0.09809   0.64742   0.71222   0.00000  Uiso   1.00
O667   O     0.04093   0.65133   0.72880   0.00000  Uiso   1.00
O668   O     0.11261   0.62227   0.66822   0.00000  Uiso   1.00
N669   N     0.32958   0.53049   0.81214   0.00000  Uiso   1.00
O670   O     0.01890   0.58013   0.82218   0.00000  Uiso   1.00
O671   O     0.30467   0.50027   0.85005   0.00000  Uiso   1.00
S672   S     0.00761   0.45668   0.67549   0.00000  Uiso   1.00
O673   O     0.27803   0.42303   0.67345   0.00000  Uiso   1.00
O674   O     0.02367   0.49870   0.63774   0.00000  Uiso   1.00
O675   O     0.05644   0.41584   0.65664   0.00000  Uiso   1.00
H676   H     0.04656   0.39830   0.62373   0.00000  Uiso   1.00
O677   O     0.46131   0.57141   0.74633   0.00000  Uiso   1.00
O678   O     0.56191   0.58089   0.75587   0.00000  Uiso   1.00
C679   C     0.51556   0.59990   0.75005   0.00000  Uiso   1.00
O680   O     0.42515   0.49293   0.81840   0.00000  Uiso   1.00
O681   O     0.52575   0.50241   0.82793   0.00000  Uiso   1.00
C682   C     0.46682   0.49840   0.84704   0.00000  Uiso   1.00
Cu683  Cu    0.44043   0.49439   0.74436   0.00000  Uiso   1.00
Cu684  Cu    0.55957   0.50561   0.75565   0.00000  Uiso   1.00
O685   O     0.43809   0.41911   0.74414   0.00000  Uiso   1.00
O686   O     0.53869   0.42859   0.75367   0.00000  Uiso   1.00
O687   O     0.47425   0.49759   0.67207   0.00000  Uiso   1.00
O688   O     0.57485   0.50707   0.68161   0.00000  Uiso   1.00
C689   C     0.48532   0.40002   0.74670   0.00000  Uiso   1.00
C690   C     0.53350   0.50452   0.65331   0.00000  Uiso   1.00
C691   C     0.61947   0.56869   0.53195   0.00000  Uiso   1.00
H692   H     0.64121   0.56717   0.60582   0.00000  Uiso   1.00
H693   H     0.62582   0.60257   0.94036   0.00000  Uiso   1.00
H694   H     0.66204   0.59697   0.51886   0.00000  Uiso   1.00
C695   C     0.55321   0.51503   0.59897   0.00000  Uiso   1.00
C696   C     0.38833   0.46293   0.92136   0.00000  Uiso   1.00
C697   C     0.37139   0.45111   0.97247   0.00000  Uiso   1.00
C698   C     0.41334   0.46825   0.50512   0.00000  Uiso   1.00
C699   C     0.47284   0.49998   0.98765   0.00000  Uiso   1.00
C700   C     0.48692   0.51722   0.93712   0.00000  Uiso   1.00
C701   C     0.51862   0.51559   0.51875   0.00000  Uiso   1.00
C702   C     0.57457   0.55222   0.50110   0.00000  Uiso   1.00
C703   C     0.58431   0.57317   0.95354   0.00000  Uiso   1.00
C704   C     0.54093   0.55636   0.92221   0.00000  Uiso   1.00
C705   C     0.51055   0.49581   0.56697   0.00000  Uiso   1.00
C706   C     0.60836   0.55085   0.58107   0.00000  Uiso   1.00
C707   C     0.44635   0.49495   0.90284   0.00000  Uiso   1.00
H708   H     0.47058   0.46612   0.58135   0.00000  Uiso   1.00
H709   H     0.35679   0.44523   0.89587   0.00000  Uiso   1.00
H710   H     0.39725   0.45664   0.54395   0.00000  Uiso   1.00
H711   H     0.65959   0.42668   0.98644   0.00000  Uiso   1.00
H712   H     0.54992   0.57507   0.88641   0.00000  Uiso   1.00
C713   C     0.52279   0.65599   0.75054   0.00000  Uiso   1.00
H714   H     0.56201   0.34688   0.76558   0.00000  Uiso   1.00
C715   C     0.47963   0.34401   0.73806   0.00000  Uiso   1.00
N716   N     0.64908   0.51407   0.76416   0.00000  Uiso   1.00
N717   N     0.35092   0.48593   0.73584   0.00000  Uiso   1.00
N718   N     0.43142   0.64742   0.71222   0.00000  Uiso   1.00
O719   O     0.37426   0.65133   0.72880   0.00000  Uiso   1.00
O720   O     0.44595   0.62227   0.66822   0.00000  Uiso   1.00
N721   N     0.66292   0.53049   0.81214   0.00000  Uiso   1.00
O722   O     0.35224   0.58013   0.82218   0.00000  Uiso   1.00
O723   O     0.63800   0.50027   0.85005   0.00000  Uiso   1.00
S724   S     0.34095   0.45668   0.67549   0.00000  Uiso   1.00
O725   O     0.61137   0.42303   0.67345   0.00000  Uiso   1.00
O726   O     0.35700   0.49870   0.63774   0.00000  Uiso   1.00
O727   O     0.38978   0.41584   0.65664   0.00000  Uiso   1.00
H728   H     0.37990   0.39830   0.62373   0.00000  Uiso   1.00
O729   O     0.79464   0.57141   0.74633   0.00000  Uiso   1.00
O730   O     0.89524   0.58089   0.75587   0.00000  Uiso   1.00
C731   C     0.84890   0.59990   0.75005   0.00000  Uiso   1.00
O732   O     0.75848   0.49293   0.81840   0.00000  Uiso   1.00
O733   O     0.85908   0.50241   0.82793   0.00000  Uiso   1.00
C734   C     0.80015   0.49840   0.84704   0.00000  Uiso   1.00
Cu735  Cu    0.77377   0.49439   0.74436   0.00000  Uiso   1.00
Cu736  Cu    0.89290   0.50561   0.75565   0.00000  Uiso   1.00
O737   O     0.77142   0.41911   0.74414   0.00000  Uiso   1.00
O738   O     0.87203   0.42859   0.75367   0.00000  Uiso   1.00
O739   O     0.80758   0.49759   0.67207   0.00000  Uiso   1.00
O740   O     0.90819   0.50707   0.68161   0.00000  Uiso   1.00
C741   C     0.81865   0.40002   0.74670   0.00000  Uiso   1.00
C742   C     0.86683   0.50452   0.65331   0.00000  Uiso   1.00
C743   C     0.95280   0.56869   0.53195   0.00000  Uiso   1.00
H744   H     0.97455   0.56717   0.60582   0.00000  Uiso   1.00
H745   H     0.95915   0.60257   0.94036   0.00000  Uiso   1.00
H746   H     0.99537   0.59697   0.51886   0.00000  Uiso   1.00
C747   C     0.88654   0.51503   0.59897   0.00000  Uiso   1.00
C748   C     0.72167   0.46293   0.92136   0.00000  Uiso   1.00
C749   C     0.70472   0.45111   0.97247   0.00000  Uiso   1.00
C750   C     0.74667   0.46825   0.50512   0.00000  Uiso   1.00
C751   C     0.80618   0.49998   0.98765   0.00000  Uiso   1.00
C752   C     0.82026   0.51722   0.93712   0.00000  Uiso   1.00
C753   C     0.85195   0.51559   0.51875   0.00000  Uiso   1.00
C754   C     0.90790   0.55222   0.50110   0.00000  Uiso   1.00
C755   C     0.91765   0.57317   0.95354   0.00000  Uiso   1.00
C756   C     0.87426   0.55636   0.92221   0.00000  Uiso   1.00
C757   C     0.84389   0.49581   0.56697   0.00000  Uiso   1.00
C758   C     0.94169   0.55085   0.58107   0.00000  Uiso   1.00
C759   C     0.77969   0.49495   0.90284   0.00000  Uiso   1.00
H760   H     0.80392   0.46612   0.58135   0.00000  Uiso   1.00
H761   H     0.69012   0.44523   0.89587   0.00000  Uiso   1.00
H762   H     0.73058   0.45664   0.54395   0.00000  Uiso   1.00
H763   H     0.99293   0.42668   0.98644   0.00000  Uiso   1.00
H764   H     0.88326   0.57507   0.88641   0.00000  Uiso   1.00
C765   C     0.85613   0.65599   0.75054   0.00000  Uiso   1.00
H766   H     0.89535   0.34688   0.76558   0.00000  Uiso   1.00
C767   C     0.81297   0.34401   0.73806   0.00000  Uiso   1.00
N768   N     0.98241   0.51407   0.76416   0.00000  Uiso   1.00
N769   N     0.68426   0.48593   0.73584   0.00000  Uiso   1.00
N770   N     0.76476   0.64742   0.71222   0.00000  Uiso   1.00
O771   O     0.70760   0.65133   0.72880   0.00000  Uiso   1.00
O772   O     0.77928   0.62227   0.66822   0.00000  Uiso   1.00
N773   N     0.99625   0.53049   0.81214   0.00000  Uiso   1.00
O774   O     0.68557   0.58013   0.82218   0.00000  Uiso   1.00
O775   O     0.97134   0.50027   0.85005   0.00000  Uiso   1.00
S776   S     0.67428   0.45668   0.67549   0.00000  Uiso   1.00
O777   O     0.94470   0.42303   0.67345   0.00000  Uiso   1.00
O778   O     0.69034   0.49870   0.63774   0.00000  Uiso   1.00
O779   O     0.72311   0.41584   0.65664   0.00000  Uiso   1.00
H780   H     0.71323   0.39830   0.62373   0.00000  Uiso   1.00
O781   O     0.12797   0.90474   0.74633   0.00000  Uiso   1.00
O782   O     0.22858   0.91422   0.75587   0.00000  Uiso   1.00
C783   C     0.18223   0.93323   0.75005   0.00000  Uiso   1.00
O784   O     0.09181   0.82627   0.81840   0.00000  Uiso   1.00
O785   O     0.19242   0.83575   0.82793   0.00000  Uiso   1.00
C786   C     0.13349   0.83174   0.84704   0.00000  Uiso   1.00
Cu787  Cu    0.10710   0.82772   0.74436   0.00000  Uiso   1.00
Cu788  Cu    0.22623   0.83895   0.75565   0.00000  Uiso   1.00
O789   O     0.10476   0.75245   0.74414   0.00000  Uiso   1.00
O790   O     0.20536   0.76193   0.75367   0.00000  Uiso   1.00
O791   O     0.14092   0.83092   0.67207   0.00000  Uiso   1.00
O792   O     0.24152   0.84040   0.68161   0.00000  Uiso   1.00
C793   C     0.15198   0.73335   0.74670   0.00000  Uiso   1.00
C794   C     0.20016   0.83785   0.65331   0.00000  Uiso   1.00
C795   C     0.28613   0.90202   0.53195   0.00000  Uiso   1.00
H796   H     0.30788   0.90050   0.60582   0.00000  Uiso   1.00
H797   H     0.29249   0.93590   0.94036   0.00000  Uiso   1.00
H798   H     0.32871   0.93030   0.51886   0.00000  Uiso   1.00
C799   C     0.21987   0.84836   0.59897   0.00000  Uiso   1.00
C800   C     0.05500   0.79627   0.92136   0.00000  Uiso   1.00
C801   C     0.03805   0.78444   0.97247   0.00000  Uiso   1.00
C802   C     0.08001   0.80158   0.50512   0.00000  Uiso   1.00
C803   C     0.13951   0.83331   0.98765   0.00000  Uiso   1.00
C804   C     0.15359   0.85055   0.93712   0.00000  Uiso   1.00
C805   C     0.18528   0.84892   0.51875   0.00000  Uiso   1.00
C806   C     0.24123   0.88556   0.50110   0.00000  Uiso   1.00
C807   C     0.25098   0.90650   0.95354   0.00000  Uiso   1.00
C808   C     0.20759   0.88969   0.92221   0.00000  Uiso   1.00
C809   C     0.17722   0.82914   0.56697   0.00000  Uiso   1.00
C810   C     0.27502   0.88418   0.58107   0.00000  Uiso   1.00
C811   C     0.11302   0.82828   0.90284   0.00000  Uiso   1.00
H812   H     0.13725   0.79945   0.58135   0.00000  Uiso   1.00
H813   H     0.02346   0.77856   0.89587   0.00000  Uiso   1.00
H814   H     0.06392   0.78998   0.54395   0.00000  Uiso   1.00
H815   H     0.32626   0.76001   0.98644   0.00000  Uiso   1.00
H816   H     0.21659   0.90841   0.88641   0.00000  Uiso   1.00
C817   C     0.18946   0.98933   0.75054   0.00000  Uiso   1.00
H818   H     0.22868   0.68021   0.76558   0.00000  Uiso   1.00
C819   C     0.14630   0.67734   0.73806   0.00000  Uiso   1.00
N820   N     0.31574   0.84741   0.76416   0.00000  Uiso   1.00
N821   N     0.01759   0.81926   0.73584   0.00000  Uiso   1.00
N822   N     0.09809   0.98075   0.71222   0.00000  Uiso   1.00
O823   O     0.04093   0.98467   0.72880   0.00000  Uiso   1.00
O824   O     0.11261   0.95561   0.66822   0.00000  Uiso   1.00
N825   N     0.32958   0.86382   0.81214   0.00000  Uiso   1.00
O826   O     0.01890   0.91346   0.82218   0.00000  Uiso   1.00
O827   O     0.30467   0.83360   0.85005   0.00000  Uiso   1.00
S828   S     0.00761   0.79001   0.67549   0.00000  Uiso   1.00
O829   O     0.27803   0.75636   0.67345   0.00000  Uiso   1.00
O830   O     0.02367   0.83203   0.63774   0.00000  Uiso   1.00
O831   O     0.05644   0.74917   0.65664   0.00000  Uiso   1.00
H832   H     0.04656   0.73164   0.62373   0.00000  Uiso   1.00
O833   O     0.46131   0.90474   0.74633   0.00000  Uiso   1.00
O834   O     0.56191   0.91422   0.75587   0.00000  Uiso   1.00
C835   C     0.51556   0.93323   0.75005   0.00000  Uiso   1.00
O836   O     0.42515   0.82627   0.81840   0.00000  Uiso   1.00
O837   O     0.52575   0.83575   0.82793   0.00000  Uiso   1.00
C838   C     0.46682   0.83174   0.84704   0.00000  Uiso   1.00
Cu839  Cu    0.44043   0.82772   0.74436   0.00000  Uiso   1.00
Cu840  Cu    0.55957   0.83895   0.75565   0.00000  Uiso   1.00
O841   O     0.43809   0.75245   0.74414   0.00000  Uiso   1.00
O842   O     0.53869   0.76193   0.75367   0.00000  Uiso   1.00
O843   O     0.47425   0.83092   0.67207   0.00000  Uiso   1.00
O844   O     0.57485   0.84040   0.68161   0.00000  Uiso   1.00
C845   C     0.48532   0.73335   0.74670   0.00000  Uiso   1.00
C846   C     0.53350   0.83785   0.65331   0.00000  Uiso   1.00
C847   C     0.61947   0.90202   0.53195   0.00000  Uiso   1.00
H848   H     0.64121   0.90050   0.60582   0.00000  Uiso   1.00
H849   H     0.62582   0.93590   0.94036   0.00000  Uiso   1.00
H850   H     0.66204   0.93030   0.51886   0.00000  Uiso   1.00
C851   C     0.55321   0.84836   0.59897   0.00000  Uiso   1.00
C852   C     0.38833   0.79627   0.92136   0.00000  Uiso   1.00
C853   C     0.37139   0.78444   0.97247   0.00000  Uiso   1.00
C854   C     0.41334   0.80158   0.50512   0.00000  Uiso   1.00
C855   C     0.47284   0.83331   0.98765   0.00000  Uiso   1.00
C856   C     0.48692   0.85055   0.93712   0.00000  Uiso   1.00
C857   C     0.51862   0.84892   0.51875   0.00000  Uiso   1.00
C858   C     0.57457   0.88556   0.50110   0.00000  Uiso   1.00
C859   C     0.58431   0.90650   0.95354   0.00000  Uiso   1.00
C860   C     0.54093   0.88969   0.92221   0.00000  Uiso   1.00
C861   C     0.51055   0.82914   0.56697   0.00000  Uiso   1.00
C862   C     0.60836   0.88418   0.58107   0.00000  Uiso   1.00
C863   C     0.44635   0.82828   0.90284   0.00000  Uiso   1.00
H864   H     0.47058   0.79945   0.58135   0.00000  Uiso   1.00
H865   H     0.35679   0.77856   0.89587   0.00000  Uiso   1.00
H866   H     0.39725   0.78998   0.54395   0.00000  Uiso   1.00
H867   H     0.65959   0.76001   0.98644   0.00000  Uiso   1.00
H868   H     0.54992   0.90841   0.88641   0.00000  Uiso   1.00
C869   C     0.52279   0.98933   0.75054   0.00000  Uiso   1.00
H870   H     0.56201   0.68021   0.76558   0.00000  Uiso   1.00
C871   C     0.47963   0.67734   0.73806   0.00000  Uiso   1.00
N872   N     0.64908   0.84741   0.76416   0.00000  Uiso   1.00
N873   N     0.35092   0.81926   0.73584   0.00000  Uiso   1.00
N874   N     0.43142   0.98075   0.71222   0.00000  Uiso   1.00
O875   O     0.37426   0.98467   0.72880   0.00000  Uiso   1.00
O876   O     0.44595   0.95561   0.66822   0.00000  Uiso   1.00
N877   N     0.66292   0.86382   0.81214   0.00000  Uiso   1.00
O878   O     0.35224   0.91346   0.82218   0.00000  Uiso   1.00
O879   O     0.63800   0.83360   0.85005   0.00000  Uiso   1.00
S880   S     0.34095   0.79001   0.67549   0.00000  Uiso   1.00
O881   O     0.61137   0.75636   0.67345   0.00000  Uiso   1.00
O882   O     0.35700   0.83203   0.63774   0.00000  Uiso   1.00
O883   O     0.38978   0.74917   0.65664   0.00000  Uiso   1.00
H884   H     0.37990   0.73164   0.62373   0.00000  Uiso   1.00
O885   O     0.79464   0.90474   0.74633   0.00000  Uiso   1.00
O886   O     0.89524   0.91422   0.75587   0.00000  Uiso   1.00
C887   C     0.84890   0.93323   0.75005   0.00000  Uiso   1.00
O888   O     0.75848   0.82627   0.81840   0.00000  Uiso   1.00
O889   O     0.85908   0.83575   0.82793   0.00000  Uiso   1.00
C890   C     0.80015   0.83174   0.84704   0.00000  Uiso   1.00
Cu891  Cu    0.77377   0.82772   0.74436   0.00000  Uiso   1.00
Cu892  Cu    0.89290   0.83895   0.75565   0.00000  Uiso   1.00
O893   O     0.77142   0.75245   0.74414   0.00000  Uiso   1.00
O894   O     0.87203   0.76193   0.75367   0.00000  Uiso   1.00
O895   O     0.80758   0.83092   0.67207   0.00000  Uiso   1.00
O896   O     0.90819   0.84040   0.68161   0.00000  Uiso   1.00
C897   C     0.81865   0.73335   0.74670   0.00000  Uiso   1.00
C898   C     0.86683   0.83785   0.65331   0.00000  Uiso   1.00
C899   C     0.95280   0.90202   0.53195   0.00000  Uiso   1.00
H900   H     0.97455   0.90050   0.60582   0.00000  Uiso   1.00
H901   H     0.95915   0.93590   0.94036   0.00000  Uiso   1.00
H902   H     0.99537   0.93030   0.51886   0.00000  Uiso   1.00
C903   C     0.88654   0.84836   0.59897   0.00000  Uiso   1.00
C904   C     0.72167   0.79627   0.92136   0.00000  Uiso   1.00
C905   C     0.70472   0.78444   0.97247   0.00000  Uiso   1.00
C906   C     0.74667   0.80158   0.50512   0.00000  Uiso   1.00
C907   C     0.80618   0.83331   0.98765   0.00000  Uiso   1.00
C908   C     0.82026   0.85055   0.93712   0.00000  Uiso   1.00
C909   C     0.85195   0.84892   0.51875   0.00000  Uiso   1.00
C910   C     0.90790   0.88556   0.50110   0.00000  Uiso   1.00
C911   C     0.91765   0.90650   0.95354   0.00000  Uiso   1.00
C912   C     0.87426   0.88969   0.92221   0.00000  Uiso   1.00
C913   C     0.84389   0.82914   0.56697   0.00000  Uiso   1.00
C914   C     0.94169   0.88418   0.58107   0.00000  Uiso   1.00
C915   C     0.77969   0.82828   0.90284   0.00000  Uiso   1.00
H916   H     0.80392   0.79945   0.58135   0.00000  Uiso   1.00
H917   H     0.69012   0.77856   0.89587   0.00000  Uiso   1.00
H918   H     0.73058   0.78998   0.54395   0.00000  Uiso   1.00
H919   H     0.99293   0.76001   0.98644   0.00000  Uiso   1.00
H920   H     0.88326   0.90841   0.88641   0.00000  Uiso   1.00
C921   C     0.85613   0.98933   0.75054   0.00000  Uiso   1.00
H922   H     0.89535   0.68021   0.76558   0.00000  Uiso   1.00
C923   C     0.81297   0.67734   0.73806   0.00000  Uiso   1.00
N924   N     0.98241   0.84741   0.76416   0.00000  Uiso   1.00
N925   N     0.68426   0.81926   0.73584   0.00000  Uiso   1.00
N926   N     0.76476   0.98075   0.71222   0.00000  Uiso   1.00
O927   O     0.70760   0.98467   0.72880   0.00000  Uiso   1.00
O928   O     0.77928   0.95561   0.66822   0.00000  Uiso   1.00
N929   N     0.99625   0.86382   0.81214   0.00000  Uiso   1.00
O930   O     0.68557   0.91346   0.82218   0.00000  Uiso   1.00
O931   O     0.97134   0.83360   0.85005   0.00000  Uiso   1.00
S932   S     0.67428   0.79001   0.67549   0.00000  Uiso   1.00
O933   O     0.94470   0.75636   0.67345   0.00000  Uiso   1.00
O934   O     0.69034   0.83203   0.63774   0.00000  Uiso   1.00
O935   O     0.72311   0.74917   0.65664   0.00000  Uiso   1.00
H936   H     0.71323   0.73164   0.62373   0.00000  Uiso   1.00
loop_
_geom_bond_atom_site_label_1
_geom_bond_atom_site_label_2
_geom_bond_distance
_geom_bond_site_symmetry_2
_ccdc_geom_bond_type
O1     Cu7     1.956   .     S
O1     C3      1.295   .     A
O2     C3      1.307   .     A
O2     Cu8     1.958   .     S
C3     C37     1.437   .     S
O4     Cu7     1.938   .     S
O4     C6      1.311   .     A
O5     C6      1.308   .     A
O5     Cu8     1.924   .     S
C6     C31     1.471   .     S
Cu7    Cu8     2.723   .     S
Cu7    O11     1.924   .     S
Cu7    N41     2.046   .     S
Cu7    O9      1.958   .     S
Cu8    O12     1.938   .     S
Cu8    O10     1.956   .     S
Cu8    N40     2.046   .     S
O9     C13     1.301   .     A
O10    C13     1.301   .     A
O11    C14     1.305   .     A
O12    C14     1.310   .     A
C13    C39     1.438   .     S
C14    C19     1.462   .     S
C15    H18     1.084   .     S
C15    C30     1.393   .     A
C15    C26     1.404   .     A
H16    C30     1.082   .     S
H17    C27     1.084   .     S
C19    C30     1.399   .     A
C19    C29     1.395   .     A
C20    H33     1.082   .     S
C20    C21     1.386   .     A
C20    C31     1.402   .     A
C21    C490    1.390   .     S
C21    H139    1.083   1_455 S
C22    H34     1.076   .     S
C22    C489    1.390   1_554 S
C22    C491    1.418   1_554 S
C23    C24     1.418   .     A
C23    C490    1.418   .     S
C23    C493    1.423   .     S
C24    C31     1.418   .     A
C24    C28     1.411   .     A
C25    C29     1.401   .     A
C25    C26     1.420   .     A
C25    C491    1.423   1_554 S
C26    C495    1.393   1_554 S
C27    C28     1.388   .     A
C27    C494    1.393   .     S
C28    H36     1.081   .     S
C29    H32     1.074   .     S
H35    C73     1.083   .     S
C37    H194    1.087   .     S
C37    C195    1.349   .     S
H38    C349    1.087   1_545 S
C39    C349    1.349   1_545 S
C39    N354    1.442   1_545 S
N40    N45     1.384   .     S
N40    N93     1.285   .     S
N41    S48     1.745   .     S
N41    N144    1.285   1_455 S
N42    O44     1.302   .     A
N42    O43     1.301   .     A
N42    C195    1.442   .     S
N45    O47     1.300   .     A
N45    O98     1.300   .     S
O46    N149    1.300   1_455 S
S48    O50     1.502   .     D
S48    O51     1.682   .     S
S48    O153    1.496   1_455 S
O49    S100    1.496   .     S
O51    H52     0.991   .     S
O53    Cu59    1.956   .     S
O53    C55     1.295   .     A
O54    C55     1.307   .     A
O54    Cu60    1.958   .     S
C55    C89     1.437   .     S
O56    Cu59    1.938   .     S
O56    C58     1.311   .     A
O57    C58     1.308   .     A
O57    Cu60    1.924   .     S
C58    C83     1.471   .     S
Cu59   Cu60    2.723   .     S
Cu59   O63     1.924   .     S
Cu59   N93     2.046   .     S
Cu59   O61     1.958   .     S
Cu60   O64     1.938   .     S
Cu60   O62     1.956   .     S
Cu60   N92     2.046   .     S
O61    C65     1.301   .     A
O62    C65     1.301   .     A
O63    C66     1.305   .     A
O64    C66     1.310   .     A
C65    C91     1.438   .     S
C66    C71     1.462   .     S
C67    H70     1.084   .     S
C67    C82     1.393   .     A
C67    C78     1.404   .     A
H68    C82     1.082   .     S
H69    C79     1.084   .     S
C71    C82     1.399   .     A
C71    C81     1.395   .     A
C72    H85     1.082   .     S
C72    C73     1.386   .     A
C72    C83     1.402   .     A
C73    C542    1.390   .     S
C74    H86     1.076   .     S
C74    C541    1.390   1_554 S
C74    C543    1.418   1_554 S
C75    C76     1.418   .     A
C75    C542    1.418   .     S
C75    C545    1.423   .     S
C76    C83     1.418   .     A
C76    C80     1.411   .     A
C77    C81     1.401   .     A
C77    C78     1.420   .     A
C77    C543    1.423   1_554 S
C78    C547    1.393   1_554 S
C79    C80     1.388   .     A
C79    C546    1.393   .     S
C80    H88     1.081   .     S
C81    H84     1.074   .     S
H87    C125    1.083   .     S
C89    H246    1.087   .     S
C89    C247    1.349   .     S
H90    C401    1.087   1_545 S
C91    C401    1.349   1_545 S
C91    N406    1.442   1_545 S
N92    N97     1.384   .     S
N92    N145    1.285   .     S
N93    S100    1.745   .     S
N94    O96     1.302   .     A
N94    O95     1.301   .     A
N94    C247    1.442   .     S
N97    O99     1.300   .     A
N97    O150    1.300   .     S
S100   O102    1.502   .     D
S100   O103    1.682   .     S
O101   S152    1.496   .     S
O103   H104    0.991   .     S
O105   Cu111   1.956   .     S
O105   C107    1.295   .     A
O106   C107    1.307   .     A
O106   Cu112   1.958   .     S
C107   C141    1.437   .     S
O108   Cu111   1.938   .     S
O108   C110    1.311   .     A
O109   C110    1.308   .     A
O109   Cu112   1.924   .     S
C110   C135    1.471   .     S
Cu111  Cu112   2.723   .     S
Cu111  O115    1.924   .     S
Cu111  N145    2.046   .     S
Cu111  O113    1.958   .     S
Cu112  O116    1.938   .     S
Cu112  O114    1.956   .     S
Cu112  N144    2.046   .     S
O113   C117    1.301   .     A
O114   C117    1.301   .     A
O115   C118    1.305   .     A
O116   C118    1.310   .     A
C117   C143    1.438   .     S
C118   C123    1.462   .     S
C119   H122    1.084   .     S
C119   C134    1.393   .     A
C119   C130    1.404   .     A
H120   C134    1.082   .     S
H121   C131    1.084   .     S
C123   C134    1.399   .     A
C123   C133    1.395   .     A
C124   H137    1.082   .     S
C124   C125    1.386   .     A
C124   C135    1.402   .     A
C125   C594    1.390   .     S
C126   H138    1.076   .     S
C126   C593    1.390   1_554 S
C126   C595    1.418   1_554 S
C127   C128    1.418   .     A
C127   C594    1.418   .     S
C127   C597    1.423   .     S
C128   C135    1.418   .     A
C128   C132    1.411   .     A
C129   C133    1.401   .     A
C129   C130    1.420   .     A
C129   C595    1.423   1_554 S
C130   C599    1.393   1_554 S
C131   C132    1.388   .     A
C131   C598    1.393   .     S
C132   H140    1.081   .     S
C133   H136    1.074   .     S
H139   C21     1.083   1_655 S
C141   H298    1.087   .     S
C141   C299    1.349   .     S
H142   C453    1.087   1_545 S
C143   C453    1.349   1_545 S
C143   N458    1.442   1_545 S
N144   N149    1.384   .     S
N144   N41     1.285   1_655 S
N145   S152    1.745   .     S
N146   O148    1.302   .     A
N146   O147    1.301   .     A
N146   C299    1.442   .     S
N149   O151    1.300   .     A
N149   O46     1.300   1_655 S
S152   O154    1.502   .     D
S152   O155    1.682   .     S
O153   S48     1.496   1_655 S
O155   H156    0.991   .     S
O157   Cu163   1.956   .     S
O157   C159    1.295   .     A
O158   C159    1.307   .     A
O158   Cu164   1.958   .     S
C159   C193    1.437   .     S
O160   Cu163   1.938   .     S
O160   C162    1.311   .     A
O161   C162    1.308   .     A
O161   Cu164   1.924   .     S
C162   C187    1.471   .     S
Cu163  Cu164   2.723   .     S
Cu163  O167    1.924   .     S
Cu163  N197    2.046   .     S
Cu163  O165    1.958   .     S
Cu164  O168    1.938   .     S
Cu164  O166    1.956   .     S
Cu164  N196    2.046   .     S
O165   C169    1.301   .     A
O166   C169    1.301   .     A
O167   C170    1.305   .     A
O168   C170    1.310   .     A
C169   C195    1.438   .     S
C170   C175    1.462   .     S
C171   H174    1.084   .     S
C171   C186    1.393   .     A
C171   C182    1.404   .     A
H172   C186    1.082   .     S
H173   C183    1.084   .     S
C175   C186    1.399   .     A
C175   C185    1.395   .     A
C176   H189    1.082   .     S
C176   C177    1.386   .     A
C176   C187    1.402   .     A
C177   C646    1.390   .     S
C177   H295    1.083   1_455 S
C178   H190    1.076   .     S
C178   C645    1.390   1_554 S
C178   C647    1.418   1_554 S
C179   C180    1.418   .     A
C179   C646    1.418   .     S
C179   C649    1.423   .     S
C180   C187    1.418   .     A
C180   C184    1.411   .     A
C181   C185    1.401   .     A
C181   C182    1.420   .     A
C181   C647    1.423   1_554 S
C182   C651    1.393   1_554 S
C183   C184    1.388   .     A
C183   C650    1.393   .     S
C184   H192    1.081   .     S
C185   H188    1.074   .     S
H191   C229    1.083   .     S
C193   H350    1.087   .     S
C193   C351    1.349   .     S
N196   N201    1.384   .     S
N196   N249    1.285   .     S
N197   S204    1.745   .     S
N197   N300    1.285   1_455 S
N198   O200    1.302   .     A
N198   O199    1.301   .     A
N198   C351    1.442   .     S
N201   O203    1.300   .     A
N201   O254    1.300   .     S
O202   N305    1.300   1_455 S
S204   O206    1.502   .     D
S204   O207    1.682   .     S
S204   O309    1.496   1_455 S
O205   S256    1.496   .     S
O207   H208    0.991   .     S
O209   Cu215   1.956   .     S
O209   C211    1.295   .     A
O210   C211    1.307   .     A
O210   Cu216   1.958   .     S
C211   C245    1.437   .     S
O212   Cu215   1.938   .     S
O212   C214    1.311   .     A
O213   C214    1.308   .     A
O213   Cu216   1.924   .     S
C214   C239    1.471   .     S
Cu215  Cu216   2.723   .     S
Cu215  O219    1.924   .     S
Cu215  N249    2.046   .     S
Cu215  O217    1.958   .     S
Cu216  O220    1.938   .     S
Cu216  O218    1.956   .     S
Cu216  N248    2.046   .     S
O217   C221    1.301   .     A
O218   C221    1.301   .     A
O219   C222    1.305   .     A
O220   C222    1.310   .     A
C221   C247    1.438   .     S
C222   C227    1.462   .     S
C223   H226    1.084   .     S
C223   C238    1.393   .     A
C223   C234    1.404   .     A
H224   C238    1.082   .     S
H225   C235    1.084   .     S
C227   C238    1.399   .     A
C227   C237    1.395   .     A
C228   H241    1.082   .     S
C228   C229    1.386   .     A
C228   C239    1.402   .     A
C229   C698    1.390   .     S
C230   H242    1.076   .     S
C230   C697    1.390   1_554 S
C230   C699    1.418   1_554 S
C231   C232    1.418   .     A
C231   C698    1.418   .     S
C231   C701    1.423   .     S
C232   C239    1.418   .     A
C232   C236    1.411   .     A
C233   C237    1.401   .     A
C233   C234    1.420   .     A
C233   C699    1.423   1_554 S
C234   C703    1.393   1_554 S
C235   C236    1.388   .     A
C235   C702    1.393   .     S
C236   H244    1.081   .     S
C237   H240    1.074   .     S
H243   C281    1.083   .     S
C245   H402    1.087   .     S
C245   C403    1.349   .     S
N248   N253    1.384   .     S
N248   N301    1.285   .     S
N249   S256    1.745   .     S
N250   O252    1.302   .     A
N250   O251    1.301   .     A
N250   C403    1.442   .     S
N253   O255    1.300   .     A
N253   O306    1.300   .     S
S256   O258    1.502   .     D
S256   O259    1.682   .     S
O257   S308    1.496   .     S
O259   H260    0.991   .     S
O261   Cu267   1.956   .     S
O261   C263    1.295   .     A
O262   C263    1.307   .     A
O262   Cu268   1.958   .     S
C263   C297    1.437   .     S
O264   Cu267   1.938   .     S
O264   C266    1.311   .     A
O265   C266    1.308   .     A
O265   Cu268   1.924   .     S
C266   C291    1.471   .     S
Cu267  Cu268   2.723   .     S
Cu267  O271    1.924   .     S
Cu267  N301    2.046   .     S
Cu267  O269    1.958   .     S
Cu268  O272    1.938   .     S
Cu268  O270    1.956   .     S
Cu268  N300    2.046   .     S
O269   C273    1.301   .     A
O270   C273    1.301   .     A
O271   C274    1.305   .     A
O272   C274    1.310   .     A
C273   C299    1.438   .     S
C274   C279    1.462   .     S
C275   H278    1.084   .     S
C275   C290    1.393   .     A
C275   C286    1.404   .     A
H276   C290    1.082   .     S
H277   C287    1.084   .     S
C279   C290    1.399   .     A
C279   C289    1.395   .     A
C280   H293    1.082   .     S
C280   C281    1.386   .     A
C280   C291    1.402   .     A
C281   C750    1.390   .     S
C282   H294    1.076   .     S
C282   C749    1.390   1_554 S
C282   C751    1.418   1_554 S
C283   C284    1.418   .     A
C283   C750    1.418   .     S
C283   C753    1.423   .     S
C284   C291    1.418   .     A
C284   C288    1.411   .     A
C285   C289    1.401   .     A
C285   C286    1.420   .     A
C285   C751    1.423   1_554 S
C286   C755    1.393   1_554 S
C287   C288    1.388   .     A
C287   C754    1.393   .     S
C288   H296    1.081   .     S
C289   H292    1.074   .     S
H295   C177    1.083   1_655 S
C297   H454    1.087   .     S
C297   C455    1.349   .     S
N300   N305    1.384   .     S
N300   N197    1.285   1_655 S
N301   S308    1.745   .     S
N302   O304    1.302   .     A
N302   O303    1.301   .     A
N302   C455    1.442   .     S
N305   O307    1.300   .     A
N305   O202    1.300   1_655 S
S308   O310    1.502   .     D
S308   O311    1.682   .     S
O309   S204    1.496   1_655 S
O311   H312    0.991   .     S
O313   Cu319   1.956   .     S
O313   C315    1.295   .     A
O314   C315    1.307   .     A
O314   Cu320   1.958   .     S
C315   C349    1.437   .     S
O316   Cu319   1.938   .     S
O316   C318    1.311   .     A
O317   C318    1.308   .     A
O317   Cu320   1.924   .     S
C318   C343    1.471   .     S
Cu319  Cu320   2.723   .     S
Cu319  O323    1.924   .     S
Cu319  N353    2.046   .     S
Cu319  O321    1.958   .     S
Cu320  O324    1.938   .     S
Cu320  O322    1.956   .     S
Cu320  N352    2.046   .     S
O321   C325    1.301   .     A
O322   C325    1.301   .     A
O323   C326    1.305   .     A
O324   C326    1.310   .     A
C325   C351    1.438   .     S
C326   C331    1.462   .     S
C327   H330    1.084   .     S
C327   C342    1.393   .     A
C327   C338    1.404   .     A
H328   C342    1.082   .     S
H329   C339    1.084   .     S
C331   C342    1.399   .     A
C331   C341    1.395   .     A
C332   H345    1.082   .     S
C332   C333    1.386   .     A
C332   C343    1.402   .     A
C333   C802    1.390   .     S
C333   H451    1.083   1_455 S
C334   H346    1.076   .     S
C334   C801    1.390   1_554 S
C334   C803    1.418   1_554 S
C335   C336    1.418   .     A
C335   C802    1.418   .     S
C335   C805    1.423   .     S
C336   C343    1.418   .     A
C336   C340    1.411   .     A
C337   C341    1.401   .     A
C337   C338    1.420   .     A
C337   C803    1.423   1_554 S
C338   C807    1.393   1_554 S
C339   C340    1.388   .     A
C339   C806    1.393   .     S
C340   H348    1.081   .     S
C341   H344    1.074   .     S
H347   C385    1.083   .     S
C349   H38     1.087   1_565 S
C349   C39     1.349   1_565 S
N352   N357    1.384   .     S
N352   N405    1.285   .     S
N353   S360    1.745   .     S
N353   N456    1.285   1_455 S
N354   O356    1.302   .     A
N354   O355    1.301   .     A
N354   C39     1.442   1_565 S
N357   O359    1.300   .     A
N357   O410    1.300   .     S
O358   N461    1.300   1_455 S
S360   O362    1.502   .     D
S360   O363    1.682   .     S
S360   O465    1.496   1_455 S
O361   S412    1.496   .     S
O363   H364    0.991   .     S
O365   Cu371   1.956   .     S
O365   C367    1.295   .     A
O366   C367    1.307   .     A
O366   Cu372   1.958   .     S
C367   C401    1.437   .     S
O368   Cu371   1.938   .     S
O368   C370    1.311   .     A
O369   C370    1.308   .     A
O369   Cu372   1.924   .     S
C370   C395    1.471   .     S
Cu371  Cu372   2.723   .     S
Cu371  O375    1.924   .     S
Cu371  N405    2.046   .     S
Cu371  O373    1.958   .     S
Cu372  O376    1.938   .     S
Cu372  O374    1.956   .     S
Cu372  N404    2.046   .     S
O373   C377    1.301   .     A
O374   C377    1.301   .     A
O375   C378    1.305   .     A
O376   C378    1.310   .     A
C377   C403    1.438   .     S
C378   C383    1.462   .     S
C379   H382    1.084   .     S
C379   C394    1.393   .     A
C379   C390    1.404   .     A
H380   C394    1.082   .     S
H381   C391    1.084   .     S
C383   C394    1.399   .     A
C383   C393    1.395   .     A
C384   H397    1.082   .     S
C384   C385    1.386   .     A
C384   C395    1.402   .     A
C385   C854    1.390   .     S
C386   H398    1.076   .     S
C386   C853    1.390   1_554 S
C386   C855    1.418   1_554 S
C387   C388    1.418   .     A
C387   C854    1.418   .     S
C387   C857    1.423   .     S
C388   C395    1.418   .     A
C388   C392    1.411   .     A
C389   C393    1.401   .     A
C389   C390    1.420   .     A
C389   C855    1.423   1_554 S
C390   C859    1.393   1_554 S
C391   C392    1.388   .     A
C391   C858    1.393   .     S
C392   H400    1.081   .     S
C393   H396    1.074   .     S
H399   C437    1.083   .     S
C401   H90     1.087   1_565 S
C401   C91     1.349   1_565 S
N404   N409    1.384   .     S
N404   N457    1.285   .     S
N405   S412    1.745   .     S
N406   O408    1.302   .     A
N406   O407    1.301   .     A
N406   C91     1.442   1_565 S
N409   O411    1.300   .     A
N409   O462    1.300   .     S
S412   O414    1.502   .     D
S412   O415    1.682   .     S
O413   S464    1.496   .     S
O415   H416    0.991   .     S
O417   Cu423   1.956   .     S
O417   C419    1.295   .     A
O418   C419    1.307   .     A
O418   Cu424   1.958   .     S
C419   C453    1.437   .     S
O420   Cu423   1.938   .     S
O420   C422    1.311   .     A
O421   C422    1.308   .     A
O421   Cu424   1.924   .     S
C422   C447    1.471   .     S
Cu423  Cu424   2.723   .     S
Cu423  O427    1.924   .     S
Cu423  N457    2.046   .     S
Cu423  O425    1.958   .     S
Cu424  O428    1.938   .     S
Cu424  O426    1.956   .     S
Cu424  N456    2.046   .     S
O425   C429    1.301   .     A
O426   C429    1.301   .     A
O427   C430    1.305   .     A
O428   C430    1.310   .     A
C429   C455    1.438   .     S
C430   C435    1.462   .     S
C431   H434    1.084   .     S
C431   C446    1.393   .     A
C431   C442    1.404   .     A
H432   C446    1.082   .     S
H433   C443    1.084   .     S
C435   C446    1.399   .     A
C435   C445    1.395   .     A
C436   H449    1.082   .     S
C436   C437    1.386   .     A
C436   C447    1.402   .     A
C437   C906    1.390   .     S
C438   H450    1.076   .     S
C438   C905    1.390   1_554 S
C438   C907    1.418   1_554 S
C439   C440    1.418   .     A
C439   C906    1.418   .     S
C439   C909    1.423   .     S
C440   C447    1.418   .     A
C440   C444    1.411   .     A
C441   C445    1.401   .     A
C441   C442    1.420   .     A
C441   C907    1.423   1_554 S
C442   C911    1.393   1_554 S
C443   C444    1.388   .     A
C443   C910    1.393   .     S
C444   H452    1.081   .     S
C445   H448    1.074   .     S
H451   C333    1.083   1_655 S
C453   H142    1.087   1_565 S
C453   C143    1.349   1_565 S
N456   N461    1.384   .     S
N456   N353    1.285   1_655 S
N457   S464    1.745   .     S
N458   O460    1.302   .     A
N458   O459    1.301   .     A
N458   C143    1.442   1_565 S
N461   O463    1.300   .     A
N461   O358    1.300   1_655 S
S464   O466    1.502   .     D
S464   O467    1.682   .     S
O465   S360    1.496   1_655 S
O467   H468    0.991   .     S
O469   Cu475   1.956   .     S
O469   C471    1.295   .     A
O470   C471    1.307   .     A
O470   Cu476   1.958   .     S
C471   C505    1.437   .     S
O472   Cu475   1.938   .     S
O472   C474    1.311   .     A
O473   C474    1.308   .     A
O473   Cu476   1.924   .     S
C474   C499    1.471   .     S
Cu475  Cu476   2.723   .     S
Cu475  O479    1.924   .     S
Cu475  N509    2.046   .     S
Cu475  O477    1.958   .     S
Cu476  O480    1.938   .     S
Cu476  O478    1.956   .     S
Cu476  N508    2.046   .     S
O477   C481    1.301   .     A
O478   C481    1.301   .     A
O479   C482    1.305   .     A
O480   C482    1.310   .     A
C481   C507    1.438   .     S
C482   C487    1.462   .     S
C483   H486    1.084   .     S
C483   C498    1.393   .     A
C483   C494    1.404   .     A
H484   C498    1.082   .     S
H485   C495    1.084   .     S
C487   C498    1.399   .     A
C487   C497    1.395   .     A
C488   H501    1.082   .     S
C488   C489    1.386   .     A
C488   C499    1.402   .     A
C489   C22     1.390   1_556 S
C489   H607    1.083   1_455 S
C490   H502    1.076   .     S
C491   C492    1.418   .     A
C491   C22     1.418   1_556 S
C491   C25     1.423   1_556 S
C492   C499    1.418   .     A
C492   C496    1.411   .     A
C493   C497    1.401   .     A
C493   C494    1.420   .     A
C495   C496    1.388   .     A
C495   C26     1.393   1_556 S
C496   H504    1.081   .     S
C497   H500    1.074   .     S
H503   C541    1.083   .     S
C505   H662    1.087   .     S
C505   C663    1.349   .     S
H506   C817    1.087   1_545 S
C507   C817    1.349   1_545 S
C507   N822    1.442   1_545 S
N508   N513    1.384   .     S
N508   N561    1.285   .     S
N509   S516    1.745   .     S
N509   N612    1.285   1_455 S
N510   O512    1.302   .     A
N510   O511    1.301   .     A
N510   C663    1.442   .     S
N513   O515    1.300   .     A
N513   O566    1.300   .     S
O514   N617    1.300   1_455 S
S516   O518    1.502   .     D
S516   O519    1.682   .     S
S516   O621    1.496   1_455 S
O517   S568    1.496   .     S
O519   H520    0.991   .     S
O521   Cu527   1.956   .     S
O521   C523    1.295   .     A
O522   C523    1.307   .     A
O522   Cu528   1.958   .     S
C523   C557    1.437   .     S
O524   Cu527   1.938   .     S
O524   C526    1.311   .     A
O525   C526    1.308   .     A
O525   Cu528   1.924   .     S
C526   C551    1.471   .     S
Cu527  Cu528   2.723   .     S
Cu527  O531    1.924   .     S
Cu527  N561    2.046   .     S
Cu527  O529    1.958   .     S
Cu528  O532    1.938   .     S
Cu528  O530    1.956   .     S
Cu528  N560    2.046   .     S
O529   C533    1.301   .     A
O530   C533    1.301   .     A
O531   C534    1.305   .     A
O532   C534    1.310   .     A
C533   C559    1.438   .     S
C534   C539    1.462   .     S
C535   H538    1.084   .     S
C535   C550    1.393   .     A
C535   C546    1.404   .     A
H536   C550    1.082   .     S
H537   C547    1.084   .     S
C539   C550    1.399   .     A
C539   C549    1.395   .     A
C540   H553    1.082   .     S
C540   C541    1.386   .     A
C540   C551    1.402   .     A
C541   C74     1.390   1_556 S
C542   H554    1.076   .     S
C543   C544    1.418   .     A
C543   C74     1.418   1_556 S
C543   C77     1.423   1_556 S
C544   C551    1.418   .     A
C544   C548    1.411   .     A
C545   C549    1.401   .     A
C545   C546    1.420   .     A
C547   C548    1.388   .     A
C547   C78     1.393   1_556 S
C548   H556    1.081   .     S
C549   H552    1.074   .     S
H555   C593    1.083   .     S
C557   H714    1.087   .     S
C557   C715    1.349   .     S
H558   C869    1.087   1_545 S
C559   C869    1.349   1_545 S
C559   N874    1.442   1_545 S
N560   N565    1.384   .     S
N560   N613    1.285   .     S
N561   S568    1.745   .     S
N562   O564    1.302   .     A
N562   O563    1.301   .     A
N562   C715    1.442   .     S
N565   O567    1.300   .     A
N565   O618    1.300   .     S
S568   O570    1.502   .     D
S568   O571    1.682   .     S
O569   S620    1.496   .     S
O571   H572    0.991   .     S
O573   Cu579   1.956   .     S
O573   C575    1.295   .     A
O574   C575    1.307   .     A
O574   Cu580   1.958   .     S
C575   C609    1.437   .     S
O576   Cu579   1.938   .     S
O576   C578    1.311   .     A
O577   C578    1.308   .     A
O577   Cu580   1.924   .     S
C578   C603    1.471   .     S
Cu579  Cu580   2.723   .     S
Cu579  O583    1.924   .     S
Cu579  N613    2.046   .     S
Cu579  O581    1.958   .     S
Cu580  O584    1.938   .     S
Cu580  O582    1.956   .     S
Cu580  N612    2.046   .     S
O581   C585    1.301   .     A
O582   C585    1.301   .     A
O583   C586    1.305   .     A
O584   C586    1.310   .     A
C585   C611    1.438   .     S
C586   C591    1.462   .     S
C587   H590    1.084   .     S
C587   C602    1.393   .     A
C587   C598    1.404   .     A
H588   C602    1.082   .     S
H589   C599    1.084   .     S
C591   C602    1.399   .     A
C591   C601    1.395   .     A
C592   H605    1.082   .     S
C592   C593    1.386   .     A
C592   C603    1.402   .     A
C593   C126    1.390   1_556 S
C594   H606    1.076   .     S
C595   C596    1.418   .     A
C595   C126    1.418   1_556 S
C595   C129    1.423   1_556 S
C596   C603    1.418   .     A
C596   C600    1.411   .     A
C597   C601    1.401   .     A
C597   C598    1.420   .     A
C599   C600    1.388   .     A
C599   C130    1.393   1_556 S
C600   H608    1.081   .     S
C601   H604    1.074   .     S
H607   C489    1.083   1_655 S
C609   H766    1.087   .     S
C609   C767    1.349   .     S
H610   C921    1.087   1_545 S
C611   C921    1.349   1_545 S
C611   N926    1.442   1_545 S
N612   N617    1.384   .     S
N612   N509    1.285   1_655 S
N613   S620    1.745   .     S
N614   O616    1.302   .     A
N614   O615    1.301   .     A
N614   C767    1.442   .     S
N617   O619    1.300   .     A
N617   O514    1.300   1_655 S
S620   O622    1.502   .     D
S620   O623    1.682   .     S
O621   S516    1.496   1_655 S
O623   H624    0.991   .     S
O625   Cu631   1.956   .     S
O625   C627    1.295   .     A
O626   C627    1.307   .     A
O626   Cu632   1.958   .     S
C627   C661    1.437   .     S
O628   Cu631   1.938   .     S
O628   C630    1.311   .     A
O629   C630    1.308   .     A
O629   Cu632   1.924   .     S
C630   C655    1.471   .     S
Cu631  Cu632   2.723   .     S
Cu631  O635    1.924   .     S
Cu631  N665    2.046   .     S
Cu631  O633    1.958   .     S
Cu632  O636    1.938   .     S
Cu632  O634    1.956   .     S
Cu632  N664    2.046   .     S
O633   C637    1.301   .     A
O634   C637    1.301   .     A
O635   C638    1.305   .     A
O636   C638    1.310   .     A
C637   C663    1.438   .     S
C638   C643    1.462   .     S
C639   H642    1.084   .     S
C639   C654    1.393   .     A
C639   C650    1.404   .     A
H640   C654    1.082   .     S
H641   C651    1.084   .     S
C643   C654    1.399   .     A
C643   C653    1.395   .     A
C644   H657    1.082   .     S
C644   C645    1.386   .     A
C644   C655    1.402   .     A
C645   C178    1.390   1_556 S
C645   H763    1.083   1_455 S
C646   H658    1.076   .     S
C647   C648    1.418   .     A
C647   C178    1.418   1_556 S
C647   C181    1.423   1_556 S
C648   C655    1.418   .     A
C648   C652    1.411   .     A
C649   C653    1.401   .     A
C649   C650    1.420   .     A
C651   C652    1.388   .     A
C651   C182    1.393   1_556 S
C652   H660    1.081   .     S
C653   H656    1.074   .     S
H659   C697    1.083   .     S
C661   H818    1.087   .     S
C661   C819    1.349   .     S
N664   N669    1.384   .     S
N664   N717    1.285   .     S
N665   S672    1.745   .     S
N665   N768    1.285   1_455 S
N666   O668    1.302   .     A
N666   O667    1.301   .     A
N666   C819    1.442   .     S
N669   O671    1.300   .     A
N669   O722    1.300   .     S
O670   N773    1.300   1_455 S
S672   O674    1.502   .     D
S672   O675    1.682   .     S
S672   O777    1.496   1_455 S
O673   S724    1.496   .     S
O675   H676    0.991   .     S
O677   Cu683   1.956   .     S
O677   C679    1.295   .     A
O678   C679    1.307   .     A
O678   Cu684   1.958   .     S
C679   C713    1.437   .     S
O680   Cu683   1.938   .     S
O680   C682    1.311   .     A
O681   C682    1.308   .     A
O681   Cu684   1.924   .     S
C682   C707    1.471   .     S
Cu683  Cu684   2.723   .     S
Cu683  O687    1.924   .     S
Cu683  N717    2.046   .     S
Cu683  O685    1.958   .     S
Cu684  O688    1.938   .     S
Cu684  O686    1.956   .     S
Cu684  N716    2.046   .     S
O685   C689    1.301   .     A
O686   C689    1.301   .     A
O687   C690    1.305   .     A
O688   C690    1.310   .     A
C689   C715    1.438   .     S
C690   C695    1.462   .     S
C691   H694    1.084   .     S
C691   C706    1.393   .     A
C691   C702    1.404   .     A
H692   C706    1.082   .     S
H693   C703    1.084   .     S
C695   C706    1.399   .     A
C695   C705    1.395   .     A
C696   H709    1.082   .     S
C696   C697    1.386   .     A
C696   C707    1.402   .     A
C697   C230    1.390   1_556 S
C698   H710    1.076   .     S
C699   C700    1.418   .     A
C699   C230    1.418   1_556 S
C699   C233    1.423   1_556 S
C700   C707    1.418   .     A
C700   C704    1.411   .     A
C701   C705    1.401   .     A
C701   C702    1.420   .     A
C703   C704    1.388   .     A
C703   C234    1.393   1_556 S
C704   H712    1.081   .     S
C705   H708    1.074   .     S
H711   C749    1.083   .     S
C713   H870    1.087   .     S
C713   C871    1.349   .     S
N716   N721    1.384   .     S
N716   N769    1.285   .     S
N717   S724    1.745   .     S
N718   O720    1.302   .     A
N718   O719    1.301   .     A
N718   C871    1.442   .     S
N721   O723    1.300   .     A
N721   O774    1.300   .     S
S724   O726    1.502   .     D
S724   O727    1.682   .     S
O725   S776    1.496   .     S
O727   H728    0.991   .     S
O729   Cu735   1.956   .     S
O729   C731    1.295   .     A
O730   C731    1.307   .     A
O730   Cu736   1.958   .     S
C731   C765    1.437   .     S
O732   Cu735   1.938   .     S
O732   C734    1.311   .     A
O733   C734    1.308   .     A
O733   Cu736   1.924   .     S
C734   C759    1.471   .     S
Cu735  Cu736   2.723   .     S
Cu735  O739    1.924   .     S
Cu735  N769    2.046   .     S
Cu735  O737    1.958   .     S
Cu736  O740    1.938   .     S
Cu736  O738    1.956   .     S
Cu736  N768    2.046   .     S
O737   C741    1.301   .     A
O738   C741    1.301   .     A
O739   C742    1.305   .     A
O740   C742    1.310   .     A
C741   C767    1.438   .     S
C742   C747    1.462   .     S
C743   H746    1.084   .     S
C743   C758    1.393   .     A
C743   C754    1.404   .     A
H744   C758    1.082   .     S
H745   C755    1.084   .     S
C747   C758    1.399   .     A
C747   C757    1.395   .     A
C748   H761    1.082   .     S
C748   C749    1.386   .     A
C748   C759    1.402   .     A
C749   C282    1.390   1_556 S
C750   H762    1.076   .     S
C751   C752    1.418   .     A
C751   C282    1.418   1_556 S
C751   C285    1.423   1_556 S
C752   C759    1.418   .     A
C752   C756    1.411   .     A
C753   C757    1.401   .     A
C753   C754    1.420   .     A
C755   C756    1.388   .     A
C755   C286    1.393   1_556 S
C756   H764    1.081   .     S
C757   H760    1.074   .     S
H763   C645    1.083   1_655 S
C765   H922    1.087   .     S
C765   C923    1.349   .     S
N768   N773    1.384   .     S
N768   N665    1.285   1_655 S
N769   S776    1.745   .     S
N770   O772    1.302   .     A
N770   O771    1.301   .     A
N770   C923    1.442   .     S
N773   O775    1.300   .     A
N773   O670    1.300   1_655 S
S776   O778    1.502   .     D
S776   O779    1.682   .     S
O777   S672    1.496   1_655 S
O779   H780    0.991   .     S
O781   Cu787   1.956   .     S
O781   C783    1.295   .     A
O782   C783    1.307   .     A
O782   Cu788   1.958   .     S
C783   C817    1.437   .     S
O784   Cu787   1.938   .     S
O784   C786    1.311   .     A
O785   C786    1.308   .     A
O785   Cu788   1.924   .     S
C786   C811    1.471   .     S
Cu787  Cu788   2.723   .     S
Cu787  O791    1.924   .     S
Cu787  N821    2.046   .     S
Cu787  O789    1.958   .     S
Cu788  O792    1.938   .     S
Cu788  O790    1.956   .     S
Cu788  N820    2.046   .     S
O789   C793    1.301   .     A
O790   C793    1.301   .     A
O791   C794    1.305   .     A
O792   C794    1.310   .     A
C793   C819    1.438   .     S
C794   C799    1.462   .     S
C795   H798    1.084   .     S
C795   C810    1.393   .     A
C795   C806    1.404   .     A
H796   C810    1.082   .     S
H797   C807    1.084   .     S
C799   C810    1.399   .     A
C799   C809    1.395   .     A
C800   H813    1.082   .     S
C800   C801    1.386   .     A
C800   C811    1.402   .     A
C801   C334    1.390   1_556 S
C801   H919    1.083   1_455 S
C802   H814    1.076   .     S
C803   C804    1.418   .     A
C803   C334    1.418   1_556 S
C803   C337    1.423   1_556 S
C804   C811    1.418   .     A
C804   C808    1.411   .     A
C805   C809    1.401   .     A
C805   C806    1.420   .     A
C807   C808    1.388   .     A
C807   C338    1.393   1_556 S
C808   H816    1.081   .     S
C809   H812    1.074   .     S
H815   C853    1.083   .     S
C817   H506    1.087   1_565 S
C817   C507    1.349   1_565 S
N820   N825    1.384   .     S
N820   N873    1.285   .     S
N821   S828    1.745   .     S
N821   N924    1.285   1_455 S
N822   O824    1.302   .     A
N822   O823    1.301   .     A
N822   C507    1.442   1_565 S
N825   O827    1.300   .     A
N825   O878    1.300   .     S
O826   N929    1.300   1_455 S
S828   O830    1.502   .     D
S828   O831    1.682   .     S
S828   O933    1.496   1_455 S
O829   S880    1.496   .     S
O831   H832    0.991   .     S
O833   Cu839   1.956   .     S
O833   C835    1.295   .     A
O834   C835    1.307   .     A
O834   Cu840   1.958   .     S
C835   C869    1.437   .     S
O836   Cu839   1.938   .     S
O836   C838    1.311   .     A
O837   C838    1.308   .     A
O837   Cu840   1.924   .     S
C838   C863    1.471   .     S
Cu839  Cu840   2.723   .     S
Cu839  O843    1.924   .     S
Cu839  N873    2.046   .     S
Cu839  O841    1.958   .     S
Cu840  O844    1.938   .     S
Cu840  O842    1.956   .     S
Cu840  N872    2.046   .     S
O841   C845    1.301   .     A
O842   C845    1.301   .     A
O843   C846    1.305   .     A
O844   C846    1.310   .     A
C845   C871    1.438   .     S
C846   C851    1.462   .     S
C847   H850    1.084   .     S
C847   C862    1.393   .     A
C847   C858    1.404   .     A
H848   C862    1.082   .     S
H849   C859    1.084   .     S
C851   C862    1.399   .     A
C851   C861    1.395   .     A
C852   H865    1.082   .     S
C852   C853    1.386   .     A
C852   C863    1.402   .     A
C853   C386    1.390   1_556 S
C854   H866    1.076   .     S
C855   C856    1.418   .     A
C855   C386    1.418   1_556 S
C855   C389    1.423   1_556 S
C856   C863    1.418   .     A
C856   C860    1.411   .     A
C857   C861    1.401   .     A
C857   C858    1.420   .     A
C859   C860    1.388   .     A
C859   C390    1.393   1_556 S
C860   H868    1.081   .     S
C861   H864    1.074   .     S
H867   C905    1.083   .     S
C869   H558    1.087   1_565 S
C869   C559    1.349   1_565 S
N872   N877    1.384   .     S
N872   N925    1.285   .     S
N873   S880    1.745   .     S
N874   O876    1.302   .     A
N874   O875    1.301   .     A
N874   C559    1.442   1_565 S
N877   O879    1.300   .     A
N877   O930    1.300   .     S
S880   O882    1.502   .     D
S880   O883    1.682   .     S
O881   S932    1.496   .     S
O883   H884    0.991   .     S
O885   Cu891   1.956   .     S
O885   C887    1.295   .     A
O886   C887    1.307   .     A
O886   Cu892   1.958   .     S
C887   C921    1.437   .     S
O888   Cu891   1.938   .     S
O888   C890    1.311   .     A
O889   C890    1.308   .     A
O889   Cu892   1.924   .     S
C890   C915    1.471   .     S
Cu891  Cu892   2.723   .     S
Cu891  O895    1.924   .     S
Cu891  N925    2.046   .     S
Cu891  O893    1.958   .     S
Cu892  O896    1.938   .     S
Cu892  O894    1.956   .     S
Cu892  N924    2.046   .     S
O893   C897    1.301   .     A
O894   C897    1.301   .     A
O895   C898    1.305   .     A
O896   C898    1.310   .     A
C897   C923    1.438   .     S
C898   C903    1.462   .     S
C899   H902    1.084   .     S
C899   C914    1.393   .     A
C899   C910    1.404   .     A
H900   C914    1.082   .     S
H901   C911    1.084   .     S
C903   C914    1.399   .     A
C903   C913    1.395   .     A
C904   H917    1.082   .     S
C904   C905    1.386   .     A
C904   C915    1.402   .     A
C905   C438    1.390   1_556 S
C906   H918    1.076   .     S
C907   C908    1.418   .     A
C907   C438    1.418   1_556 S
C907   C441    1.423   1_556 S
C908   C915    1.418   .     A
C908   C912    1.411   .     A
C909   C913    1.401   .     A
C909   C910    1.420   .     A
C911   C912    1.388   .     A
C911   C442    1.393   1_556 S
C912   H920    1.081   .     S
C913   H916    1.074   .     S
H919   C801    1.083   1_655 S
C921   H610    1.087   1_565 S
C921   C611    1.349   1_565 S
N924   N929    1.384   .     S
N924   N821    1.285   1_655 S
N925   S932    1.745   .     S
N926   O928    1.302   .     A
N926   O927    1.301   .     A
N926   C611    1.442   1_565 S
N929   O931    1.300   .     A
N929   O826    1.300   1_655 S
S932   O934    1.502   .     D
S932   O935    1.682   .     S
O933   S828    1.496   1_655 S
O935   H936    0.991   .     S
