data_str_m2_o1_o1_pcu_sym.35
_audit_creation_date              2020-01-03
_audit_creation_method            'Materials Studio'
_symmetry_space_group_name_H-M    'P1'
_symmetry_Int_Tables_number       1
_symmetry_cell_setting            triclinic
loop_
_symmetry_equiv_pos_as_xyz
  x,y,z
_cell_length_a                    31.2171
_cell_length_b                    30.2182
_cell_length_c                    28.8232
_cell_angle_alpha                 91.8973
_cell_angle_beta                  90.0001
_cell_angle_gamma                 90.0000
loop_
_atom_site_label
_atom_site_type_symbol
_atom_site_fract_x
_atom_site_fract_y
_atom_site_fract_z
_atom_site_U_iso_or_equiv
_atom_site_adp_type
_atom_site_occupancy
C1     C     0.06204   0.19340   0.16620   0.00000  Uiso   1.00
C2     C     0.00000   0.28894   0.30983   0.00000  Uiso   1.00
C3     C     0.00000   0.28897   0.02604   0.00000  Uiso   1.00
C4     C     0.00000   0.21103   0.30729   0.00000  Uiso   1.00
C5     C     0.25000   0.46106   0.02350   0.00000  Uiso   1.00
C6     C     0.25000   0.03894   0.30983   0.00000  Uiso   1.00
C7     C     0.25000   0.03897   0.02604   0.00000  Uiso   1.00
C8     C     0.25000   0.46103   0.30729   0.00000  Uiso   1.00
C9     C     0.38993   0.13925   0.12388   0.00000  Uiso   1.00
C10    C     0.11007   0.36075   0.20946   0.00000  Uiso   1.00
C11    C     0.11703   0.34983   0.12591   0.00000  Uiso   1.00
C12    C     0.43796   0.30660   0.16713   0.00000  Uiso   1.00
C13    C     0.38297   0.15017   0.20742   0.00000  Uiso   1.00
C14    C     0.11703   0.15017   0.20742   0.00000  Uiso   1.00
C15    C     0.38297   0.34983   0.12591   0.00000  Uiso   1.00
C16    C     0.38993   0.36075   0.20946   0.00000  Uiso   1.00
C17    C     0.11007   0.13925   0.12388   0.00000  Uiso   1.00
C18    C     0.13993   0.38925   0.12388   0.00000  Uiso   1.00
C19    C     0.36007   0.11075   0.20946   0.00000  Uiso   1.00
C20    C     0.36703   0.09983   0.12591   0.00000  Uiso   1.00
C21    C     0.13297   0.40017   0.20742   0.00000  Uiso   1.00
C22    C     0.36703   0.40017   0.20742   0.00000  Uiso   1.00
C23    C     0.43796   0.19340   0.16620   0.00000  Uiso   1.00
C24    C     0.13297   0.09983   0.12591   0.00000  Uiso   1.00
C25    C     0.13993   0.11075   0.20946   0.00000  Uiso   1.00
C26    C     0.36007   0.38925   0.12388   0.00000  Uiso   1.00
C27    C     0.09823   0.33785   0.16801   0.00000  Uiso   1.00
C28    C     0.40177   0.16215   0.16532   0.00000  Uiso   1.00
C29    C     0.40177   0.33785   0.16801   0.00000  Uiso   1.00
C30    C     0.09823   0.16215   0.16532   0.00000  Uiso   1.00
C31    C     0.34823   0.08785   0.16801   0.00000  Uiso   1.00
C32    C     0.15177   0.41215   0.16532   0.00000  Uiso   1.00
C33    C     0.15177   0.08785   0.16801   0.00000  Uiso   1.00
C34    C     0.06204   0.30660   0.16713   0.00000  Uiso   1.00
C35    C     0.34823   0.41215   0.16532   0.00000  Uiso   1.00
C36    C     0.00000   0.16946   0.04679   0.00000  Uiso   1.00
C37    C     0.00000   0.33054   0.28655   0.00000  Uiso   1.00
C38    C     0.00000   0.33075   0.05187   0.00000  Uiso   1.00
C39    C     0.00000   0.16925   0.28146   0.00000  Uiso   1.00
C40    C     0.25000   0.41946   0.04679   0.00000  Uiso   1.00
C41    C     0.25000   0.08054   0.28655   0.00000  Uiso   1.00
C42    C     0.25000   0.08075   0.05187   0.00000  Uiso   1.00
C43    C     0.25000   0.41925   0.28146   0.00000  Uiso   1.00
C44    C     0.31204   0.44340   0.16620   0.00000  Uiso   1.00
C45    C     0.18796   0.05660   0.16713   0.00000  Uiso   1.00
C46    C     0.18796   0.44340   0.16620   0.00000  Uiso   1.00
C47    C     0.31204   0.05660   0.16713   0.00000  Uiso   1.00
C48    C     0.00000   0.21106   0.02350   0.00000  Uiso   1.00
Cu49   Cu    0.00000   0.25000   0.21355   0.00000  Uiso   1.00
Cu50   Cu    0.00000   0.25000   0.11978   0.00000  Uiso   1.00
Cu51   Cu    0.25000   0.00000   0.21355   0.00000  Uiso   1.00
Cu52   Cu    0.25000   0.00000   0.11978   0.00000  Uiso   1.00
I53    I     0.39129   0.16970   0.05832   0.00000  Uiso   1.00
I54    I     0.35871   0.08030   0.27501   0.00000  Uiso   1.00
I55    I     0.37266   0.05319   0.06870   0.00000  Uiso   1.00
I56    I     0.12734   0.44681   0.26463   0.00000  Uiso   1.00
I57    I     0.37266   0.44681   0.26463   0.00000  Uiso   1.00
I58    I     0.12734   0.05319   0.06870   0.00000  Uiso   1.00
I59    I     0.14129   0.08030   0.27501   0.00000  Uiso   1.00
I60    I     0.35871   0.41970   0.05832   0.00000  Uiso   1.00
I61    I     0.10871   0.33030   0.27501   0.00000  Uiso   1.00
I62    I     0.12266   0.30318   0.06870   0.00000  Uiso   1.00
I63    I     0.37734   0.19681   0.26463   0.00000  Uiso   1.00
I64    I     0.12266   0.19681   0.26463   0.00000  Uiso   1.00
I65    I     0.37734   0.30319   0.06870   0.00000  Uiso   1.00
I66    I     0.39129   0.33030   0.27501   0.00000  Uiso   1.00
I67    I     0.10871   0.16970   0.05832   0.00000  Uiso   1.00
I68    I     0.14129   0.41970   0.05832   0.00000  Uiso   1.00
N69    N     0.00000   0.25000   0.28402   0.00000  Uiso   1.00
N70    N     0.25000   0.11409   0.26826   0.00000  Uiso   1.00
N71    N     0.25000   0.11444   0.07220   0.00000  Uiso   1.00
N72    N     0.25000   0.38556   0.26113   0.00000  Uiso   1.00
N73    N     0.00000   0.25000   0.04931   0.00000  Uiso   1.00
N74    N     0.25000   0.00000   0.28402   0.00000  Uiso   1.00
N75    N     0.25000   0.00000   0.04931   0.00000  Uiso   1.00
N76    N     0.00000   0.13591   0.06508   0.00000  Uiso   1.00
N77    N     0.00000   0.36409   0.26826   0.00000  Uiso   1.00
N78    N    -0.00000   0.36444   0.07220   0.00000  Uiso   1.00
N79    N     0.00000   0.13556   0.26113   0.00000  Uiso   1.00
N80    N     0.25000   0.38591   0.06508   0.00000  Uiso   1.00
O81    O     0.04509   0.20491   0.20625   0.00000  Uiso   1.00
O82    O     0.20492   0.04509   0.12709   0.00000  Uiso   1.00
O83    O     0.20492   0.04509   0.20625   0.00000  Uiso   1.00
O84    O     0.29509   0.45491   0.12709   0.00000  Uiso   1.00
O85    O     0.20492   0.45491   0.12709   0.00000  Uiso   1.00
O86    O     0.29509   0.04509   0.20625   0.00000  Uiso   1.00
O87    O     0.29509   0.04509   0.12709   0.00000  Uiso   1.00
O88    O     0.20492   0.45491   0.20625   0.00000  Uiso   1.00
O89    O     0.45492   0.29509   0.12709   0.00000  Uiso   1.00
O90    O     0.45492   0.29509   0.20625   0.00000  Uiso   1.00
O91    O     0.04509   0.20491   0.12709   0.00000  Uiso   1.00
O92    O     0.45492   0.20491   0.12709   0.00000  Uiso   1.00
O93    O     0.04509   0.29509   0.20625   0.00000  Uiso   1.00
O94    O     0.04509   0.29509   0.12709   0.00000  Uiso   1.00
O95    O     0.45492   0.20491   0.20625   0.00000  Uiso   1.00
O96    O     0.29509   0.45491   0.20625   0.00000  Uiso   1.00
C97    C     0.56204   0.19340   0.16620   0.00000  Uiso   1.00
C98    C     0.50000   0.28894   0.30983   0.00000  Uiso   1.00
C99    C     0.50000   0.28897   0.02604   0.00000  Uiso   1.00
C100   C     0.50000   0.21103   0.30729   0.00000  Uiso   1.00
C101   C     0.75000   0.46106   0.02350   0.00000  Uiso   1.00
C102   C     0.75000   0.03894   0.30983   0.00000  Uiso   1.00
C103   C     0.75000   0.03897   0.02604   0.00000  Uiso   1.00
C104   C     0.75000   0.46103   0.30729   0.00000  Uiso   1.00
C105   C     0.88993   0.13925   0.12388   0.00000  Uiso   1.00
C106   C     0.61007   0.36075   0.20946   0.00000  Uiso   1.00
C107   C     0.61703   0.34983   0.12591   0.00000  Uiso   1.00
C108   C     0.93796   0.30660   0.16713   0.00000  Uiso   1.00
C109   C     0.88297   0.15017   0.20742   0.00000  Uiso   1.00
C110   C     0.61703   0.15017   0.20742   0.00000  Uiso   1.00
C111   C     0.88297   0.34983   0.12591   0.00000  Uiso   1.00
C112   C     0.88993   0.36075   0.20946   0.00000  Uiso   1.00
C113   C     0.61007   0.13925   0.12388   0.00000  Uiso   1.00
C114   C     0.63993   0.38925   0.12388   0.00000  Uiso   1.00
C115   C     0.86007   0.11075   0.20946   0.00000  Uiso   1.00
C116   C     0.86703   0.09983   0.12591   0.00000  Uiso   1.00
C117   C     0.63297   0.40017   0.20742   0.00000  Uiso   1.00
C118   C     0.86703   0.40017   0.20742   0.00000  Uiso   1.00
C119   C     0.93796   0.19340   0.16620   0.00000  Uiso   1.00
C120   C     0.63297   0.09983   0.12591   0.00000  Uiso   1.00
C121   C     0.63993   0.11075   0.20946   0.00000  Uiso   1.00
C122   C     0.86007   0.38925   0.12388   0.00000  Uiso   1.00
C123   C     0.59823   0.33785   0.16801   0.00000  Uiso   1.00
C124   C     0.90177   0.16215   0.16532   0.00000  Uiso   1.00
C125   C     0.90177   0.33785   0.16801   0.00000  Uiso   1.00
C126   C     0.59823   0.16215   0.16532   0.00000  Uiso   1.00
C127   C     0.84823   0.08785   0.16801   0.00000  Uiso   1.00
C128   C     0.65177   0.41215   0.16532   0.00000  Uiso   1.00
C129   C     0.65177   0.08785   0.16801   0.00000  Uiso   1.00
C130   C     0.56204   0.30660   0.16713   0.00000  Uiso   1.00
C131   C     0.84823   0.41215   0.16532   0.00000  Uiso   1.00
C132   C     0.50000   0.16946   0.04679   0.00000  Uiso   1.00
C133   C     0.50000   0.33054   0.28655   0.00000  Uiso   1.00
C134   C     0.50000   0.33075   0.05187   0.00000  Uiso   1.00
C135   C     0.50000   0.16925   0.28146   0.00000  Uiso   1.00
C136   C     0.75000   0.41946   0.04679   0.00000  Uiso   1.00
C137   C     0.75000   0.08054   0.28655   0.00000  Uiso   1.00
C138   C     0.75000   0.08075   0.05187   0.00000  Uiso   1.00
C139   C     0.75000   0.41925   0.28146   0.00000  Uiso   1.00
C140   C     0.81204   0.44340   0.16620   0.00000  Uiso   1.00
C141   C     0.68796   0.05660   0.16713   0.00000  Uiso   1.00
C142   C     0.68796   0.44340   0.16620   0.00000  Uiso   1.00
C143   C     0.81204   0.05660   0.16713   0.00000  Uiso   1.00
C144   C     0.50000   0.21106   0.02350   0.00000  Uiso   1.00
Cu145  Cu    0.50000   0.25000   0.21355   0.00000  Uiso   1.00
Cu146  Cu    0.50000   0.25000   0.11978   0.00000  Uiso   1.00
Cu147  Cu    0.75000   0.00000   0.21355   0.00000  Uiso   1.00
Cu148  Cu    0.75000   0.00000   0.11978   0.00000  Uiso   1.00
I149   I     0.89129   0.16970   0.05832   0.00000  Uiso   1.00
I150   I     0.85871   0.08030   0.27501   0.00000  Uiso   1.00
I151   I     0.87266   0.05319   0.06870   0.00000  Uiso   1.00
I152   I     0.62734   0.44681   0.26463   0.00000  Uiso   1.00
I153   I     0.87266   0.44681   0.26463   0.00000  Uiso   1.00
I154   I     0.62734   0.05319   0.06870   0.00000  Uiso   1.00
I155   I     0.64129   0.08030   0.27501   0.00000  Uiso   1.00
I156   I     0.85871   0.41970   0.05832   0.00000  Uiso   1.00
I157   I     0.60871   0.33030   0.27501   0.00000  Uiso   1.00
I158   I     0.62266   0.30318   0.06870   0.00000  Uiso   1.00
I159   I     0.87734   0.19681   0.26463   0.00000  Uiso   1.00
I160   I     0.62266   0.19681   0.26463   0.00000  Uiso   1.00
I161   I     0.87734   0.30319   0.06870   0.00000  Uiso   1.00
I162   I     0.89129   0.33030   0.27501   0.00000  Uiso   1.00
I163   I     0.60871   0.16970   0.05832   0.00000  Uiso   1.00
I164   I     0.64129   0.41970   0.05832   0.00000  Uiso   1.00
N165   N     0.50000   0.25000   0.28402   0.00000  Uiso   1.00
N166   N     0.75000   0.11409   0.26826   0.00000  Uiso   1.00
N167   N     0.75000   0.11444   0.07220   0.00000  Uiso   1.00
N168   N     0.75000   0.38556   0.26113   0.00000  Uiso   1.00
N169   N     0.50000   0.25000   0.04931   0.00000  Uiso   1.00
N170   N     0.75000   0.00000   0.28402   0.00000  Uiso   1.00
N171   N     0.75000   0.00000   0.04931   0.00000  Uiso   1.00
N172   N     0.50000   0.13591   0.06508   0.00000  Uiso   1.00
N173   N     0.50000   0.36409   0.26826   0.00000  Uiso   1.00
N174   N     0.50000   0.36444   0.07220   0.00000  Uiso   1.00
N175   N     0.50000   0.13556   0.26113   0.00000  Uiso   1.00
N176   N     0.75000   0.38591   0.06508   0.00000  Uiso   1.00
O177   O     0.54509   0.20491   0.20625   0.00000  Uiso   1.00
O178   O     0.70492   0.04509   0.12709   0.00000  Uiso   1.00
O179   O     0.70492   0.04509   0.20625   0.00000  Uiso   1.00
O180   O     0.79509   0.45491   0.12709   0.00000  Uiso   1.00
O181   O     0.70492   0.45491   0.12709   0.00000  Uiso   1.00
O182   O     0.79509   0.04509   0.20625   0.00000  Uiso   1.00
O183   O     0.79509   0.04509   0.12709   0.00000  Uiso   1.00
O184   O     0.70492   0.45491   0.20625   0.00000  Uiso   1.00
O185   O     0.95492   0.29509   0.12709   0.00000  Uiso   1.00
O186   O     0.95492   0.29509   0.20625   0.00000  Uiso   1.00
O187   O     0.54509   0.20491   0.12709   0.00000  Uiso   1.00
O188   O     0.95492   0.20491   0.12709   0.00000  Uiso   1.00
O189   O     0.54509   0.29509   0.20625   0.00000  Uiso   1.00
O190   O     0.54509   0.29509   0.12709   0.00000  Uiso   1.00
O191   O     0.95492   0.20491   0.20625   0.00000  Uiso   1.00
O192   O     0.79509   0.45491   0.20625   0.00000  Uiso   1.00
C193   C     0.06204   0.69340   0.16620   0.00000  Uiso   1.00
C194   C     0.00000   0.78894   0.30983   0.00000  Uiso   1.00
C195   C     0.00000   0.78897   0.02604   0.00000  Uiso   1.00
C196   C     0.00000   0.71103   0.30729   0.00000  Uiso   1.00
C197   C     0.25000   0.96106   0.02350   0.00000  Uiso   1.00
C198   C     0.25000   0.53894   0.30983   0.00000  Uiso   1.00
C199   C     0.25000   0.53897   0.02604   0.00000  Uiso   1.00
C200   C     0.25000   0.96103   0.30729   0.00000  Uiso   1.00
C201   C     0.38993   0.63925   0.12388   0.00000  Uiso   1.00
C202   C     0.11007   0.86075   0.20946   0.00000  Uiso   1.00
C203   C     0.11703   0.84983   0.12591   0.00000  Uiso   1.00
C204   C     0.43796   0.80660   0.16713   0.00000  Uiso   1.00
C205   C     0.38297   0.65017   0.20742   0.00000  Uiso   1.00
C206   C     0.11703   0.65017   0.20742   0.00000  Uiso   1.00
C207   C     0.38297   0.84983   0.12591   0.00000  Uiso   1.00
C208   C     0.38993   0.86075   0.20946   0.00000  Uiso   1.00
C209   C     0.11007   0.63925   0.12388   0.00000  Uiso   1.00
C210   C     0.13993   0.88925   0.12388   0.00000  Uiso   1.00
C211   C     0.36007   0.61075   0.20946   0.00000  Uiso   1.00
C212   C     0.36703   0.59983   0.12591   0.00000  Uiso   1.00
C213   C     0.13297   0.90017   0.20742   0.00000  Uiso   1.00
C214   C     0.36703   0.90017   0.20742   0.00000  Uiso   1.00
C215   C     0.43796   0.69340   0.16620   0.00000  Uiso   1.00
C216   C     0.13297   0.59983   0.12591   0.00000  Uiso   1.00
C217   C     0.13993   0.61075   0.20946   0.00000  Uiso   1.00
C218   C     0.36007   0.88925   0.12388   0.00000  Uiso   1.00
C219   C     0.09823   0.83785   0.16801   0.00000  Uiso   1.00
C220   C     0.40177   0.66215   0.16532   0.00000  Uiso   1.00
C221   C     0.40177   0.83785   0.16801   0.00000  Uiso   1.00
C222   C     0.09823   0.66215   0.16532   0.00000  Uiso   1.00
C223   C     0.34823   0.58785   0.16801   0.00000  Uiso   1.00
C224   C     0.15177   0.91215   0.16532   0.00000  Uiso   1.00
C225   C     0.15177   0.58785   0.16801   0.00000  Uiso   1.00
C226   C     0.06204   0.80660   0.16713   0.00000  Uiso   1.00
C227   C     0.34823   0.91215   0.16532   0.00000  Uiso   1.00
C228   C     0.00000   0.66946   0.04679   0.00000  Uiso   1.00
C229   C     0.00000   0.83054   0.28655   0.00000  Uiso   1.00
C230   C     0.00000   0.83075   0.05187   0.00000  Uiso   1.00
C231   C     0.00000   0.66925   0.28146   0.00000  Uiso   1.00
C232   C     0.25000   0.91946   0.04679   0.00000  Uiso   1.00
C233   C     0.25000   0.58054   0.28655   0.00000  Uiso   1.00
C234   C     0.25000   0.58075   0.05187   0.00000  Uiso   1.00
C235   C     0.25000   0.91925   0.28146   0.00000  Uiso   1.00
C236   C     0.31204   0.94340   0.16620   0.00000  Uiso   1.00
C237   C     0.18796   0.55660   0.16713   0.00000  Uiso   1.00
C238   C     0.18796   0.94340   0.16620   0.00000  Uiso   1.00
C239   C     0.31204   0.55660   0.16713   0.00000  Uiso   1.00
C240   C     0.00000   0.71106   0.02350   0.00000  Uiso   1.00
Cu241  Cu    0.00000   0.75000   0.21355   0.00000  Uiso   1.00
Cu242  Cu    0.00000   0.75000   0.11978   0.00000  Uiso   1.00
Cu243  Cu    0.25000   0.50000   0.21355   0.00000  Uiso   1.00
Cu244  Cu    0.25000   0.50000   0.11978   0.00000  Uiso   1.00
I245   I     0.39129   0.66970   0.05832   0.00000  Uiso   1.00
I246   I     0.35871   0.58030   0.27501   0.00000  Uiso   1.00
I247   I     0.37266   0.55319   0.06870   0.00000  Uiso   1.00
I248   I     0.12734   0.94681   0.26463   0.00000  Uiso   1.00
I249   I     0.37266   0.94681   0.26463   0.00000  Uiso   1.00
I250   I     0.12734   0.55319   0.06870   0.00000  Uiso   1.00
I251   I     0.14129   0.58030   0.27501   0.00000  Uiso   1.00
I252   I     0.35871   0.91970   0.05832   0.00000  Uiso   1.00
I253   I     0.10871   0.83030   0.27501   0.00000  Uiso   1.00
I254   I     0.12266   0.80318   0.06870   0.00000  Uiso   1.00
I255   I     0.37734   0.69681   0.26463   0.00000  Uiso   1.00
I256   I     0.12266   0.69681   0.26463   0.00000  Uiso   1.00
I257   I     0.37734   0.80319   0.06870   0.00000  Uiso   1.00
I258   I     0.39129   0.83030   0.27501   0.00000  Uiso   1.00
I259   I     0.10871   0.66970   0.05832   0.00000  Uiso   1.00
I260   I     0.14129   0.91970   0.05832   0.00000  Uiso   1.00
N261   N     0.00000   0.75000   0.28402   0.00000  Uiso   1.00
N262   N     0.25000   0.61409   0.26826   0.00000  Uiso   1.00
N263   N     0.25000   0.61444   0.07220   0.00000  Uiso   1.00
N264   N     0.25000   0.88556   0.26113   0.00000  Uiso   1.00
N265   N     0.00000   0.75000   0.04931   0.00000  Uiso   1.00
N266   N     0.25000   0.50000   0.28402   0.00000  Uiso   1.00
N267   N     0.25000   0.50000   0.04931   0.00000  Uiso   1.00
N268   N     0.00000   0.63591   0.06508   0.00000  Uiso   1.00
N269   N     0.00000   0.86409   0.26826   0.00000  Uiso   1.00
N270   N    -0.00000   0.86444   0.07220   0.00000  Uiso   1.00
N271   N     0.00000   0.63556   0.26113   0.00000  Uiso   1.00
N272   N     0.25000   0.88591   0.06508   0.00000  Uiso   1.00
O273   O     0.04509   0.70491   0.20625   0.00000  Uiso   1.00
O274   O     0.20492   0.54509   0.12709   0.00000  Uiso   1.00
O275   O     0.20492   0.54509   0.20625   0.00000  Uiso   1.00
O276   O     0.29509   0.95491   0.12709   0.00000  Uiso   1.00
O277   O     0.20492   0.95491   0.12709   0.00000  Uiso   1.00
O278   O     0.29509   0.54509   0.20625   0.00000  Uiso   1.00
O279   O     0.29509   0.54509   0.12709   0.00000  Uiso   1.00
O280   O     0.20492   0.95491   0.20625   0.00000  Uiso   1.00
O281   O     0.45492   0.79509   0.12709   0.00000  Uiso   1.00
O282   O     0.45492   0.79509   0.20625   0.00000  Uiso   1.00
O283   O     0.04509   0.70491   0.12709   0.00000  Uiso   1.00
O284   O     0.45492   0.70491   0.12709   0.00000  Uiso   1.00
O285   O     0.04509   0.79509   0.20625   0.00000  Uiso   1.00
O286   O     0.04509   0.79509   0.12709   0.00000  Uiso   1.00
O287   O     0.45492   0.70491   0.20625   0.00000  Uiso   1.00
O288   O     0.29509   0.95491   0.20625   0.00000  Uiso   1.00
C289   C     0.56204   0.69340   0.16620   0.00000  Uiso   1.00
C290   C     0.50000   0.78894   0.30983   0.00000  Uiso   1.00
C291   C     0.50000   0.78897   0.02604   0.00000  Uiso   1.00
C292   C     0.50000   0.71103   0.30729   0.00000  Uiso   1.00
C293   C     0.75000   0.96106   0.02350   0.00000  Uiso   1.00
C294   C     0.75000   0.53894   0.30983   0.00000  Uiso   1.00
C295   C     0.75000   0.53897   0.02604   0.00000  Uiso   1.00
C296   C     0.75000   0.96103   0.30729   0.00000  Uiso   1.00
C297   C     0.88993   0.63925   0.12388   0.00000  Uiso   1.00
C298   C     0.61007   0.86075   0.20946   0.00000  Uiso   1.00
C299   C     0.61703   0.84983   0.12591   0.00000  Uiso   1.00
C300   C     0.93796   0.80660   0.16713   0.00000  Uiso   1.00
C301   C     0.88297   0.65017   0.20742   0.00000  Uiso   1.00
C302   C     0.61703   0.65017   0.20742   0.00000  Uiso   1.00
C303   C     0.88297   0.84983   0.12591   0.00000  Uiso   1.00
C304   C     0.88993   0.86075   0.20946   0.00000  Uiso   1.00
C305   C     0.61007   0.63925   0.12388   0.00000  Uiso   1.00
C306   C     0.63993   0.88925   0.12388   0.00000  Uiso   1.00
C307   C     0.86007   0.61075   0.20946   0.00000  Uiso   1.00
C308   C     0.86703   0.59983   0.12591   0.00000  Uiso   1.00
C309   C     0.63297   0.90017   0.20742   0.00000  Uiso   1.00
C310   C     0.86703   0.90017   0.20742   0.00000  Uiso   1.00
C311   C     0.93796   0.69340   0.16620   0.00000  Uiso   1.00
C312   C     0.63297   0.59983   0.12591   0.00000  Uiso   1.00
C313   C     0.63993   0.61075   0.20946   0.00000  Uiso   1.00
C314   C     0.86007   0.88925   0.12388   0.00000  Uiso   1.00
C315   C     0.59823   0.83785   0.16801   0.00000  Uiso   1.00
C316   C     0.90177   0.66215   0.16532   0.00000  Uiso   1.00
C317   C     0.90177   0.83785   0.16801   0.00000  Uiso   1.00
C318   C     0.59823   0.66215   0.16532   0.00000  Uiso   1.00
C319   C     0.84823   0.58785   0.16801   0.00000  Uiso   1.00
C320   C     0.65177   0.91215   0.16532   0.00000  Uiso   1.00
C321   C     0.65177   0.58785   0.16801   0.00000  Uiso   1.00
C322   C     0.56204   0.80660   0.16713   0.00000  Uiso   1.00
C323   C     0.84823   0.91215   0.16532   0.00000  Uiso   1.00
C324   C     0.50000   0.66946   0.04679   0.00000  Uiso   1.00
C325   C     0.50000   0.83054   0.28655   0.00000  Uiso   1.00
C326   C     0.50000   0.83075   0.05187   0.00000  Uiso   1.00
C327   C     0.50000   0.66925   0.28146   0.00000  Uiso   1.00
C328   C     0.75000   0.91946   0.04679   0.00000  Uiso   1.00
C329   C     0.75000   0.58054   0.28655   0.00000  Uiso   1.00
C330   C     0.75000   0.58075   0.05187   0.00000  Uiso   1.00
C331   C     0.75000   0.91925   0.28146   0.00000  Uiso   1.00
C332   C     0.81204   0.94340   0.16620   0.00000  Uiso   1.00
C333   C     0.68796   0.55660   0.16713   0.00000  Uiso   1.00
C334   C     0.68796   0.94340   0.16620   0.00000  Uiso   1.00
C335   C     0.81204   0.55660   0.16713   0.00000  Uiso   1.00
C336   C     0.50000   0.71106   0.02350   0.00000  Uiso   1.00
Cu337  Cu    0.50000   0.75000   0.21355   0.00000  Uiso   1.00
Cu338  Cu    0.50000   0.75000   0.11978   0.00000  Uiso   1.00
Cu339  Cu    0.75000   0.50000   0.21355   0.00000  Uiso   1.00
Cu340  Cu    0.75000   0.50000   0.11978   0.00000  Uiso   1.00
I341   I     0.89129   0.66970   0.05832   0.00000  Uiso   1.00
I342   I     0.85871   0.58030   0.27501   0.00000  Uiso   1.00
I343   I     0.87266   0.55319   0.06870   0.00000  Uiso   1.00
I344   I     0.62734   0.94681   0.26463   0.00000  Uiso   1.00
I345   I     0.87266   0.94681   0.26463   0.00000  Uiso   1.00
I346   I     0.62734   0.55319   0.06870   0.00000  Uiso   1.00
I347   I     0.64129   0.58030   0.27501   0.00000  Uiso   1.00
I348   I     0.85871   0.91970   0.05832   0.00000  Uiso   1.00
I349   I     0.60871   0.83030   0.27501   0.00000  Uiso   1.00
I350   I     0.62266   0.80318   0.06870   0.00000  Uiso   1.00
I351   I     0.87734   0.69681   0.26463   0.00000  Uiso   1.00
I352   I     0.62266   0.69681   0.26463   0.00000  Uiso   1.00
I353   I     0.87734   0.80319   0.06870   0.00000  Uiso   1.00
I354   I     0.89129   0.83030   0.27501   0.00000  Uiso   1.00
I355   I     0.60871   0.66970   0.05832   0.00000  Uiso   1.00
I356   I     0.64129   0.91970   0.05832   0.00000  Uiso   1.00
N357   N     0.50000   0.75000   0.28402   0.00000  Uiso   1.00
N358   N     0.75000   0.61409   0.26826   0.00000  Uiso   1.00
N359   N     0.75000   0.61444   0.07220   0.00000  Uiso   1.00
N360   N     0.75000   0.88556   0.26113   0.00000  Uiso   1.00
N361   N     0.50000   0.75000   0.04931   0.00000  Uiso   1.00
N362   N     0.75000   0.50000   0.28402   0.00000  Uiso   1.00
N363   N     0.75000   0.50000   0.04931   0.00000  Uiso   1.00
N364   N     0.50000   0.63591   0.06508   0.00000  Uiso   1.00
N365   N     0.50000   0.86409   0.26826   0.00000  Uiso   1.00
N366   N     0.50000   0.86444   0.07220   0.00000  Uiso   1.00
N367   N     0.50000   0.63556   0.26113   0.00000  Uiso   1.00
N368   N     0.75000   0.88591   0.06508   0.00000  Uiso   1.00
O369   O     0.54509   0.70491   0.20625   0.00000  Uiso   1.00
O370   O     0.70492   0.54509   0.12709   0.00000  Uiso   1.00
O371   O     0.70492   0.54509   0.20625   0.00000  Uiso   1.00
O372   O     0.79509   0.95491   0.12709   0.00000  Uiso   1.00
O373   O     0.70492   0.95491   0.12709   0.00000  Uiso   1.00
O374   O     0.79509   0.54509   0.20625   0.00000  Uiso   1.00
O375   O     0.79509   0.54509   0.12709   0.00000  Uiso   1.00
O376   O     0.70492   0.95491   0.20625   0.00000  Uiso   1.00
O377   O     0.95492   0.79509   0.12709   0.00000  Uiso   1.00
O378   O     0.95492   0.79509   0.20625   0.00000  Uiso   1.00
O379   O     0.54509   0.70491   0.12709   0.00000  Uiso   1.00
O380   O     0.95492   0.70491   0.12709   0.00000  Uiso   1.00
O381   O     0.54509   0.79509   0.20625   0.00000  Uiso   1.00
O382   O     0.54509   0.79509   0.12709   0.00000  Uiso   1.00
O383   O     0.95492   0.70491   0.20625   0.00000  Uiso   1.00
O384   O     0.79509   0.95491   0.20625   0.00000  Uiso   1.00
C385   C     0.06204   0.19340   0.49953   0.00000  Uiso   1.00
C386   C     0.00000   0.28894   0.64317   0.00000  Uiso   1.00
C387   C     0.00000   0.28897   0.35937   0.00000  Uiso   1.00
C388   C     0.00000   0.21103   0.64063   0.00000  Uiso   1.00
C389   C     0.25000   0.46106   0.35683   0.00000  Uiso   1.00
C390   C     0.25000   0.03894   0.64317   0.00000  Uiso   1.00
C391   C     0.25000   0.03897   0.35937   0.00000  Uiso   1.00
C392   C     0.25000   0.46103   0.64063   0.00000  Uiso   1.00
C393   C     0.38993   0.13925   0.45721   0.00000  Uiso   1.00
C394   C     0.11007   0.36075   0.54279   0.00000  Uiso   1.00
C395   C     0.11703   0.34983   0.45925   0.00000  Uiso   1.00
C396   C     0.43796   0.30660   0.50047   0.00000  Uiso   1.00
C397   C     0.38297   0.15017   0.54075   0.00000  Uiso   1.00
C398   C     0.11703   0.15017   0.54075   0.00000  Uiso   1.00
C399   C     0.38297   0.34983   0.45925   0.00000  Uiso   1.00
C400   C     0.38993   0.36075   0.54279   0.00000  Uiso   1.00
C401   C     0.11007   0.13925   0.45721   0.00000  Uiso   1.00
C402   C     0.13993   0.38925   0.45721   0.00000  Uiso   1.00
C403   C     0.36007   0.11075   0.54279   0.00000  Uiso   1.00
C404   C     0.36703   0.09983   0.45925   0.00000  Uiso   1.00
C405   C     0.13297   0.40017   0.54075   0.00000  Uiso   1.00
C406   C     0.36703   0.40017   0.54075   0.00000  Uiso   1.00
C407   C     0.43796   0.19340   0.49953   0.00000  Uiso   1.00
C408   C     0.13297   0.09983   0.45925   0.00000  Uiso   1.00
C409   C     0.13993   0.11075   0.54279   0.00000  Uiso   1.00
C410   C     0.36007   0.38925   0.45721   0.00000  Uiso   1.00
C411   C     0.09823   0.33785   0.50134   0.00000  Uiso   1.00
C412   C     0.40177   0.16215   0.49866   0.00000  Uiso   1.00
C413   C     0.40177   0.33785   0.50134   0.00000  Uiso   1.00
C414   C     0.09823   0.16215   0.49866   0.00000  Uiso   1.00
C415   C     0.34823   0.08785   0.50134   0.00000  Uiso   1.00
C416   C     0.15177   0.41215   0.49866   0.00000  Uiso   1.00
C417   C     0.15177   0.08785   0.50134   0.00000  Uiso   1.00
C418   C     0.06204   0.30660   0.50047   0.00000  Uiso   1.00
C419   C     0.34823   0.41215   0.49866   0.00000  Uiso   1.00
C420   C     0.00000   0.16946   0.38012   0.00000  Uiso   1.00
C421   C     0.00000   0.33054   0.61988   0.00000  Uiso   1.00
C422   C     0.00000   0.33075   0.38521   0.00000  Uiso   1.00
C423   C     0.00000   0.16925   0.61479   0.00000  Uiso   1.00
C424   C     0.25000   0.41946   0.38012   0.00000  Uiso   1.00
C425   C     0.25000   0.08054   0.61988   0.00000  Uiso   1.00
C426   C     0.25000   0.08075   0.38521   0.00000  Uiso   1.00
C427   C     0.25000   0.41925   0.61479   0.00000  Uiso   1.00
C428   C     0.31204   0.44340   0.49953   0.00000  Uiso   1.00
C429   C     0.18796   0.05660   0.50047   0.00000  Uiso   1.00
C430   C     0.18796   0.44340   0.49953   0.00000  Uiso   1.00
C431   C     0.31204   0.05660   0.50047   0.00000  Uiso   1.00
C432   C     0.00000   0.21106   0.35683   0.00000  Uiso   1.00
Cu433  Cu    0.00000   0.25000   0.54689   0.00000  Uiso   1.00
Cu434  Cu    0.00000   0.25000   0.45311   0.00000  Uiso   1.00
Cu435  Cu    0.25000   0.00000   0.54689   0.00000  Uiso   1.00
Cu436  Cu    0.25000   0.00000   0.45311   0.00000  Uiso   1.00
I437   I     0.39129   0.16970   0.39165   0.00000  Uiso   1.00
I438   I     0.35871   0.08030   0.60835   0.00000  Uiso   1.00
I439   I     0.37266   0.05319   0.40203   0.00000  Uiso   1.00
I440   I     0.12734   0.44681   0.59797   0.00000  Uiso   1.00
I441   I     0.37266   0.44681   0.59797   0.00000  Uiso   1.00
I442   I     0.12734   0.05319   0.40203   0.00000  Uiso   1.00
I443   I     0.14129   0.08030   0.60835   0.00000  Uiso   1.00
I444   I     0.35871   0.41970   0.39165   0.00000  Uiso   1.00
I445   I     0.10871   0.33030   0.60835   0.00000  Uiso   1.00
I446   I     0.12266   0.30318   0.40203   0.00000  Uiso   1.00
I447   I     0.37734   0.19681   0.59797   0.00000  Uiso   1.00
I448   I     0.12266   0.19681   0.59797   0.00000  Uiso   1.00
I449   I     0.37734   0.30319   0.40203   0.00000  Uiso   1.00
I450   I     0.39129   0.33030   0.60835   0.00000  Uiso   1.00
I451   I     0.10871   0.16970   0.39165   0.00000  Uiso   1.00
I452   I     0.14129   0.41970   0.39165   0.00000  Uiso   1.00
N453   N     0.00000   0.25000   0.61736   0.00000  Uiso   1.00
N454   N     0.25000   0.11409   0.60159   0.00000  Uiso   1.00
N455   N     0.25000   0.11444   0.40554   0.00000  Uiso   1.00
N456   N     0.25000   0.38556   0.59446   0.00000  Uiso   1.00
N457   N     0.00000   0.25000   0.38264   0.00000  Uiso   1.00
N458   N     0.25000   0.00000   0.61736   0.00000  Uiso   1.00
N459   N     0.25000   0.00000   0.38264   0.00000  Uiso   1.00
N460   N     0.00000   0.13591   0.39841   0.00000  Uiso   1.00
N461   N     0.00000   0.36409   0.60159   0.00000  Uiso   1.00
N462   N    -0.00000   0.36444   0.40554   0.00000  Uiso   1.00
N463   N     0.00000   0.13556   0.59446   0.00000  Uiso   1.00
N464   N     0.25000   0.38591   0.39841   0.00000  Uiso   1.00
O465   O     0.04509   0.20491   0.53958   0.00000  Uiso   1.00
O466   O     0.20492   0.04509   0.46042   0.00000  Uiso   1.00
O467   O     0.20492   0.04509   0.53958   0.00000  Uiso   1.00
O468   O     0.29509   0.45491   0.46042   0.00000  Uiso   1.00
O469   O     0.20492   0.45491   0.46042   0.00000  Uiso   1.00
O470   O     0.29509   0.04509   0.53958   0.00000  Uiso   1.00
O471   O     0.29509   0.04509   0.46042   0.00000  Uiso   1.00
O472   O     0.20492   0.45491   0.53958   0.00000  Uiso   1.00
O473   O     0.45492   0.29509   0.46042   0.00000  Uiso   1.00
O474   O     0.45492   0.29509   0.53958   0.00000  Uiso   1.00
O475   O     0.04509   0.20491   0.46042   0.00000  Uiso   1.00
O476   O     0.45492   0.20491   0.46042   0.00000  Uiso   1.00
O477   O     0.04509   0.29509   0.53958   0.00000  Uiso   1.00
O478   O     0.04509   0.29509   0.46042   0.00000  Uiso   1.00
O479   O     0.45492   0.20491   0.53958   0.00000  Uiso   1.00
O480   O     0.29509   0.45491   0.53958   0.00000  Uiso   1.00
C481   C     0.56204   0.19340   0.49953   0.00000  Uiso   1.00
C482   C     0.50000   0.28894   0.64317   0.00000  Uiso   1.00
C483   C     0.50000   0.28897   0.35937   0.00000  Uiso   1.00
C484   C     0.50000   0.21103   0.64063   0.00000  Uiso   1.00
C485   C     0.75000   0.46106   0.35683   0.00000  Uiso   1.00
C486   C     0.75000   0.03894   0.64317   0.00000  Uiso   1.00
C487   C     0.75000   0.03897   0.35937   0.00000  Uiso   1.00
C488   C     0.75000   0.46103   0.64063   0.00000  Uiso   1.00
C489   C     0.88993   0.13925   0.45721   0.00000  Uiso   1.00
C490   C     0.61007   0.36075   0.54279   0.00000  Uiso   1.00
C491   C     0.61703   0.34983   0.45925   0.00000  Uiso   1.00
C492   C     0.93796   0.30660   0.50047   0.00000  Uiso   1.00
C493   C     0.88297   0.15017   0.54075   0.00000  Uiso   1.00
C494   C     0.61703   0.15017   0.54075   0.00000  Uiso   1.00
C495   C     0.88297   0.34983   0.45925   0.00000  Uiso   1.00
C496   C     0.88993   0.36075   0.54279   0.00000  Uiso   1.00
C497   C     0.61007   0.13925   0.45721   0.00000  Uiso   1.00
C498   C     0.63993   0.38925   0.45721   0.00000  Uiso   1.00
C499   C     0.86007   0.11075   0.54279   0.00000  Uiso   1.00
C500   C     0.86703   0.09983   0.45925   0.00000  Uiso   1.00
C501   C     0.63297   0.40017   0.54075   0.00000  Uiso   1.00
C502   C     0.86703   0.40017   0.54075   0.00000  Uiso   1.00
C503   C     0.93796   0.19340   0.49953   0.00000  Uiso   1.00
C504   C     0.63297   0.09983   0.45925   0.00000  Uiso   1.00
C505   C     0.63993   0.11075   0.54279   0.00000  Uiso   1.00
C506   C     0.86007   0.38925   0.45721   0.00000  Uiso   1.00
C507   C     0.59823   0.33785   0.50134   0.00000  Uiso   1.00
C508   C     0.90177   0.16215   0.49866   0.00000  Uiso   1.00
C509   C     0.90177   0.33785   0.50134   0.00000  Uiso   1.00
C510   C     0.59823   0.16215   0.49866   0.00000  Uiso   1.00
C511   C     0.84823   0.08785   0.50134   0.00000  Uiso   1.00
C512   C     0.65177   0.41215   0.49866   0.00000  Uiso   1.00
C513   C     0.65177   0.08785   0.50134   0.00000  Uiso   1.00
C514   C     0.56204   0.30660   0.50047   0.00000  Uiso   1.00
C515   C     0.84823   0.41215   0.49866   0.00000  Uiso   1.00
C516   C     0.50000   0.16946   0.38012   0.00000  Uiso   1.00
C517   C     0.50000   0.33054   0.61988   0.00000  Uiso   1.00
C518   C     0.50000   0.33075   0.38521   0.00000  Uiso   1.00
C519   C     0.50000   0.16925   0.61479   0.00000  Uiso   1.00
C520   C     0.75000   0.41946   0.38012   0.00000  Uiso   1.00
C521   C     0.75000   0.08054   0.61988   0.00000  Uiso   1.00
C522   C     0.75000   0.08075   0.38521   0.00000  Uiso   1.00
C523   C     0.75000   0.41925   0.61479   0.00000  Uiso   1.00
C524   C     0.81204   0.44340   0.49953   0.00000  Uiso   1.00
C525   C     0.68796   0.05660   0.50047   0.00000  Uiso   1.00
C526   C     0.68796   0.44340   0.49953   0.00000  Uiso   1.00
C527   C     0.81204   0.05660   0.50047   0.00000  Uiso   1.00
C528   C     0.50000   0.21106   0.35683   0.00000  Uiso   1.00
Cu529  Cu    0.50000   0.25000   0.54689   0.00000  Uiso   1.00
Cu530  Cu    0.50000   0.25000   0.45311   0.00000  Uiso   1.00
Cu531  Cu    0.75000   0.00000   0.54689   0.00000  Uiso   1.00
Cu532  Cu    0.75000   0.00000   0.45311   0.00000  Uiso   1.00
I533   I     0.89129   0.16970   0.39165   0.00000  Uiso   1.00
I534   I     0.85871   0.08030   0.60835   0.00000  Uiso   1.00
I535   I     0.87266   0.05319   0.40203   0.00000  Uiso   1.00
I536   I     0.62734   0.44681   0.59797   0.00000  Uiso   1.00
I537   I     0.87266   0.44681   0.59797   0.00000  Uiso   1.00
I538   I     0.62734   0.05319   0.40203   0.00000  Uiso   1.00
I539   I     0.64129   0.08030   0.60835   0.00000  Uiso   1.00
I540   I     0.85871   0.41970   0.39165   0.00000  Uiso   1.00
I541   I     0.60871   0.33030   0.60835   0.00000  Uiso   1.00
I542   I     0.62266   0.30318   0.40203   0.00000  Uiso   1.00
I543   I     0.87734   0.19681   0.59797   0.00000  Uiso   1.00
I544   I     0.62266   0.19681   0.59797   0.00000  Uiso   1.00
I545   I     0.87734   0.30319   0.40203   0.00000  Uiso   1.00
I546   I     0.89129   0.33030   0.60835   0.00000  Uiso   1.00
I547   I     0.60871   0.16970   0.39165   0.00000  Uiso   1.00
I548   I     0.64129   0.41970   0.39165   0.00000  Uiso   1.00
N549   N     0.50000   0.25000   0.61736   0.00000  Uiso   1.00
N550   N     0.75000   0.11409   0.60159   0.00000  Uiso   1.00
N551   N     0.75000   0.11444   0.40554   0.00000  Uiso   1.00
N552   N     0.75000   0.38556   0.59446   0.00000  Uiso   1.00
N553   N     0.50000   0.25000   0.38264   0.00000  Uiso   1.00
N554   N     0.75000   0.00000   0.61736   0.00000  Uiso   1.00
N555   N     0.75000   0.00000   0.38264   0.00000  Uiso   1.00
N556   N     0.50000   0.13591   0.39841   0.00000  Uiso   1.00
N557   N     0.50000   0.36409   0.60159   0.00000  Uiso   1.00
N558   N     0.50000   0.36444   0.40554   0.00000  Uiso   1.00
N559   N     0.50000   0.13556   0.59446   0.00000  Uiso   1.00
N560   N     0.75000   0.38591   0.39841   0.00000  Uiso   1.00
O561   O     0.54509   0.20491   0.53958   0.00000  Uiso   1.00
O562   O     0.70492   0.04509   0.46042   0.00000  Uiso   1.00
O563   O     0.70492   0.04509   0.53958   0.00000  Uiso   1.00
O564   O     0.79509   0.45491   0.46042   0.00000  Uiso   1.00
O565   O     0.70492   0.45491   0.46042   0.00000  Uiso   1.00
O566   O     0.79509   0.04509   0.53958   0.00000  Uiso   1.00
O567   O     0.79509   0.04509   0.46042   0.00000  Uiso   1.00
O568   O     0.70492   0.45491   0.53958   0.00000  Uiso   1.00
O569   O     0.95492   0.29509   0.46042   0.00000  Uiso   1.00
O570   O     0.95492   0.29509   0.53958   0.00000  Uiso   1.00
O571   O     0.54509   0.20491   0.46042   0.00000  Uiso   1.00
O572   O     0.95492   0.20491   0.46042   0.00000  Uiso   1.00
O573   O     0.54509   0.29509   0.53958   0.00000  Uiso   1.00
O574   O     0.54509   0.29509   0.46042   0.00000  Uiso   1.00
O575   O     0.95492   0.20491   0.53958   0.00000  Uiso   1.00
O576   O     0.79509   0.45491   0.53958   0.00000  Uiso   1.00
C577   C     0.06204   0.69340   0.49953   0.00000  Uiso   1.00
C578   C     0.00000   0.78894   0.64317   0.00000  Uiso   1.00
C579   C     0.00000   0.78897   0.35937   0.00000  Uiso   1.00
C580   C     0.00000   0.71103   0.64063   0.00000  Uiso   1.00
C581   C     0.25000   0.96106   0.35683   0.00000  Uiso   1.00
C582   C     0.25000   0.53894   0.64317   0.00000  Uiso   1.00
C583   C     0.25000   0.53897   0.35937   0.00000  Uiso   1.00
C584   C     0.25000   0.96103   0.64063   0.00000  Uiso   1.00
C585   C     0.38993   0.63925   0.45721   0.00000  Uiso   1.00
C586   C     0.11007   0.86075   0.54279   0.00000  Uiso   1.00
C587   C     0.11703   0.84983   0.45925   0.00000  Uiso   1.00
C588   C     0.43796   0.80660   0.50047   0.00000  Uiso   1.00
C589   C     0.38297   0.65017   0.54075   0.00000  Uiso   1.00
C590   C     0.11703   0.65017   0.54075   0.00000  Uiso   1.00
C591   C     0.38297   0.84983   0.45925   0.00000  Uiso   1.00
C592   C     0.38993   0.86075   0.54279   0.00000  Uiso   1.00
C593   C     0.11007   0.63925   0.45721   0.00000  Uiso   1.00
C594   C     0.13993   0.88925   0.45721   0.00000  Uiso   1.00
C595   C     0.36007   0.61075   0.54279   0.00000  Uiso   1.00
C596   C     0.36703   0.59983   0.45925   0.00000  Uiso   1.00
C597   C     0.13297   0.90017   0.54075   0.00000  Uiso   1.00
C598   C     0.36703   0.90017   0.54075   0.00000  Uiso   1.00
C599   C     0.43796   0.69340   0.49953   0.00000  Uiso   1.00
C600   C     0.13297   0.59983   0.45925   0.00000  Uiso   1.00
C601   C     0.13993   0.61075   0.54279   0.00000  Uiso   1.00
C602   C     0.36007   0.88925   0.45721   0.00000  Uiso   1.00
C603   C     0.09823   0.83785   0.50134   0.00000  Uiso   1.00
C604   C     0.40177   0.66215   0.49866   0.00000  Uiso   1.00
C605   C     0.40177   0.83785   0.50134   0.00000  Uiso   1.00
C606   C     0.09823   0.66215   0.49866   0.00000  Uiso   1.00
C607   C     0.34823   0.58785   0.50134   0.00000  Uiso   1.00
C608   C     0.15177   0.91215   0.49866   0.00000  Uiso   1.00
C609   C     0.15177   0.58785   0.50134   0.00000  Uiso   1.00
C610   C     0.06204   0.80660   0.50047   0.00000  Uiso   1.00
C611   C     0.34823   0.91215   0.49866   0.00000  Uiso   1.00
C612   C     0.00000   0.66946   0.38012   0.00000  Uiso   1.00
C613   C     0.00000   0.83054   0.61988   0.00000  Uiso   1.00
C614   C     0.00000   0.83075   0.38521   0.00000  Uiso   1.00
C615   C     0.00000   0.66925   0.61479   0.00000  Uiso   1.00
C616   C     0.25000   0.91946   0.38012   0.00000  Uiso   1.00
C617   C     0.25000   0.58054   0.61988   0.00000  Uiso   1.00
C618   C     0.25000   0.58075   0.38521   0.00000  Uiso   1.00
C619   C     0.25000   0.91925   0.61479   0.00000  Uiso   1.00
C620   C     0.31204   0.94340   0.49953   0.00000  Uiso   1.00
C621   C     0.18796   0.55660   0.50047   0.00000  Uiso   1.00
C622   C     0.18796   0.94340   0.49953   0.00000  Uiso   1.00
C623   C     0.31204   0.55660   0.50047   0.00000  Uiso   1.00
C624   C     0.00000   0.71106   0.35683   0.00000  Uiso   1.00
Cu625  Cu    0.00000   0.75000   0.54689   0.00000  Uiso   1.00
Cu626  Cu    0.00000   0.75000   0.45311   0.00000  Uiso   1.00
Cu627  Cu    0.25000   0.50000   0.54689   0.00000  Uiso   1.00
Cu628  Cu    0.25000   0.50000   0.45311   0.00000  Uiso   1.00
I629   I     0.39129   0.66970   0.39165   0.00000  Uiso   1.00
I630   I     0.35871   0.58030   0.60835   0.00000  Uiso   1.00
I631   I     0.37266   0.55319   0.40203   0.00000  Uiso   1.00
I632   I     0.12734   0.94681   0.59797   0.00000  Uiso   1.00
I633   I     0.37266   0.94681   0.59797   0.00000  Uiso   1.00
I634   I     0.12734   0.55319   0.40203   0.00000  Uiso   1.00
I635   I     0.14129   0.58030   0.60835   0.00000  Uiso   1.00
I636   I     0.35871   0.91970   0.39165   0.00000  Uiso   1.00
I637   I     0.10871   0.83030   0.60835   0.00000  Uiso   1.00
I638   I     0.12266   0.80318   0.40203   0.00000  Uiso   1.00
I639   I     0.37734   0.69681   0.59797   0.00000  Uiso   1.00
I640   I     0.12266   0.69681   0.59797   0.00000  Uiso   1.00
I641   I     0.37734   0.80319   0.40203   0.00000  Uiso   1.00
I642   I     0.39129   0.83030   0.60835   0.00000  Uiso   1.00
I643   I     0.10871   0.66970   0.39165   0.00000  Uiso   1.00
I644   I     0.14129   0.91970   0.39165   0.00000  Uiso   1.00
N645   N     0.00000   0.75000   0.61736   0.00000  Uiso   1.00
N646   N     0.25000   0.61409   0.60159   0.00000  Uiso   1.00
N647   N     0.25000   0.61444   0.40554   0.00000  Uiso   1.00
N648   N     0.25000   0.88556   0.59446   0.00000  Uiso   1.00
N649   N     0.00000   0.75000   0.38264   0.00000  Uiso   1.00
N650   N     0.25000   0.50000   0.61736   0.00000  Uiso   1.00
N651   N     0.25000   0.50000   0.38264   0.00000  Uiso   1.00
N652   N     0.00000   0.63591   0.39841   0.00000  Uiso   1.00
N653   N     0.00000   0.86409   0.60159   0.00000  Uiso   1.00
N654   N    -0.00000   0.86444   0.40554   0.00000  Uiso   1.00
N655   N     0.00000   0.63556   0.59446   0.00000  Uiso   1.00
N656   N     0.25000   0.88591   0.39841   0.00000  Uiso   1.00
O657   O     0.04509   0.70491   0.53958   0.00000  Uiso   1.00
O658   O     0.20492   0.54509   0.46042   0.00000  Uiso   1.00
O659   O     0.20492   0.54509   0.53958   0.00000  Uiso   1.00
O660   O     0.29509   0.95491   0.46042   0.00000  Uiso   1.00
O661   O     0.20492   0.95491   0.46042   0.00000  Uiso   1.00
O662   O     0.29509   0.54509   0.53958   0.00000  Uiso   1.00
O663   O     0.29509   0.54509   0.46042   0.00000  Uiso   1.00
O664   O     0.20492   0.95491   0.53958   0.00000  Uiso   1.00
O665   O     0.45492   0.79509   0.46042   0.00000  Uiso   1.00
O666   O     0.45492   0.79509   0.53958   0.00000  Uiso   1.00
O667   O     0.04509   0.70491   0.46042   0.00000  Uiso   1.00
O668   O     0.45492   0.70491   0.46042   0.00000  Uiso   1.00
O669   O     0.04509   0.79509   0.53958   0.00000  Uiso   1.00
O670   O     0.04509   0.79509   0.46042   0.00000  Uiso   1.00
O671   O     0.45492   0.70491   0.53958   0.00000  Uiso   1.00
O672   O     0.29509   0.95491   0.53958   0.00000  Uiso   1.00
C673   C     0.56204   0.69340   0.49953   0.00000  Uiso   1.00
C674   C     0.50000   0.78894   0.64317   0.00000  Uiso   1.00
C675   C     0.50000   0.78897   0.35937   0.00000  Uiso   1.00
C676   C     0.50000   0.71103   0.64063   0.00000  Uiso   1.00
C677   C     0.75000   0.96106   0.35683   0.00000  Uiso   1.00
C678   C     0.75000   0.53894   0.64317   0.00000  Uiso   1.00
C679   C     0.75000   0.53897   0.35937   0.00000  Uiso   1.00
C680   C     0.75000   0.96103   0.64063   0.00000  Uiso   1.00
C681   C     0.88993   0.63925   0.45721   0.00000  Uiso   1.00
C682   C     0.61007   0.86075   0.54279   0.00000  Uiso   1.00
C683   C     0.61703   0.84983   0.45925   0.00000  Uiso   1.00
C684   C     0.93796   0.80660   0.50047   0.00000  Uiso   1.00
C685   C     0.88297   0.65017   0.54075   0.00000  Uiso   1.00
C686   C     0.61703   0.65017   0.54075   0.00000  Uiso   1.00
C687   C     0.88297   0.84983   0.45925   0.00000  Uiso   1.00
C688   C     0.88993   0.86075   0.54279   0.00000  Uiso   1.00
C689   C     0.61007   0.63925   0.45721   0.00000  Uiso   1.00
C690   C     0.63993   0.88925   0.45721   0.00000  Uiso   1.00
C691   C     0.86007   0.61075   0.54279   0.00000  Uiso   1.00
C692   C     0.86703   0.59983   0.45925   0.00000  Uiso   1.00
C693   C     0.63297   0.90017   0.54075   0.00000  Uiso   1.00
C694   C     0.86703   0.90017   0.54075   0.00000  Uiso   1.00
C695   C     0.93796   0.69340   0.49953   0.00000  Uiso   1.00
C696   C     0.63297   0.59983   0.45925   0.00000  Uiso   1.00
C697   C     0.63993   0.61075   0.54279   0.00000  Uiso   1.00
C698   C     0.86007   0.88925   0.45721   0.00000  Uiso   1.00
C699   C     0.59823   0.83785   0.50134   0.00000  Uiso   1.00
C700   C     0.90177   0.66215   0.49866   0.00000  Uiso   1.00
C701   C     0.90177   0.83785   0.50134   0.00000  Uiso   1.00
C702   C     0.59823   0.66215   0.49866   0.00000  Uiso   1.00
C703   C     0.84823   0.58785   0.50134   0.00000  Uiso   1.00
C704   C     0.65177   0.91215   0.49866   0.00000  Uiso   1.00
C705   C     0.65177   0.58785   0.50134   0.00000  Uiso   1.00
C706   C     0.56204   0.80660   0.50047   0.00000  Uiso   1.00
C707   C     0.84823   0.91215   0.49866   0.00000  Uiso   1.00
C708   C     0.50000   0.66946   0.38012   0.00000  Uiso   1.00
C709   C     0.50000   0.83054   0.61988   0.00000  Uiso   1.00
C710   C     0.50000   0.83075   0.38521   0.00000  Uiso   1.00
C711   C     0.50000   0.66925   0.61479   0.00000  Uiso   1.00
C712   C     0.75000   0.91946   0.38012   0.00000  Uiso   1.00
C713   C     0.75000   0.58054   0.61988   0.00000  Uiso   1.00
C714   C     0.75000   0.58075   0.38521   0.00000  Uiso   1.00
C715   C     0.75000   0.91925   0.61479   0.00000  Uiso   1.00
C716   C     0.81204   0.94340   0.49953   0.00000  Uiso   1.00
C717   C     0.68796   0.55660   0.50047   0.00000  Uiso   1.00
C718   C     0.68796   0.94340   0.49953   0.00000  Uiso   1.00
C719   C     0.81204   0.55660   0.50047   0.00000  Uiso   1.00
C720   C     0.50000   0.71106   0.35683   0.00000  Uiso   1.00
Cu721  Cu    0.50000   0.75000   0.54689   0.00000  Uiso   1.00
Cu722  Cu    0.50000   0.75000   0.45311   0.00000  Uiso   1.00
Cu723  Cu    0.75000   0.50000   0.54689   0.00000  Uiso   1.00
Cu724  Cu    0.75000   0.50000   0.45311   0.00000  Uiso   1.00
I725   I     0.89129   0.66970   0.39165   0.00000  Uiso   1.00
I726   I     0.85871   0.58030   0.60835   0.00000  Uiso   1.00
I727   I     0.87266   0.55319   0.40203   0.00000  Uiso   1.00
I728   I     0.62734   0.94681   0.59797   0.00000  Uiso   1.00
I729   I     0.87266   0.94681   0.59797   0.00000  Uiso   1.00
I730   I     0.62734   0.55319   0.40203   0.00000  Uiso   1.00
I731   I     0.64129   0.58030   0.60835   0.00000  Uiso   1.00
I732   I     0.85871   0.91970   0.39165   0.00000  Uiso   1.00
I733   I     0.60871   0.83030   0.60835   0.00000  Uiso   1.00
I734   I     0.62266   0.80318   0.40203   0.00000  Uiso   1.00
I735   I     0.87734   0.69681   0.59797   0.00000  Uiso   1.00
I736   I     0.62266   0.69681   0.59797   0.00000  Uiso   1.00
I737   I     0.87734   0.80319   0.40203   0.00000  Uiso   1.00
I738   I     0.89129   0.83030   0.60835   0.00000  Uiso   1.00
I739   I     0.60871   0.66970   0.39165   0.00000  Uiso   1.00
I740   I     0.64129   0.91970   0.39165   0.00000  Uiso   1.00
N741   N     0.50000   0.75000   0.61736   0.00000  Uiso   1.00
N742   N     0.75000   0.61409   0.60159   0.00000  Uiso   1.00
N743   N     0.75000   0.61444   0.40554   0.00000  Uiso   1.00
N744   N     0.75000   0.88556   0.59446   0.00000  Uiso   1.00
N745   N     0.50000   0.75000   0.38264   0.00000  Uiso   1.00
N746   N     0.75000   0.50000   0.61736   0.00000  Uiso   1.00
N747   N     0.75000   0.50000   0.38264   0.00000  Uiso   1.00
N748   N     0.50000   0.63591   0.39841   0.00000  Uiso   1.00
N749   N     0.50000   0.86409   0.60159   0.00000  Uiso   1.00
N750   N     0.50000   0.86444   0.40554   0.00000  Uiso   1.00
N751   N     0.50000   0.63556   0.59446   0.00000  Uiso   1.00
N752   N     0.75000   0.88591   0.39841   0.00000  Uiso   1.00
O753   O     0.54509   0.70491   0.53958   0.00000  Uiso   1.00
O754   O     0.70492   0.54509   0.46042   0.00000  Uiso   1.00
O755   O     0.70492   0.54509   0.53958   0.00000  Uiso   1.00
O756   O     0.79509   0.95491   0.46042   0.00000  Uiso   1.00
O757   O     0.70492   0.95491   0.46042   0.00000  Uiso   1.00
O758   O     0.79509   0.54509   0.53958   0.00000  Uiso   1.00
O759   O     0.79509   0.54509   0.46042   0.00000  Uiso   1.00
O760   O     0.70492   0.95491   0.53958   0.00000  Uiso   1.00
O761   O     0.95492   0.79509   0.46042   0.00000  Uiso   1.00
O762   O     0.95492   0.79509   0.53958   0.00000  Uiso   1.00
O763   O     0.54509   0.70491   0.46042   0.00000  Uiso   1.00
O764   O     0.95492   0.70491   0.46042   0.00000  Uiso   1.00
O765   O     0.54509   0.79509   0.53958   0.00000  Uiso   1.00
O766   O     0.54509   0.79509   0.46042   0.00000  Uiso   1.00
O767   O     0.95492   0.70491   0.53958   0.00000  Uiso   1.00
O768   O     0.79509   0.95491   0.53958   0.00000  Uiso   1.00
C769   C     0.06204   0.19340   0.83287   0.00000  Uiso   1.00
C770   C     0.00000   0.28894   0.97650   0.00000  Uiso   1.00
C771   C     0.00000   0.28897   0.69271   0.00000  Uiso   1.00
C772   C     0.00000   0.21103   0.97396   0.00000  Uiso   1.00
C773   C     0.25000   0.46106   0.69017   0.00000  Uiso   1.00
C774   C     0.25000   0.03894   0.97650   0.00000  Uiso   1.00
C775   C     0.25000   0.03897   0.69271   0.00000  Uiso   1.00
C776   C     0.25000   0.46103   0.97396   0.00000  Uiso   1.00
C777   C     0.38993   0.13925   0.79054   0.00000  Uiso   1.00
C778   C     0.11007   0.36075   0.87612   0.00000  Uiso   1.00
C779   C     0.11703   0.34983   0.79258   0.00000  Uiso   1.00
C780   C     0.43796   0.30660   0.83380   0.00000  Uiso   1.00
C781   C     0.38297   0.15017   0.87409   0.00000  Uiso   1.00
C782   C     0.11703   0.15017   0.87409   0.00000  Uiso   1.00
C783   C     0.38297   0.34983   0.79258   0.00000  Uiso   1.00
C784   C     0.38993   0.36075   0.87612   0.00000  Uiso   1.00
C785   C     0.11007   0.13925   0.79054   0.00000  Uiso   1.00
C786   C     0.13993   0.38925   0.79054   0.00000  Uiso   1.00
C787   C     0.36007   0.11075   0.87612   0.00000  Uiso   1.00
C788   C     0.36703   0.09983   0.79258   0.00000  Uiso   1.00
C789   C     0.13297   0.40017   0.87409   0.00000  Uiso   1.00
C790   C     0.36703   0.40017   0.87409   0.00000  Uiso   1.00
C791   C     0.43796   0.19340   0.83287   0.00000  Uiso   1.00
C792   C     0.13297   0.09983   0.79258   0.00000  Uiso   1.00
C793   C     0.13993   0.11075   0.87612   0.00000  Uiso   1.00
C794   C     0.36007   0.38925   0.79054   0.00000  Uiso   1.00
C795   C     0.09823   0.33785   0.83468   0.00000  Uiso   1.00
C796   C     0.40177   0.16215   0.83199   0.00000  Uiso   1.00
C797   C     0.40177   0.33785   0.83468   0.00000  Uiso   1.00
C798   C     0.09823   0.16215   0.83199   0.00000  Uiso   1.00
C799   C     0.34823   0.08785   0.83468   0.00000  Uiso   1.00
C800   C     0.15177   0.41215   0.83199   0.00000  Uiso   1.00
C801   C     0.15177   0.08785   0.83468   0.00000  Uiso   1.00
C802   C     0.06204   0.30660   0.83380   0.00000  Uiso   1.00
C803   C     0.34823   0.41215   0.83199   0.00000  Uiso   1.00
C804   C     0.00000   0.16946   0.71345   0.00000  Uiso   1.00
C805   C     0.00000   0.33054   0.95321   0.00000  Uiso   1.00
C806   C     0.00000   0.33075   0.71854   0.00000  Uiso   1.00
C807   C     0.00000   0.16925   0.94813   0.00000  Uiso   1.00
C808   C     0.25000   0.41946   0.71345   0.00000  Uiso   1.00
C809   C     0.25000   0.08054   0.95321   0.00000  Uiso   1.00
C810   C     0.25000   0.08075   0.71854   0.00000  Uiso   1.00
C811   C     0.25000   0.41925   0.94813   0.00000  Uiso   1.00
C812   C     0.31204   0.44340   0.83287   0.00000  Uiso   1.00
C813   C     0.18796   0.05660   0.83380   0.00000  Uiso   1.00
C814   C     0.18796   0.44340   0.83287   0.00000  Uiso   1.00
C815   C     0.31204   0.05660   0.83380   0.00000  Uiso   1.00
C816   C     0.00000   0.21106   0.69017   0.00000  Uiso   1.00
Cu817  Cu    0.00000   0.25000   0.88022   0.00000  Uiso   1.00
Cu818  Cu    0.00000   0.25000   0.78645   0.00000  Uiso   1.00
Cu819  Cu    0.25000   0.00000   0.88022   0.00000  Uiso   1.00
Cu820  Cu    0.25000   0.00000   0.78645   0.00000  Uiso   1.00
I821   I     0.39129   0.16970   0.72499   0.00000  Uiso   1.00
I822   I     0.35871   0.08030   0.94168   0.00000  Uiso   1.00
I823   I     0.37266   0.05319   0.73537   0.00000  Uiso   1.00
I824   I     0.12734   0.44681   0.93130   0.00000  Uiso   1.00
I825   I     0.37266   0.44681   0.93130   0.00000  Uiso   1.00
I826   I     0.12734   0.05319   0.73537   0.00000  Uiso   1.00
I827   I     0.14129   0.08030   0.94168   0.00000  Uiso   1.00
I828   I     0.35871   0.41970   0.72499   0.00000  Uiso   1.00
I829   I     0.10871   0.33030   0.94168   0.00000  Uiso   1.00
I830   I     0.12266   0.30318   0.73537   0.00000  Uiso   1.00
I831   I     0.37734   0.19681   0.93130   0.00000  Uiso   1.00
I832   I     0.12266   0.19681   0.93130   0.00000  Uiso   1.00
I833   I     0.37734   0.30319   0.73537   0.00000  Uiso   1.00
I834   I     0.39129   0.33030   0.94168   0.00000  Uiso   1.00
I835   I     0.10871   0.16970   0.72499   0.00000  Uiso   1.00
I836   I     0.14129   0.41970   0.72499   0.00000  Uiso   1.00
N837   N     0.00000   0.25000   0.95069   0.00000  Uiso   1.00
N838   N     0.25000   0.11409   0.93492   0.00000  Uiso   1.00
N839   N     0.25000   0.11444   0.73887   0.00000  Uiso   1.00
N840   N     0.25000   0.38556   0.92780   0.00000  Uiso   1.00
N841   N     0.00000   0.25000   0.71598   0.00000  Uiso   1.00
N842   N     0.25000   0.00000   0.95069   0.00000  Uiso   1.00
N843   N     0.25000   0.00000   0.71598   0.00000  Uiso   1.00
N844   N     0.00000   0.13591   0.73174   0.00000  Uiso   1.00
N845   N     0.00000   0.36409   0.93492   0.00000  Uiso   1.00
N846   N    -0.00000   0.36444   0.73887   0.00000  Uiso   1.00
N847   N     0.00000   0.13556   0.92780   0.00000  Uiso   1.00
N848   N     0.25000   0.38591   0.73174   0.00000  Uiso   1.00
O849   O     0.04509   0.20491   0.87291   0.00000  Uiso   1.00
O850   O     0.20492   0.04509   0.79375   0.00000  Uiso   1.00
O851   O     0.20492   0.04509   0.87291   0.00000  Uiso   1.00
O852   O     0.29509   0.45491   0.79375   0.00000  Uiso   1.00
O853   O     0.20492   0.45491   0.79375   0.00000  Uiso   1.00
O854   O     0.29509   0.04509   0.87291   0.00000  Uiso   1.00
O855   O     0.29509   0.04509   0.79375   0.00000  Uiso   1.00
O856   O     0.20492   0.45491   0.87291   0.00000  Uiso   1.00
O857   O     0.45492   0.29509   0.79375   0.00000  Uiso   1.00
O858   O     0.45492   0.29509   0.87291   0.00000  Uiso   1.00
O859   O     0.04509   0.20491   0.79375   0.00000  Uiso   1.00
O860   O     0.45492   0.20491   0.79375   0.00000  Uiso   1.00
O861   O     0.04509   0.29509   0.87291   0.00000  Uiso   1.00
O862   O     0.04509   0.29509   0.79375   0.00000  Uiso   1.00
O863   O     0.45492   0.20491   0.87291   0.00000  Uiso   1.00
O864   O     0.29509   0.45491   0.87291   0.00000  Uiso   1.00
C865   C     0.56204   0.19340   0.83287   0.00000  Uiso   1.00
C866   C     0.50000   0.28894   0.97650   0.00000  Uiso   1.00
C867   C     0.50000   0.28897   0.69271   0.00000  Uiso   1.00
C868   C     0.50000   0.21103   0.97396   0.00000  Uiso   1.00
C869   C     0.75000   0.46106   0.69017   0.00000  Uiso   1.00
C870   C     0.75000   0.03894   0.97650   0.00000  Uiso   1.00
C871   C     0.75000   0.03897   0.69271   0.00000  Uiso   1.00
C872   C     0.75000   0.46103   0.97396   0.00000  Uiso   1.00
C873   C     0.88993   0.13925   0.79054   0.00000  Uiso   1.00
C874   C     0.61007   0.36075   0.87612   0.00000  Uiso   1.00
C875   C     0.61703   0.34983   0.79258   0.00000  Uiso   1.00
C876   C     0.93796   0.30660   0.83380   0.00000  Uiso   1.00
C877   C     0.88297   0.15017   0.87409   0.00000  Uiso   1.00
C878   C     0.61703   0.15017   0.87409   0.00000  Uiso   1.00
C879   C     0.88297   0.34983   0.79258   0.00000  Uiso   1.00
C880   C     0.88993   0.36075   0.87612   0.00000  Uiso   1.00
C881   C     0.61007   0.13925   0.79054   0.00000  Uiso   1.00
C882   C     0.63993   0.38925   0.79054   0.00000  Uiso   1.00
C883   C     0.86007   0.11075   0.87612   0.00000  Uiso   1.00
C884   C     0.86703   0.09983   0.79258   0.00000  Uiso   1.00
C885   C     0.63297   0.40017   0.87409   0.00000  Uiso   1.00
C886   C     0.86703   0.40017   0.87409   0.00000  Uiso   1.00
C887   C     0.93796   0.19340   0.83287   0.00000  Uiso   1.00
C888   C     0.63297   0.09983   0.79258   0.00000  Uiso   1.00
C889   C     0.63993   0.11075   0.87612   0.00000  Uiso   1.00
C890   C     0.86007   0.38925   0.79054   0.00000  Uiso   1.00
C891   C     0.59823   0.33785   0.83468   0.00000  Uiso   1.00
C892   C     0.90177   0.16215   0.83199   0.00000  Uiso   1.00
C893   C     0.90177   0.33785   0.83468   0.00000  Uiso   1.00
C894   C     0.59823   0.16215   0.83199   0.00000  Uiso   1.00
C895   C     0.84823   0.08785   0.83468   0.00000  Uiso   1.00
C896   C     0.65177   0.41215   0.83199   0.00000  Uiso   1.00
C897   C     0.65177   0.08785   0.83468   0.00000  Uiso   1.00
C898   C     0.56204   0.30660   0.83380   0.00000  Uiso   1.00
C899   C     0.84823   0.41215   0.83199   0.00000  Uiso   1.00
C900   C     0.50000   0.16946   0.71345   0.00000  Uiso   1.00
C901   C     0.50000   0.33054   0.95321   0.00000  Uiso   1.00
C902   C     0.50000   0.33075   0.71854   0.00000  Uiso   1.00
C903   C     0.50000   0.16925   0.94813   0.00000  Uiso   1.00
C904   C     0.75000   0.41946   0.71345   0.00000  Uiso   1.00
C905   C     0.75000   0.08054   0.95321   0.00000  Uiso   1.00
C906   C     0.75000   0.08075   0.71854   0.00000  Uiso   1.00
C907   C     0.75000   0.41925   0.94813   0.00000  Uiso   1.00
C908   C     0.81204   0.44340   0.83287   0.00000  Uiso   1.00
C909   C     0.68796   0.05660   0.83380   0.00000  Uiso   1.00
C910   C     0.68796   0.44340   0.83287   0.00000  Uiso   1.00
C911   C     0.81204   0.05660   0.83380   0.00000  Uiso   1.00
C912   C     0.50000   0.21106   0.69017   0.00000  Uiso   1.00
Cu913  Cu    0.50000   0.25000   0.88022   0.00000  Uiso   1.00
Cu914  Cu    0.50000   0.25000   0.78645   0.00000  Uiso   1.00
Cu915  Cu    0.75000   0.00000   0.88022   0.00000  Uiso   1.00
Cu916  Cu    0.75000   0.00000   0.78645   0.00000  Uiso   1.00
I917   I     0.89129   0.16970   0.72499   0.00000  Uiso   1.00
I918   I     0.85871   0.08030   0.94168   0.00000  Uiso   1.00
I919   I     0.87266   0.05319   0.73537   0.00000  Uiso   1.00
I920   I     0.62734   0.44681   0.93130   0.00000  Uiso   1.00
I921   I     0.87266   0.44681   0.93130   0.00000  Uiso   1.00
I922   I     0.62734   0.05319   0.73537   0.00000  Uiso   1.00
I923   I     0.64129   0.08030   0.94168   0.00000  Uiso   1.00
I924   I     0.85871   0.41970   0.72499   0.00000  Uiso   1.00
I925   I     0.60871   0.33030   0.94168   0.00000  Uiso   1.00
I926   I     0.62266   0.30318   0.73537   0.00000  Uiso   1.00
I927   I     0.87734   0.19681   0.93130   0.00000  Uiso   1.00
I928   I     0.62266   0.19681   0.93130   0.00000  Uiso   1.00
I929   I     0.87734   0.30319   0.73537   0.00000  Uiso   1.00
I930   I     0.89129   0.33030   0.94168   0.00000  Uiso   1.00
I931   I     0.60871   0.16970   0.72499   0.00000  Uiso   1.00
I932   I     0.64129   0.41970   0.72499   0.00000  Uiso   1.00
N933   N     0.50000   0.25000   0.95069   0.00000  Uiso   1.00
N934   N     0.75000   0.11409   0.93492   0.00000  Uiso   1.00
N935   N     0.75000   0.11444   0.73887   0.00000  Uiso   1.00
N936   N     0.75000   0.38556   0.92780   0.00000  Uiso   1.00
N937   N     0.50000   0.25000   0.71598   0.00000  Uiso   1.00
N938   N     0.75000   0.00000   0.95069   0.00000  Uiso   1.00
N939   N     0.75000   0.00000   0.71598   0.00000  Uiso   1.00
N940   N     0.50000   0.13591   0.73174   0.00000  Uiso   1.00
N941   N     0.50000   0.36409   0.93492   0.00000  Uiso   1.00
N942   N     0.50000   0.36444   0.73887   0.00000  Uiso   1.00
N943   N     0.50000   0.13556   0.92780   0.00000  Uiso   1.00
N944   N     0.75000   0.38591   0.73174   0.00000  Uiso   1.00
O945   O     0.54509   0.20491   0.87291   0.00000  Uiso   1.00
O946   O     0.70492   0.04509   0.79375   0.00000  Uiso   1.00
O947   O     0.70492   0.04509   0.87291   0.00000  Uiso   1.00
O948   O     0.79509   0.45491   0.79375   0.00000  Uiso   1.00
O949   O     0.70492   0.45491   0.79375   0.00000  Uiso   1.00
O950   O     0.79509   0.04509   0.87291   0.00000  Uiso   1.00
O951   O     0.79509   0.04509   0.79375   0.00000  Uiso   1.00
O952   O     0.70492   0.45491   0.87291   0.00000  Uiso   1.00
O953   O     0.95492   0.29509   0.79375   0.00000  Uiso   1.00
O954   O     0.95492   0.29509   0.87291   0.00000  Uiso   1.00
O955   O     0.54509   0.20491   0.79375   0.00000  Uiso   1.00
O956   O     0.95492   0.20491   0.79375   0.00000  Uiso   1.00
O957   O     0.54509   0.29509   0.87291   0.00000  Uiso   1.00
O958   O     0.54509   0.29509   0.79375   0.00000  Uiso   1.00
O959   O     0.95492   0.20491   0.87291   0.00000  Uiso   1.00
O960   O     0.79509   0.45491   0.87291   0.00000  Uiso   1.00
C961   C     0.06204   0.69340   0.83287   0.00000  Uiso   1.00
C962   C     0.00000   0.78894   0.97650   0.00000  Uiso   1.00
C963   C     0.00000   0.78897   0.69271   0.00000  Uiso   1.00
C964   C     0.00000   0.71103   0.97396   0.00000  Uiso   1.00
C965   C     0.25000   0.96106   0.69017   0.00000  Uiso   1.00
C966   C     0.25000   0.53894   0.97650   0.00000  Uiso   1.00
C967   C     0.25000   0.53897   0.69271   0.00000  Uiso   1.00
C968   C     0.25000   0.96103   0.97396   0.00000  Uiso   1.00
C969   C     0.38993   0.63925   0.79054   0.00000  Uiso   1.00
C970   C     0.11007   0.86075   0.87612   0.00000  Uiso   1.00
C971   C     0.11703   0.84983   0.79258   0.00000  Uiso   1.00
C972   C     0.43796   0.80660   0.83380   0.00000  Uiso   1.00
C973   C     0.38297   0.65017   0.87409   0.00000  Uiso   1.00
C974   C     0.11703   0.65017   0.87409   0.00000  Uiso   1.00
C975   C     0.38297   0.84983   0.79258   0.00000  Uiso   1.00
C976   C     0.38993   0.86075   0.87612   0.00000  Uiso   1.00
C977   C     0.11007   0.63925   0.79054   0.00000  Uiso   1.00
C978   C     0.13993   0.88925   0.79054   0.00000  Uiso   1.00
C979   C     0.36007   0.61075   0.87612   0.00000  Uiso   1.00
C980   C     0.36703   0.59983   0.79258   0.00000  Uiso   1.00
C981   C     0.13297   0.90017   0.87409   0.00000  Uiso   1.00
C982   C     0.36703   0.90017   0.87409   0.00000  Uiso   1.00
C983   C     0.43796   0.69340   0.83287   0.00000  Uiso   1.00
C984   C     0.13297   0.59983   0.79258   0.00000  Uiso   1.00
C985   C     0.13993   0.61075   0.87612   0.00000  Uiso   1.00
C986   C     0.36007   0.88925   0.79054   0.00000  Uiso   1.00
C987   C     0.09823   0.83785   0.83468   0.00000  Uiso   1.00
C988   C     0.40177   0.66215   0.83199   0.00000  Uiso   1.00
C989   C     0.40177   0.83785   0.83468   0.00000  Uiso   1.00
C990   C     0.09823   0.66215   0.83199   0.00000  Uiso   1.00
C991   C     0.34823   0.58785   0.83468   0.00000  Uiso   1.00
C992   C     0.15177   0.91215   0.83199   0.00000  Uiso   1.00
C993   C     0.15177   0.58785   0.83468   0.00000  Uiso   1.00
C994   C     0.06204   0.80660   0.83380   0.00000  Uiso   1.00
C995   C     0.34823   0.91215   0.83199   0.00000  Uiso   1.00
C996   C     0.00000   0.66946   0.71345   0.00000  Uiso   1.00
C997   C     0.00000   0.83054   0.95321   0.00000  Uiso   1.00
C998   C     0.00000   0.83075   0.71854   0.00000  Uiso   1.00
C999   C     0.00000   0.66925   0.94813   0.00000  Uiso   1.00
C1000  C     0.25000   0.91946   0.71345   0.00000  Uiso   1.00
C1001  C     0.25000   0.58054   0.95321   0.00000  Uiso   1.00
C1002  C     0.25000   0.58075   0.71854   0.00000  Uiso   1.00
C1003  C     0.25000   0.91925   0.94813   0.00000  Uiso   1.00
C1004  C     0.31204   0.94340   0.83287   0.00000  Uiso   1.00
C1005  C     0.18796   0.55660   0.83380   0.00000  Uiso   1.00
C1006  C     0.18796   0.94340   0.83287   0.00000  Uiso   1.00
C1007  C     0.31204   0.55660   0.83380   0.00000  Uiso   1.00
C1008  C     0.00000   0.71106   0.69017   0.00000  Uiso   1.00
Cu1009 Cu    0.00000   0.75000   0.88022   0.00000  Uiso   1.00
Cu1010 Cu    0.00000   0.75000   0.78645   0.00000  Uiso   1.00
Cu1011 Cu    0.25000   0.50000   0.88022   0.00000  Uiso   1.00
Cu1012 Cu    0.25000   0.50000   0.78645   0.00000  Uiso   1.00
I1013  I     0.39129   0.66970   0.72499   0.00000  Uiso   1.00
I1014  I     0.35871   0.58030   0.94168   0.00000  Uiso   1.00
I1015  I     0.37266   0.55319   0.73537   0.00000  Uiso   1.00
I1016  I     0.12734   0.94681   0.93130   0.00000  Uiso   1.00
I1017  I     0.37266   0.94681   0.93130   0.00000  Uiso   1.00
I1018  I     0.12734   0.55319   0.73537   0.00000  Uiso   1.00
I1019  I     0.14129   0.58030   0.94168   0.00000  Uiso   1.00
I1020  I     0.35871   0.91970   0.72499   0.00000  Uiso   1.00
I1021  I     0.10871   0.83030   0.94168   0.00000  Uiso   1.00
I1022  I     0.12266   0.80318   0.73537   0.00000  Uiso   1.00
I1023  I     0.37734   0.69681   0.93130   0.00000  Uiso   1.00
I1024  I     0.12266   0.69681   0.93130   0.00000  Uiso   1.00
I1025  I     0.37734   0.80319   0.73537   0.00000  Uiso   1.00
I1026  I     0.39129   0.83030   0.94168   0.00000  Uiso   1.00
I1027  I     0.10871   0.66970   0.72499   0.00000  Uiso   1.00
I1028  I     0.14129   0.91970   0.72499   0.00000  Uiso   1.00
N1029  N     0.00000   0.75000   0.95069   0.00000  Uiso   1.00
N1030  N     0.25000   0.61409   0.93492   0.00000  Uiso   1.00
N1031  N     0.25000   0.61444   0.73887   0.00000  Uiso   1.00
N1032  N     0.25000   0.88556   0.92780   0.00000  Uiso   1.00
N1033  N     0.00000   0.75000   0.71598   0.00000  Uiso   1.00
N1034  N     0.25000   0.50000   0.95069   0.00000  Uiso   1.00
N1035  N     0.25000   0.50000   0.71598   0.00000  Uiso   1.00
N1036  N     0.00000   0.63591   0.73174   0.00000  Uiso   1.00
N1037  N     0.00000   0.86409   0.93492   0.00000  Uiso   1.00
N1038  N    -0.00000   0.86444   0.73887   0.00000  Uiso   1.00
N1039  N     0.00000   0.63556   0.92780   0.00000  Uiso   1.00
N1040  N     0.25000   0.88591   0.73174   0.00000  Uiso   1.00
O1041  O     0.04509   0.70491   0.87291   0.00000  Uiso   1.00
O1042  O     0.20492   0.54509   0.79375   0.00000  Uiso   1.00
O1043  O     0.20492   0.54509   0.87291   0.00000  Uiso   1.00
O1044  O     0.29509   0.95491   0.79375   0.00000  Uiso   1.00
O1045  O     0.20492   0.95491   0.79375   0.00000  Uiso   1.00
O1046  O     0.29509   0.54509   0.87291   0.00000  Uiso   1.00
O1047  O     0.29509   0.54509   0.79375   0.00000  Uiso   1.00
O1048  O     0.20492   0.95491   0.87291   0.00000  Uiso   1.00
O1049  O     0.45492   0.79509   0.79375   0.00000  Uiso   1.00
O1050  O     0.45492   0.79509   0.87291   0.00000  Uiso   1.00
O1051  O     0.04509   0.70491   0.79375   0.00000  Uiso   1.00
O1052  O     0.45492   0.70491   0.79375   0.00000  Uiso   1.00
O1053  O     0.04509   0.79509   0.87291   0.00000  Uiso   1.00
O1054  O     0.04509   0.79509   0.79375   0.00000  Uiso   1.00
O1055  O     0.45492   0.70491   0.87291   0.00000  Uiso   1.00
O1056  O     0.29509   0.95491   0.87291   0.00000  Uiso   1.00
C1057  C     0.56204   0.69340   0.83287   0.00000  Uiso   1.00
C1058  C     0.50000   0.78894   0.97650   0.00000  Uiso   1.00
C1059  C     0.50000   0.78897   0.69271   0.00000  Uiso   1.00
C1060  C     0.50000   0.71103   0.97396   0.00000  Uiso   1.00
C1061  C     0.75000   0.96106   0.69017   0.00000  Uiso   1.00
C1062  C     0.75000   0.53894   0.97650   0.00000  Uiso   1.00
C1063  C     0.75000   0.53897   0.69271   0.00000  Uiso   1.00
C1064  C     0.75000   0.96103   0.97396   0.00000  Uiso   1.00
C1065  C     0.88993   0.63925   0.79054   0.00000  Uiso   1.00
C1066  C     0.61007   0.86075   0.87612   0.00000  Uiso   1.00
C1067  C     0.61703   0.84983   0.79258   0.00000  Uiso   1.00
C1068  C     0.93796   0.80660   0.83380   0.00000  Uiso   1.00
C1069  C     0.88297   0.65017   0.87409   0.00000  Uiso   1.00
C1070  C     0.61703   0.65017   0.87409   0.00000  Uiso   1.00
C1071  C     0.88297   0.84983   0.79258   0.00000  Uiso   1.00
C1072  C     0.88993   0.86075   0.87612   0.00000  Uiso   1.00
C1073  C     0.61007   0.63925   0.79054   0.00000  Uiso   1.00
C1074  C     0.63993   0.88925   0.79054   0.00000  Uiso   1.00
C1075  C     0.86007   0.61075   0.87612   0.00000  Uiso   1.00
C1076  C     0.86703   0.59983   0.79258   0.00000  Uiso   1.00
C1077  C     0.63297   0.90017   0.87409   0.00000  Uiso   1.00
C1078  C     0.86703   0.90017   0.87409   0.00000  Uiso   1.00
C1079  C     0.93796   0.69340   0.83287   0.00000  Uiso   1.00
C1080  C     0.63297   0.59983   0.79258   0.00000  Uiso   1.00
C1081  C     0.63993   0.61075   0.87612   0.00000  Uiso   1.00
C1082  C     0.86007   0.88925   0.79054   0.00000  Uiso   1.00
C1083  C     0.59823   0.83785   0.83468   0.00000  Uiso   1.00
C1084  C     0.90177   0.66215   0.83199   0.00000  Uiso   1.00
C1085  C     0.90177   0.83785   0.83468   0.00000  Uiso   1.00
C1086  C     0.59823   0.66215   0.83199   0.00000  Uiso   1.00
C1087  C     0.84823   0.58785   0.83468   0.00000  Uiso   1.00
C1088  C     0.65177   0.91215   0.83199   0.00000  Uiso   1.00
C1089  C     0.65177   0.58785   0.83468   0.00000  Uiso   1.00
C1090  C     0.56204   0.80660   0.83380   0.00000  Uiso   1.00
C1091  C     0.84823   0.91215   0.83199   0.00000  Uiso   1.00
C1092  C     0.50000   0.66946   0.71345   0.00000  Uiso   1.00
C1093  C     0.50000   0.83054   0.95321   0.00000  Uiso   1.00
C1094  C     0.50000   0.83075   0.71854   0.00000  Uiso   1.00
C1095  C     0.50000   0.66925   0.94813   0.00000  Uiso   1.00
C1096  C     0.75000   0.91946   0.71345   0.00000  Uiso   1.00
C1097  C     0.75000   0.58054   0.95321   0.00000  Uiso   1.00
C1098  C     0.75000   0.58075   0.71854   0.00000  Uiso   1.00
C1099  C     0.75000   0.91925   0.94813   0.00000  Uiso   1.00
C1100  C     0.81204   0.94340   0.83287   0.00000  Uiso   1.00
C1101  C     0.68796   0.55660   0.83380   0.00000  Uiso   1.00
C1102  C     0.68796   0.94340   0.83287   0.00000  Uiso   1.00
C1103  C     0.81204   0.55660   0.83380   0.00000  Uiso   1.00
C1104  C     0.50000   0.71106   0.69017   0.00000  Uiso   1.00
Cu1105 Cu    0.50000   0.75000   0.88022   0.00000  Uiso   1.00
Cu1106 Cu    0.50000   0.75000   0.78645   0.00000  Uiso   1.00
Cu1107 Cu    0.75000   0.50000   0.88022   0.00000  Uiso   1.00
Cu1108 Cu    0.75000   0.50000   0.78645   0.00000  Uiso   1.00
I1109  I     0.89129   0.66970   0.72499   0.00000  Uiso   1.00
I1110  I     0.85871   0.58030   0.94168   0.00000  Uiso   1.00
I1111  I     0.87266   0.55319   0.73537   0.00000  Uiso   1.00
I1112  I     0.62734   0.94681   0.93130   0.00000  Uiso   1.00
I1113  I     0.87266   0.94681   0.93130   0.00000  Uiso   1.00
I1114  I     0.62734   0.55319   0.73537   0.00000  Uiso   1.00
I1115  I     0.64129   0.58030   0.94168   0.00000  Uiso   1.00
I1116  I     0.85871   0.91970   0.72499   0.00000  Uiso   1.00
I1117  I     0.60871   0.83030   0.94168   0.00000  Uiso   1.00
I1118  I     0.62266   0.80318   0.73537   0.00000  Uiso   1.00
I1119  I     0.87734   0.69681   0.93130   0.00000  Uiso   1.00
I1120  I     0.62266   0.69681   0.93130   0.00000  Uiso   1.00
I1121  I     0.87734   0.80319   0.73537   0.00000  Uiso   1.00
I1122  I     0.89129   0.83030   0.94168   0.00000  Uiso   1.00
I1123  I     0.60871   0.66970   0.72499   0.00000  Uiso   1.00
I1124  I     0.64129   0.91970   0.72499   0.00000  Uiso   1.00
N1125  N     0.50000   0.75000   0.95069   0.00000  Uiso   1.00
N1126  N     0.75000   0.61409   0.93492   0.00000  Uiso   1.00
N1127  N     0.75000   0.61444   0.73887   0.00000  Uiso   1.00
N1128  N     0.75000   0.88556   0.92780   0.00000  Uiso   1.00
N1129  N     0.50000   0.75000   0.71598   0.00000  Uiso   1.00
N1130  N     0.75000   0.50000   0.95069   0.00000  Uiso   1.00
N1131  N     0.75000   0.50000   0.71598   0.00000  Uiso   1.00
N1132  N     0.50000   0.63591   0.73174   0.00000  Uiso   1.00
N1133  N     0.50000   0.86409   0.93492   0.00000  Uiso   1.00
N1134  N     0.50000   0.86444   0.73887   0.00000  Uiso   1.00
N1135  N     0.50000   0.63556   0.92780   0.00000  Uiso   1.00
N1136  N     0.75000   0.88591   0.73174   0.00000  Uiso   1.00
O1137  O     0.54509   0.70491   0.87291   0.00000  Uiso   1.00
O1138  O     0.70492   0.54509   0.79375   0.00000  Uiso   1.00
O1139  O     0.70492   0.54509   0.87291   0.00000  Uiso   1.00
O1140  O     0.79509   0.95491   0.79375   0.00000  Uiso   1.00
O1141  O     0.70492   0.95491   0.79375   0.00000  Uiso   1.00
O1142  O     0.79509   0.54509   0.87291   0.00000  Uiso   1.00
O1143  O     0.79509   0.54509   0.79375   0.00000  Uiso   1.00
O1144  O     0.70492   0.95491   0.87291   0.00000  Uiso   1.00
O1145  O     0.95492   0.79509   0.79375   0.00000  Uiso   1.00
O1146  O     0.95492   0.79509   0.87291   0.00000  Uiso   1.00
O1147  O     0.54509   0.70491   0.79375   0.00000  Uiso   1.00
O1148  O     0.95492   0.70491   0.79375   0.00000  Uiso   1.00
O1149  O     0.54509   0.79509   0.87291   0.00000  Uiso   1.00
O1150  O     0.54509   0.79509   0.79375   0.00000  Uiso   1.00
O1151  O     0.95492   0.70491   0.87291   0.00000  Uiso   1.00
O1152  O     0.79509   0.95491   0.87291   0.00000  Uiso   1.00
loop_
_geom_bond_atom_site_label_1
_geom_bond_atom_site_label_2
_geom_bond_distance
_geom_bond_site_symmetry_2
_ccdc_geom_bond_type
C1     C30     1.472   .     S
C1     O81     1.307   .     A
C1     O91     1.303   .     A
C2     C37     1.445   .     S
C2     C387    1.428   .     S
C2     N69     1.371   .     S
C3     C38     1.444   .     S
C3     N73     1.374   .     A
C3     C770    1.428   1_554 S
C4     N69     1.374   .     A
C4     C39     1.444   .     S
C4     C432    1.428   .     S
C5     C40     1.445   .     S
C5     C776    1.428   1_554 S
C5     N267    1.371   .     S
C6     C41     1.445   .     S
C6     N74     1.371   .     A
C6     C391    1.428   .     S
C7     C42     1.444   .     S
C7     N75     1.374   .     A
C7     C774    1.428   1_554 S
C8     C43     1.444   .     S
C8     C389    1.428   .     S
C8     N266    1.374   .     S
C9     C20     1.392   .     A
C9     I53     2.129   .     S
C9     C28     1.410   .     A
C10    C27     1.410   .     A
C10    C21     1.392   .     A
C10    I61     2.129   .     S
C11    C18     1.392   .     A
C11    I62     2.141   .     S
C11    C27     1.406   .     A
C12    C29     1.472   .     S
C12    O90     1.303   .     A
C12    O89     1.307   .     A
C13    C28     1.406   .     A
C13    C19     1.392   .     A
C13    I63     2.141   .     S
C14    C30     1.406   .     A
C14    I64     2.141   .     S
C14    C25     1.392   .     A
C15    I65     2.141   .     S
C15    C29     1.406   .     A
C15    C26     1.392   .     A
C16    C29     1.410   .     A
C16    C22     1.392   .     A
C16    I66     2.129   .     S
C17    C30     1.410   .     A
C17    I67     2.129   .     S
C17    C24     1.392   .     A
C18    I68     2.129   .     S
C18    C32     1.410   .     A
C19    C31     1.410   .     A
C19    I54     2.129   .     S
C20    I55     2.141   .     S
C20    C31     1.406   .     A
C21    C32     1.406   .     A
C21    I56     2.141   .     S
C22    I57     2.141   .     S
C22    C35     1.406   .     A
C23    C28     1.472   .     S
C23    O95     1.307   .     A
C23    O92     1.303   .     A
C24    I58     2.141   .     S
C24    C33     1.406   .     A
C25    C33     1.410   .     A
C25    I59     2.129   .     S
C26    C35     1.410   .     A
C26    I60     2.129   .     S
C27    C34     1.472   .     S
C31    C47     1.472   .     S
C32    C46     1.472   .     S
C33    C45     1.472   .     S
C34    O94     1.307   .     A
C34    O93     1.303   .     A
C35    C44     1.472   .     S
C36    N76     1.158   .     T
C36    C48     1.445   .     S
C37    N77     1.158   .     T
C38    N78     1.158   .     T
C39    N79     1.158   .     S
C40    N80     1.158   .     T
C41    N70     1.158   .     T
C42    N71     1.158   .     T
C43    N72     1.158   .     T
C44    O96     1.307   .     A
C44    O84     1.303   .     A
C45    O82     1.307   .     A
C45    O83     1.303   .     A
C46    O85     1.303   .     A
C46    O88     1.307   .     A
C47    O86     1.303   .     A
C47    O87     1.307   .     A
C48    C772    1.428   1_554 S
C48    N73     1.371   .     S
Cu49   O186    1.975   1_455 S
Cu49   O191    1.965   1_455 S
Cu49   Cu50    2.703   .     S
Cu49   N69     2.031   .     S
Cu49   O81     1.965   .     S
Cu49   O93     1.975   .     S
Cu50   O94     1.965   .     S
Cu50   O91     1.975   .     S
Cu50   N73     2.031   .     S
Cu50   O185    1.965   1_455 S
Cu50   O188    1.975   1_455 S
Cu51   N74     2.031   .     S
Cu51   O86     1.975   .     S
Cu51   Cu52    2.703   .     S
Cu51   O83     1.975   .     S
Cu51   O280    1.965   1_545 S
Cu51   O288    1.965   1_545 S
Cu52   N75     2.031   .     S
Cu52   O82     1.965   .     S
Cu52   O87     1.965   .     S
Cu52   O276    1.975   1_545 S
Cu52   O277    1.975   1_545 S
N74    C200    1.374   1_545 S
N75    C197    1.371   1_545 S
O84    Cu244   1.975   .     S
O85    Cu244   1.975   .     S
O88    Cu243   1.965   .     S
O89    Cu146   1.965   .     S
O90    Cu145   1.975   .     S
O92    Cu146   1.975   .     S
O95    Cu145   1.965   .     S
O96    Cu243   1.965   .     S
C97    C126    1.472   .     S
C97    O177    1.307   .     A
C97    O187    1.303   .     A
C98    C133    1.445   .     S
C98    C483    1.428   .     S
C98    N165    1.371   .     S
C99    C134    1.444   .     S
C99    N169    1.374   .     A
C99    C866    1.428   1_554 S
C100   N165    1.374   .     A
C100   C135    1.444   .     S
C100   C528    1.428   .     S
C101   C136    1.445   .     S
C101   C872    1.428   1_554 S
C101   N363    1.371   .     S
C102   C137    1.445   .     S
C102   N170    1.371   .     A
C102   C487    1.428   .     S
C103   C138    1.444   .     S
C103   N171    1.374   .     A
C103   C870    1.428   1_554 S
C104   C139    1.444   .     S
C104   C485    1.428   .     S
C104   N362    1.374   .     S
C105   C116    1.392   .     A
C105   I149    2.129   .     S
C105   C124    1.410   .     A
C106   C123    1.410   .     A
C106   C117    1.392   .     A
C106   I157    2.129   .     S
C107   C114    1.392   .     A
C107   I158    2.141   .     S
C107   C123    1.406   .     A
C108   C125    1.472   .     S
C108   O186    1.303   .     A
C108   O185    1.307   .     A
C109   C124    1.406   .     A
C109   C115    1.392   .     A
C109   I159    2.141   .     S
C110   C126    1.406   .     A
C110   I160    2.141   .     S
C110   C121    1.392   .     A
C111   I161    2.141   .     S
C111   C125    1.406   .     A
C111   C122    1.392   .     A
C112   C125    1.410   .     A
C112   C118    1.392   .     A
C112   I162    2.129   .     S
C113   C126    1.410   .     A
C113   I163    2.129   .     S
C113   C120    1.392   .     A
C114   I164    2.129   .     S
C114   C128    1.410   .     A
C115   C127    1.410   .     A
C115   I150    2.129   .     S
C116   I151    2.141   .     S
C116   C127    1.406   .     A
C117   C128    1.406   .     A
C117   I152    2.141   .     S
C118   I153    2.141   .     S
C118   C131    1.406   .     A
C119   C124    1.472   .     S
C119   O191    1.307   .     A
C119   O188    1.303   .     A
C120   I154    2.141   .     S
C120   C129    1.406   .     A
C121   C129    1.410   .     A
C121   I155    2.129   .     S
C122   C131    1.410   .     A
C122   I156    2.129   .     S
C123   C130    1.472   .     S
C127   C143    1.472   .     S
C128   C142    1.472   .     S
C129   C141    1.472   .     S
C130   O190    1.307   .     A
C130   O189    1.303   .     A
C131   C140    1.472   .     S
C132   N172    1.158   .     T
C132   C144    1.445   .     S
C133   N173    1.158   .     T
C134   N174    1.158   .     T
C135   N175    1.158   .     S
C136   N176    1.158   .     T
C137   N166    1.158   .     T
C138   N167    1.158   .     T
C139   N168    1.158   .     T
C140   O192    1.307   .     A
C140   O180    1.303   .     A
C141   O178    1.307   .     A
C141   O179    1.303   .     A
C142   O181    1.303   .     A
C142   O184    1.307   .     A
C143   O182    1.303   .     A
C143   O183    1.307   .     A
C144   C868    1.428   1_554 S
C144   N169    1.371   .     S
Cu145  Cu146   2.703   .     S
Cu145  N165    2.031   .     S
Cu145  O177    1.965   .     S
Cu145  O189    1.975   .     S
Cu146  O190    1.965   .     S
Cu146  O187    1.975   .     S
Cu146  N169    2.031   .     S
Cu147  N170    2.031   .     S
Cu147  O182    1.975   .     S
Cu147  Cu148   2.703   .     S
Cu147  O179    1.975   .     S
Cu147  O376    1.965   1_545 S
Cu147  O384    1.965   1_545 S
Cu148  N171    2.031   .     S
Cu148  O178    1.965   .     S
Cu148  O183    1.965   .     S
Cu148  O372    1.975   1_545 S
Cu148  O373    1.975   1_545 S
N170   C296    1.374   1_545 S
N171   C293    1.371   1_545 S
O180   Cu340   1.975   .     S
O181   Cu340   1.975   .     S
O184   Cu339   1.965   .     S
O185   Cu50    1.965   1_655 S
O186   Cu49    1.975   1_655 S
O188   Cu50    1.975   1_655 S
O191   Cu49    1.965   1_655 S
O192   Cu339   1.965   .     S
C193   C222    1.472   .     S
C193   O273    1.307   .     A
C193   O283    1.303   .     A
C194   C229    1.445   .     S
C194   C579    1.428   .     S
C194   N261    1.371   .     S
C195   C230    1.444   .     S
C195   N265    1.374   .     A
C195   C962    1.428   1_554 S
C196   N261    1.374   .     A
C196   C231    1.444   .     S
C196   C624    1.428   .     S
C197   C232    1.445   .     S
C197   C968    1.428   1_554 S
C197   N75     1.371   1_565 S
C198   C233    1.445   .     S
C198   N266    1.371   .     A
C198   C583    1.428   .     S
C199   C234    1.444   .     S
C199   N267    1.374   .     A
C199   C966    1.428   1_554 S
C200   C235    1.444   .     S
C200   C581    1.428   .     S
C200   N74     1.374   1_565 S
C201   C212    1.392   .     A
C201   I245    2.129   .     S
C201   C220    1.410   .     A
C202   C219    1.410   .     A
C202   C213    1.392   .     A
C202   I253    2.129   .     S
C203   C210    1.392   .     A
C203   I254    2.141   .     S
C203   C219    1.406   .     A
C204   C221    1.472   .     S
C204   O282    1.303   .     A
C204   O281    1.307   .     A
C205   C220    1.406   .     A
C205   C211    1.392   .     A
C205   I255    2.141   .     S
C206   C222    1.406   .     A
C206   I256    2.141   .     S
C206   C217    1.392   .     A
C207   I257    2.141   .     S
C207   C221    1.406   .     A
C207   C218    1.392   .     A
C208   C221    1.410   .     A
C208   C214    1.392   .     A
C208   I258    2.129   .     S
C209   C222    1.410   .     A
C209   I259    2.129   .     S
C209   C216    1.392   .     A
C210   I260    2.129   .     S
C210   C224    1.410   .     A
C211   C223    1.410   .     A
C211   I246    2.129   .     S
C212   I247    2.141   .     S
C212   C223    1.406   .     A
C213   C224    1.406   .     A
C213   I248    2.141   .     S
C214   I249    2.141   .     S
C214   C227    1.406   .     A
C215   C220    1.472   .     S
C215   O287    1.307   .     A
C215   O284    1.303   .     A
C216   I250    2.141   .     S
C216   C225    1.406   .     A
C217   C225    1.410   .     A
C217   I251    2.129   .     S
C218   C227    1.410   .     A
C218   I252    2.129   .     S
C219   C226    1.472   .     S
C223   C239    1.472   .     S
C224   C238    1.472   .     S
C225   C237    1.472   .     S
C226   O286    1.307   .     A
C226   O285    1.303   .     A
C227   C236    1.472   .     S
C228   N268    1.158   .     T
C228   C240    1.445   .     S
C229   N269    1.158   .     T
C230   N270    1.158   .     T
C231   N271    1.158   .     S
C232   N272    1.158   .     T
C233   N262    1.158   .     T
C234   N263    1.158   .     T
C235   N264    1.158   .     T
C236   O288    1.307   .     A
C236   O276    1.303   .     A
C237   O274    1.307   .     A
C237   O275    1.303   .     A
C238   O277    1.303   .     A
C238   O280    1.307   .     A
C239   O278    1.303   .     A
C239   O279    1.307   .     A
C240   C964    1.428   1_554 S
C240   N265    1.371   .     S
Cu241  O378    1.975   1_455 S
Cu241  O383    1.965   1_455 S
Cu241  Cu242   2.703   .     S
Cu241  N261    2.031   .     S
Cu241  O273    1.965   .     S
Cu241  O285    1.975   .     S
Cu242  O286    1.965   .     S
Cu242  O283    1.975   .     S
Cu242  N265    2.031   .     S
Cu242  O377    1.965   1_455 S
Cu242  O380    1.975   1_455 S
Cu243  N266    2.031   .     S
Cu243  O278    1.975   .     S
Cu243  Cu244   2.703   .     S
Cu243  O275    1.975   .     S
Cu244  N267    2.031   .     S
Cu244  O274    1.965   .     S
Cu244  O279    1.965   .     S
O276   Cu52    1.975   1_565 S
O277   Cu52    1.975   1_565 S
O280   Cu51    1.965   1_565 S
O281   Cu338   1.965   .     S
O282   Cu337   1.975   .     S
O284   Cu338   1.975   .     S
O287   Cu337   1.965   .     S
O288   Cu51    1.965   1_565 S
C289   C318    1.472   .     S
C289   O369    1.307   .     A
C289   O379    1.303   .     A
C290   C325    1.445   .     S
C290   C675    1.428   .     S
C290   N357    1.371   .     S
C291   C326    1.444   .     S
C291   N361    1.374   .     A
C291   C1058   1.428   1_554 S
C292   N357    1.374   .     A
C292   C327    1.444   .     S
C292   C720    1.428   .     S
C293   C328    1.445   .     S
C293   C1064   1.428   1_554 S
C293   N171    1.371   1_565 S
C294   C329    1.445   .     S
C294   N362    1.371   .     A
C294   C679    1.428   .     S
C295   C330    1.444   .     S
C295   N363    1.374   .     A
C295   C1062   1.428   1_554 S
C296   C331    1.444   .     S
C296   C677    1.428   .     S
C296   N170    1.374   1_565 S
C297   C308    1.392   .     A
C297   I341    2.129   .     S
C297   C316    1.410   .     A
C298   C315    1.410   .     A
C298   C309    1.392   .     A
C298   I349    2.129   .     S
C299   C306    1.392   .     A
C299   I350    2.141   .     S
C299   C315    1.406   .     A
C300   C317    1.472   .     S
C300   O378    1.303   .     A
C300   O377    1.307   .     A
C301   C316    1.406   .     A
C301   C307    1.392   .     A
C301   I351    2.141   .     S
C302   C318    1.406   .     A
C302   I352    2.141   .     S
C302   C313    1.392   .     A
C303   I353    2.141   .     S
C303   C317    1.406   .     A
C303   C314    1.392   .     A
C304   C317    1.410   .     A
C304   C310    1.392   .     A
C304   I354    2.129   .     S
C305   C318    1.410   .     A
C305   I355    2.129   .     S
C305   C312    1.392   .     A
C306   I356    2.129   .     S
C306   C320    1.410   .     A
C307   C319    1.410   .     A
C307   I342    2.129   .     S
C308   I343    2.141   .     S
C308   C319    1.406   .     A
C309   C320    1.406   .     A
C309   I344    2.141   .     S
C310   I345    2.141   .     S
C310   C323    1.406   .     A
C311   C316    1.472   .     S
C311   O383    1.307   .     A
C311   O380    1.303   .     A
C312   I346    2.141   .     S
C312   C321    1.406   .     A
C313   C321    1.410   .     A
C313   I347    2.129   .     S
C314   C323    1.410   .     A
C314   I348    2.129   .     S
C315   C322    1.472   .     S
C319   C335    1.472   .     S
C320   C334    1.472   .     S
C321   C333    1.472   .     S
C322   O382    1.307   .     A
C322   O381    1.303   .     A
C323   C332    1.472   .     S
C324   N364    1.158   .     T
C324   C336    1.445   .     S
C325   N365    1.158   .     T
C326   N366    1.158   .     T
C327   N367    1.158   .     S
C328   N368    1.158   .     T
C329   N358    1.158   .     T
C330   N359    1.158   .     T
C331   N360    1.158   .     T
C332   O384    1.307   .     A
C332   O372    1.303   .     A
C333   O370    1.307   .     A
C333   O371    1.303   .     A
C334   O373    1.303   .     A
C334   O376    1.307   .     A
C335   O374    1.303   .     A
C335   O375    1.307   .     A
C336   C1060   1.428   1_554 S
C336   N361    1.371   .     S
Cu337  Cu338   2.703   .     S
Cu337  N357    2.031   .     S
Cu337  O369    1.965   .     S
Cu337  O381    1.975   .     S
Cu338  O382    1.965   .     S
Cu338  O379    1.975   .     S
Cu338  N361    2.031   .     S
Cu339  N362    2.031   .     S
Cu339  O374    1.975   .     S
Cu339  Cu340   2.703   .     S
Cu339  O371    1.975   .     S
Cu340  N363    2.031   .     S
Cu340  O370    1.965   .     S
Cu340  O375    1.965   .     S
O372   Cu148   1.975   1_565 S
O373   Cu148   1.975   1_565 S
O376   Cu147   1.965   1_565 S
O377   Cu242   1.965   1_655 S
O378   Cu241   1.975   1_655 S
O380   Cu242   1.975   1_655 S
O383   Cu241   1.965   1_655 S
O384   Cu147   1.965   1_565 S
C385   C414    1.472   .     S
C385   O465    1.307   .     A
C385   O475    1.303   .     A
C386   C421    1.445   .     S
C386   C771    1.428   .     S
C386   N453    1.371   .     S
C387   C422    1.444   .     S
C387   N457    1.374   .     A
C388   N453    1.374   .     A
C388   C423    1.444   .     S
C388   C816    1.428   .     S
C389   C424    1.445   .     S
C389   N651    1.371   .     S
C390   C425    1.445   .     S
C390   N458    1.371   .     A
C390   C775    1.428   .     S
C391   C426    1.444   .     S
C391   N459    1.374   .     A
C392   C427    1.444   .     S
C392   C773    1.428   .     S
C392   N650    1.374   .     S
C393   C404    1.392   .     A
C393   I437    2.129   .     S
C393   C412    1.410   .     A
C394   C411    1.410   .     A
C394   C405    1.392   .     A
C394   I445    2.129   .     S
C395   C402    1.392   .     A
C395   I446    2.141   .     S
C395   C411    1.406   .     A
C396   C413    1.472   .     S
C396   O474    1.303   .     A
C396   O473    1.307   .     A
C397   C412    1.406   .     A
C397   C403    1.392   .     A
C397   I447    2.141   .     S
C398   C414    1.406   .     A
C398   I448    2.141   .     S
C398   C409    1.392   .     A
C399   I449    2.141   .     S
C399   C413    1.406   .     A
C399   C410    1.392   .     A
C400   C413    1.410   .     A
C400   C406    1.392   .     A
C400   I450    2.129   .     S
C401   C414    1.410   .     A
C401   I451    2.129   .     S
C401   C408    1.392   .     A
C402   I452    2.129   .     S
C402   C416    1.410   .     A
C403   C415    1.410   .     A
C403   I438    2.129   .     S
C404   I439    2.141   .     S
C404   C415    1.406   .     A
C405   C416    1.406   .     A
C405   I440    2.141   .     S
C406   I441    2.141   .     S
C406   C419    1.406   .     A
C407   C412    1.472   .     S
C407   O479    1.307   .     A
C407   O476    1.303   .     A
C408   I442    2.141   .     S
C408   C417    1.406   .     A
C409   C417    1.410   .     A
C409   I443    2.129   .     S
C410   C419    1.410   .     A
C410   I444    2.129   .     S
C411   C418    1.472   .     S
C415   C431    1.472   .     S
C416   C430    1.472   .     S
C417   C429    1.472   .     S
C418   O478    1.307   .     A
C418   O477    1.303   .     A
C419   C428    1.472   .     S
C420   N460    1.158   .     T
C420   C432    1.445   .     S
C421   N461    1.158   .     T
C422   N462    1.158   .     T
C423   N463    1.158   .     S
C424   N464    1.158   .     T
C425   N454    1.158   .     T
C426   N455    1.158   .     T
C427   N456    1.158   .     T
C428   O480    1.307   .     A
C428   O468    1.303   .     A
C429   O466    1.307   .     A
C429   O467    1.303   .     A
C430   O469    1.303   .     A
C430   O472    1.307   .     A
C431   O470    1.303   .     A
C431   O471    1.307   .     A
C432   N457    1.371   .     S
Cu433  O570    1.975   1_455 S
Cu433  O575    1.965   1_455 S
Cu433  Cu434   2.703   .     S
Cu433  N453    2.031   .     S
Cu433  O465    1.965   .     S
Cu433  O477    1.975   .     S
Cu434  O478    1.965   .     S
Cu434  O475    1.975   .     S
Cu434  N457    2.031   .     S
Cu434  O569    1.965   1_455 S
Cu434  O572    1.975   1_455 S
Cu435  N458    2.031   .     S
Cu435  O470    1.975   .     S
Cu435  Cu436   2.703   .     S
Cu435  O467    1.975   .     S
Cu435  O664    1.965   1_545 S
Cu435  O672    1.965   1_545 S
Cu436  N459    2.031   .     S
Cu436  O466    1.965   .     S
Cu436  O471    1.965   .     S
Cu436  O660    1.975   1_545 S
Cu436  O661    1.975   1_545 S
N458   C584    1.374   1_545 S
N459   C581    1.371   1_545 S
O468   Cu628   1.975   .     S
O469   Cu628   1.975   .     S
O472   Cu627   1.965   .     S
O473   Cu530   1.965   .     S
O474   Cu529   1.975   .     S
O476   Cu530   1.975   .     S
O479   Cu529   1.965   .     S
O480   Cu627   1.965   .     S
C481   C510    1.472   .     S
C481   O561    1.307   .     A
C481   O571    1.303   .     A
C482   C517    1.445   .     S
C482   C867    1.428   .     S
C482   N549    1.371   .     S
C483   C518    1.444   .     S
C483   N553    1.374   .     A
C484   N549    1.374   .     A
C484   C519    1.444   .     S
C484   C912    1.428   .     S
C485   C520    1.445   .     S
C485   N747    1.371   .     S
C486   C521    1.445   .     S
C486   N554    1.371   .     A
C486   C871    1.428   .     S
C487   C522    1.444   .     S
C487   N555    1.374   .     A
C488   C523    1.444   .     S
C488   C869    1.428   .     S
C488   N746    1.374   .     S
C489   C500    1.392   .     A
C489   I533    2.129   .     S
C489   C508    1.410   .     A
C490   C507    1.410   .     A
C490   C501    1.392   .     A
C490   I541    2.129   .     S
C491   C498    1.392   .     A
C491   I542    2.141   .     S
C491   C507    1.406   .     A
C492   C509    1.472   .     S
C492   O570    1.303   .     A
C492   O569    1.307   .     A
C493   C508    1.406   .     A
C493   C499    1.392   .     A
C493   I543    2.141   .     S
C494   C510    1.406   .     A
C494   I544    2.141   .     S
C494   C505    1.392   .     A
C495   I545    2.141   .     S
C495   C509    1.406   .     A
C495   C506    1.392   .     A
C496   C509    1.410   .     A
C496   C502    1.392   .     A
C496   I546    2.129   .     S
C497   C510    1.410   .     A
C497   I547    2.129   .     S
C497   C504    1.392   .     A
C498   I548    2.129   .     S
C498   C512    1.410   .     A
C499   C511    1.410   .     A
C499   I534    2.129   .     S
C500   I535    2.141   .     S
C500   C511    1.406   .     A
C501   C512    1.406   .     A
C501   I536    2.141   .     S
C502   I537    2.141   .     S
C502   C515    1.406   .     A
C503   C508    1.472   .     S
C503   O575    1.307   .     A
C503   O572    1.303   .     A
C504   I538    2.141   .     S
C504   C513    1.406   .     A
C505   C513    1.410   .     A
C505   I539    2.129   .     S
C506   C515    1.410   .     A
C506   I540    2.129   .     S
C507   C514    1.472   .     S
C511   C527    1.472   .     S
C512   C526    1.472   .     S
C513   C525    1.472   .     S
C514   O574    1.307   .     A
C514   O573    1.303   .     A
C515   C524    1.472   .     S
C516   N556    1.158   .     T
C516   C528    1.445   .     S
C517   N557    1.158   .     T
C518   N558    1.158   .     T
C519   N559    1.158   .     S
C520   N560    1.158   .     T
C521   N550    1.158   .     T
C522   N551    1.158   .     T
C523   N552    1.158   .     T
C524   O576    1.307   .     A
C524   O564    1.303   .     A
C525   O562    1.307   .     A
C525   O563    1.303   .     A
C526   O565    1.303   .     A
C526   O568    1.307   .     A
C527   O566    1.303   .     A
C527   O567    1.307   .     A
C528   N553    1.371   .     S
Cu529  Cu530   2.703   .     S
Cu529  N549    2.031   .     S
Cu529  O561    1.965   .     S
Cu529  O573    1.975   .     S
Cu530  O574    1.965   .     S
Cu530  O571    1.975   .     S
Cu530  N553    2.031   .     S
Cu531  N554    2.031   .     S
Cu531  O566    1.975   .     S
Cu531  Cu532   2.703   .     S
Cu531  O563    1.975   .     S
Cu531  O760    1.965   1_545 S
Cu531  O768    1.965   1_545 S
Cu532  N555    2.031   .     S
Cu532  O562    1.965   .     S
Cu532  O567    1.965   .     S
Cu532  O756    1.975   1_545 S
Cu532  O757    1.975   1_545 S
N554   C680    1.374   1_545 S
N555   C677    1.371   1_545 S
O564   Cu724   1.975   .     S
O565   Cu724   1.975   .     S
O568   Cu723   1.965   .     S
O569   Cu434   1.965   1_655 S
O570   Cu433   1.975   1_655 S
O572   Cu434   1.975   1_655 S
O575   Cu433   1.965   1_655 S
O576   Cu723   1.965   .     S
C577   C606    1.472   .     S
C577   O657    1.307   .     A
C577   O667    1.303   .     A
C578   C613    1.445   .     S
C578   C963    1.428   .     S
C578   N645    1.371   .     S
C579   C614    1.444   .     S
C579   N649    1.374   .     A
C580   N645    1.374   .     A
C580   C615    1.444   .     S
C580   C1008   1.428   .     S
C581   C616    1.445   .     S
C581   N459    1.371   1_565 S
C582   C617    1.445   .     S
C582   N650    1.371   .     A
C582   C967    1.428   .     S
C583   C618    1.444   .     S
C583   N651    1.374   .     A
C584   C619    1.444   .     S
C584   C965    1.428   .     S
C584   N458    1.374   1_565 S
C585   C596    1.392   .     A
C585   I629    2.129   .     S
C585   C604    1.410   .     A
C586   C603    1.410   .     A
C586   C597    1.392   .     A
C586   I637    2.129   .     S
C587   C594    1.392   .     A
C587   I638    2.141   .     S
C587   C603    1.406   .     A
C588   C605    1.472   .     S
C588   O666    1.303   .     A
C588   O665    1.307   .     A
C589   C604    1.406   .     A
C589   C595    1.392   .     A
C589   I639    2.141   .     S
C590   C606    1.406   .     A
C590   I640    2.141   .     S
C590   C601    1.392   .     A
C591   I641    2.141   .     S
C591   C605    1.406   .     A
C591   C602    1.392   .     A
C592   C605    1.410   .     A
C592   C598    1.392   .     A
C592   I642    2.129   .     S
C593   C606    1.410   .     A
C593   I643    2.129   .     S
C593   C600    1.392   .     A
C594   I644    2.129   .     S
C594   C608    1.410   .     A
C595   C607    1.410   .     A
C595   I630    2.129   .     S
C596   I631    2.141   .     S
C596   C607    1.406   .     A
C597   C608    1.406   .     A
C597   I632    2.141   .     S
C598   I633    2.141   .     S
C598   C611    1.406   .     A
C599   C604    1.472   .     S
C599   O671    1.307   .     A
C599   O668    1.303   .     A
C600   I634    2.141   .     S
C600   C609    1.406   .     A
C601   C609    1.410   .     A
C601   I635    2.129   .     S
C602   C611    1.410   .     A
C602   I636    2.129   .     S
C603   C610    1.472   .     S
C607   C623    1.472   .     S
C608   C622    1.472   .     S
C609   C621    1.472   .     S
C610   O670    1.307   .     A
C610   O669    1.303   .     A
C611   C620    1.472   .     S
C612   N652    1.158   .     T
C612   C624    1.445   .     S
C613   N653    1.158   .     T
C614   N654    1.158   .     T
C615   N655    1.158   .     S
C616   N656    1.158   .     T
C617   N646    1.158   .     T
C618   N647    1.158   .     T
C619   N648    1.158   .     T
C620   O672    1.307   .     A
C620   O660    1.303   .     A
C621   O658    1.307   .     A
C621   O659    1.303   .     A
C622   O661    1.303   .     A
C622   O664    1.307   .     A
C623   O662    1.303   .     A
C623   O663    1.307   .     A
C624   N649    1.371   .     S
Cu625  O762    1.975   1_455 S
Cu625  O767    1.965   1_455 S
Cu625  Cu626   2.703   .     S
Cu625  N645    2.031   .     S
Cu625  O657    1.965   .     S
Cu625  O669    1.975   .     S
Cu626  O670    1.965   .     S
Cu626  O667    1.975   .     S
Cu626  N649    2.031   .     S
Cu626  O761    1.965   1_455 S
Cu626  O764    1.975   1_455 S
Cu627  N650    2.031   .     S
Cu627  O662    1.975   .     S
Cu627  Cu628   2.703   .     S
Cu627  O659    1.975   .     S
Cu628  N651    2.031   .     S
Cu628  O658    1.965   .     S
Cu628  O663    1.965   .     S
O660   Cu436   1.975   1_565 S
O661   Cu436   1.975   1_565 S
O664   Cu435   1.965   1_565 S
O665   Cu722   1.965   .     S
O666   Cu721   1.975   .     S
O668   Cu722   1.975   .     S
O671   Cu721   1.965   .     S
O672   Cu435   1.965   1_565 S
C673   C702    1.472   .     S
C673   O753    1.307   .     A
C673   O763    1.303   .     A
C674   C709    1.445   .     S
C674   C1059   1.428   .     S
C674   N741    1.371   .     S
C675   C710    1.444   .     S
C675   N745    1.374   .     A
C676   N741    1.374   .     A
C676   C711    1.444   .     S
C676   C1104   1.428   .     S
C677   C712    1.445   .     S
C677   N555    1.371   1_565 S
C678   C713    1.445   .     S
C678   N746    1.371   .     A
C678   C1063   1.428   .     S
C679   C714    1.444   .     S
C679   N747    1.374   .     A
C680   C715    1.444   .     S
C680   C1061   1.428   .     S
C680   N554    1.374   1_565 S
C681   C692    1.392   .     A
C681   I725    2.129   .     S
C681   C700    1.410   .     A
C682   C699    1.410   .     A
C682   C693    1.392   .     A
C682   I733    2.129   .     S
C683   C690    1.392   .     A
C683   I734    2.141   .     S
C683   C699    1.406   .     A
C684   C701    1.472   .     S
C684   O762    1.303   .     A
C684   O761    1.307   .     A
C685   C700    1.406   .     A
C685   C691    1.392   .     A
C685   I735    2.141   .     S
C686   C702    1.406   .     A
C686   I736    2.141   .     S
C686   C697    1.392   .     A
C687   I737    2.141   .     S
C687   C701    1.406   .     A
C687   C698    1.392   .     A
C688   C701    1.410   .     A
C688   C694    1.392   .     A
C688   I738    2.129   .     S
C689   C702    1.410   .     A
C689   I739    2.129   .     S
C689   C696    1.392   .     A
C690   I740    2.129   .     S
C690   C704    1.410   .     A
C691   C703    1.410   .     A
C691   I726    2.129   .     S
C692   I727    2.141   .     S
C692   C703    1.406   .     A
C693   C704    1.406   .     A
C693   I728    2.141   .     S
C694   I729    2.141   .     S
C694   C707    1.406   .     A
C695   C700    1.472   .     S
C695   O767    1.307   .     A
C695   O764    1.303   .     A
C696   I730    2.141   .     S
C696   C705    1.406   .     A
C697   C705    1.410   .     A
C697   I731    2.129   .     S
C698   C707    1.410   .     A
C698   I732    2.129   .     S
C699   C706    1.472   .     S
C703   C719    1.472   .     S
C704   C718    1.472   .     S
C705   C717    1.472   .     S
C706   O766    1.307   .     A
C706   O765    1.303   .     A
C707   C716    1.472   .     S
C708   N748    1.158   .     T
C708   C720    1.445   .     S
C709   N749    1.158   .     T
C710   N750    1.158   .     T
C711   N751    1.158   .     S
C712   N752    1.158   .     T
C713   N742    1.158   .     T
C714   N743    1.158   .     T
C715   N744    1.158   .     T
C716   O768    1.307   .     A
C716   O756    1.303   .     A
C717   O754    1.307   .     A
C717   O755    1.303   .     A
C718   O757    1.303   .     A
C718   O760    1.307   .     A
C719   O758    1.303   .     A
C719   O759    1.307   .     A
C720   N745    1.371   .     S
Cu721  Cu722   2.703   .     S
Cu721  N741    2.031   .     S
Cu721  O753    1.965   .     S
Cu721  O765    1.975   .     S
Cu722  O766    1.965   .     S
Cu722  O763    1.975   .     S
Cu722  N745    2.031   .     S
Cu723  N746    2.031   .     S
Cu723  O758    1.975   .     S
Cu723  Cu724   2.703   .     S
Cu723  O755    1.975   .     S
Cu724  N747    2.031   .     S
Cu724  O754    1.965   .     S
Cu724  O759    1.965   .     S
O756   Cu532   1.975   1_565 S
O757   Cu532   1.975   1_565 S
O760   Cu531   1.965   1_565 S
O761   Cu626   1.965   1_655 S
O762   Cu625   1.975   1_655 S
O764   Cu626   1.975   1_655 S
O767   Cu625   1.965   1_655 S
O768   Cu531   1.965   1_565 S
C769   C798    1.472   .     S
C769   O849    1.307   .     A
C769   O859    1.303   .     A
C770   C805    1.445   .     S
C770   C3      1.428   1_556 S
C770   N837    1.371   .     S
C771   C806    1.444   .     S
C771   N841    1.374   .     A
C772   N837    1.374   .     A
C772   C807    1.444   .     S
C772   C48     1.428   1_556 S
C773   C808    1.445   .     S
C773   N1035   1.371   .     S
C774   C809    1.445   .     S
C774   N842    1.371   .     A
C774   C7      1.428   1_556 S
C775   C810    1.444   .     S
C775   N843    1.374   .     A
C776   C811    1.444   .     S
C776   C5      1.428   1_556 S
C776   N1034   1.374   .     S
C777   C788    1.392   .     A
C777   I821    2.129   .     S
C777   C796    1.410   .     A
C778   C795    1.410   .     A
C778   C789    1.392   .     A
C778   I829    2.129   .     S
C779   C786    1.392   .     A
C779   I830    2.141   .     S
C779   C795    1.406   .     A
C780   C797    1.472   .     S
C780   O858    1.303   .     A
C780   O857    1.307   .     A
C781   C796    1.406   .     A
C781   C787    1.392   .     A
C781   I831    2.141   .     S
C782   C798    1.406   .     A
C782   I832    2.141   .     S
C782   C793    1.392   .     A
C783   I833    2.141   .     S
C783   C797    1.406   .     A
C783   C794    1.392   .     A
C784   C797    1.410   .     A
C784   C790    1.392   .     A
C784   I834    2.129   .     S
C785   C798    1.410   .     A
C785   I835    2.129   .     S
C785   C792    1.392   .     A
C786   I836    2.129   .     S
C786   C800    1.410   .     A
C787   C799    1.410   .     A
C787   I822    2.129   .     S
C788   I823    2.141   .     S
C788   C799    1.406   .     A
C789   C800    1.406   .     A
C789   I824    2.141   .     S
C790   I825    2.141   .     S
C790   C803    1.406   .     A
C791   C796    1.472   .     S
C791   O863    1.307   .     A
C791   O860    1.303   .     A
C792   I826    2.141   .     S
C792   C801    1.406   .     A
C793   C801    1.410   .     A
C793   I827    2.129   .     S
C794   C803    1.410   .     A
C794   I828    2.129   .     S
C795   C802    1.472   .     S
C799   C815    1.472   .     S
C800   C814    1.472   .     S
C801   C813    1.472   .     S
C802   O862    1.307   .     A
C802   O861    1.303   .     A
C803   C812    1.472   .     S
C804   N844    1.158   .     T
C804   C816    1.445   .     S
C805   N845    1.158   .     T
C806   N846    1.158   .     T
C807   N847    1.158   .     S
C808   N848    1.158   .     T
C809   N838    1.158   .     T
C810   N839    1.158   .     T
C811   N840    1.158   .     T
C812   O864    1.307   .     A
C812   O852    1.303   .     A
C813   O850    1.307   .     A
C813   O851    1.303   .     A
C814   O853    1.303   .     A
C814   O856    1.307   .     A
C815   O854    1.303   .     A
C815   O855    1.307   .     A
C816   N841    1.371   .     S
Cu817  O954    1.975   1_455 S
Cu817  O959    1.965   1_455 S
Cu817  Cu818   2.703   .     S
Cu817  N837    2.031   .     S
Cu817  O849    1.965   .     S
Cu817  O861    1.975   .     S
Cu818  O862    1.965   .     S
Cu818  O859    1.975   .     S
Cu818  N841    2.031   .     S
Cu818  O953    1.965   1_455 S
Cu818  O956    1.975   1_455 S
Cu819  N842    2.031   .     S
Cu819  O854    1.975   .     S
Cu819  Cu820   2.703   .     S
Cu819  O851    1.975   .     S
Cu819  O1048   1.965   1_545 S
Cu819  O1056   1.965   1_545 S
Cu820  N843    2.031   .     S
Cu820  O850    1.965   .     S
Cu820  O855    1.965   .     S
Cu820  O1044   1.975   1_545 S
Cu820  O1045   1.975   1_545 S
N842   C968    1.374   1_545 S
N843   C965    1.371   1_545 S
O852   Cu1012  1.975   .     S
O853   Cu1012  1.975   .     S
O856   Cu1011  1.965   .     S
O857   Cu914   1.965   .     S
O858   Cu913   1.975   .     S
O860   Cu914   1.975   .     S
O863   Cu913   1.965   .     S
O864   Cu1011  1.965   .     S
C865   C894    1.472   .     S
C865   O945    1.307   .     A
C865   O955    1.303   .     A
C866   C901    1.445   .     S
C866   C99     1.428   1_556 S
C866   N933    1.371   .     S
C867   C902    1.444   .     S
C867   N937    1.374   .     A
C868   N933    1.374   .     A
C868   C903    1.444   .     S
C868   C144    1.428   1_556 S
C869   C904    1.445   .     S
C869   N1131   1.371   .     S
C870   C905    1.445   .     S
C870   N938    1.371   .     A
C870   C103    1.428   1_556 S
C871   C906    1.444   .     S
C871   N939    1.374   .     A
C872   C907    1.444   .     S
C872   C101    1.428   1_556 S
C872   N1130   1.374   .     S
C873   C884    1.392   .     A
C873   I917    2.129   .     S
C873   C892    1.410   .     A
C874   C891    1.410   .     A
C874   C885    1.392   .     A
C874   I925    2.129   .     S
C875   C882    1.392   .     A
C875   I926    2.141   .     S
C875   C891    1.406   .     A
C876   C893    1.472   .     S
C876   O954    1.303   .     A
C876   O953    1.307   .     A
C877   C892    1.406   .     A
C877   C883    1.392   .     A
C877   I927    2.141   .     S
C878   C894    1.406   .     A
C878   I928    2.141   .     S
C878   C889    1.392   .     A
C879   I929    2.141   .     S
C879   C893    1.406   .     A
C879   C890    1.392   .     A
C880   C893    1.410   .     A
C880   C886    1.392   .     A
C880   I930    2.129   .     S
C881   C894    1.410   .     A
C881   I931    2.129   .     S
C881   C888    1.392   .     A
C882   I932    2.129   .     S
C882   C896    1.410   .     A
C883   C895    1.410   .     A
C883   I918    2.129   .     S
C884   I919    2.141   .     S
C884   C895    1.406   .     A
C885   C896    1.406   .     A
C885   I920    2.141   .     S
C886   I921    2.141   .     S
C886   C899    1.406   .     A
C887   C892    1.472   .     S
C887   O959    1.307   .     A
C887   O956    1.303   .     A
C888   I922    2.141   .     S
C888   C897    1.406   .     A
C889   C897    1.410   .     A
C889   I923    2.129   .     S
C890   C899    1.410   .     A
C890   I924    2.129   .     S
C891   C898    1.472   .     S
C895   C911    1.472   .     S
C896   C910    1.472   .     S
C897   C909    1.472   .     S
C898   O958    1.307   .     A
C898   O957    1.303   .     A
C899   C908    1.472   .     S
C900   N940    1.158   .     T
C900   C912    1.445   .     S
C901   N941    1.158   .     T
C902   N942    1.158   .     T
C903   N943    1.158   .     S
C904   N944    1.158   .     T
C905   N934    1.158   .     T
C906   N935    1.158   .     T
C907   N936    1.158   .     T
C908   O960    1.307   .     A
C908   O948    1.303   .     A
C909   O946    1.307   .     A
C909   O947    1.303   .     A
C910   O949    1.303   .     A
C910   O952    1.307   .     A
C911   O950    1.303   .     A
C911   O951    1.307   .     A
C912   N937    1.371   .     S
Cu913  Cu914   2.703   .     S
Cu913  N933    2.031   .     S
Cu913  O945    1.965   .     S
Cu913  O957    1.975   .     S
Cu914  O958    1.965   .     S
Cu914  O955    1.975   .     S
Cu914  N937    2.031   .     S
Cu915  N938    2.031   .     S
Cu915  O950    1.975   .     S
Cu915  Cu916   2.703   .     S
Cu915  O947    1.975   .     S
Cu915  O1144   1.965   1_545 S
Cu915  O1152   1.965   1_545 S
Cu916  N939    2.031   .     S
Cu916  O946    1.965   .     S
Cu916  O951    1.965   .     S
Cu916  O1140   1.975   1_545 S
Cu916  O1141   1.975   1_545 S
N938   C1064   1.374   1_545 S
N939   C1061   1.371   1_545 S
O948   Cu1108  1.975   .     S
O949   Cu1108  1.975   .     S
O952   Cu1107  1.965   .     S
O953   Cu818   1.965   1_655 S
O954   Cu817   1.975   1_655 S
O956   Cu818   1.975   1_655 S
O959   Cu817   1.965   1_655 S
O960   Cu1107  1.965   .     S
C961   C990    1.472   .     S
C961   O1041   1.307   .     A
C961   O1051   1.303   .     A
C962   C997    1.445   .     S
C962   C195    1.428   1_556 S
C962   N1029   1.371   .     S
C963   C998    1.444   .     S
C963   N1033   1.374   .     A
C964   N1029   1.374   .     A
C964   C999    1.444   .     S
C964   C240    1.428   1_556 S
C965   C1000   1.445   .     S
C965   N843    1.371   1_565 S
C966   C1001   1.445   .     S
C966   N1034   1.371   .     A
C966   C199    1.428   1_556 S
C967   C1002   1.444   .     S
C967   N1035   1.374   .     A
C968   C1003   1.444   .     S
C968   C197    1.428   1_556 S
C968   N842    1.374   1_565 S
C969   C980    1.392   .     A
C969   I1013   2.129   .     S
C969   C988    1.410   .     A
C970   C987    1.410   .     A
C970   C981    1.392   .     A
C970   I1021   2.129   .     S
C971   C978    1.392   .     A
C971   I1022   2.141   .     S
C971   C987    1.406   .     A
C972   C989    1.472   .     S
C972   O1050   1.303   .     A
C972   O1049   1.307   .     A
C973   C988    1.406   .     A
C973   C979    1.392   .     A
C973   I1023   2.141   .     S
C974   C990    1.406   .     A
C974   I1024   2.141   .     S
C974   C985    1.392   .     A
C975   I1025   2.141   .     S
C975   C989    1.406   .     A
C975   C986    1.392   .     A
C976   C989    1.410   .     A
C976   C982    1.392   .     A
C976   I1026   2.129   .     S
C977   C990    1.410   .     A
C977   I1027   2.129   .     S
C977   C984    1.392   .     A
C978   I1028   2.129   .     S
C978   C992    1.410   .     A
C979   C991    1.410   .     A
C979   I1014   2.129   .     S
C980   I1015   2.141   .     S
C980   C991    1.406   .     A
C981   C992    1.406   .     A
C981   I1016   2.141   .     S
C982   I1017   2.141   .     S
C982   C995    1.406   .     A
C983   C988    1.472   .     S
C983   O1055   1.307   .     A
C983   O1052   1.303   .     A
C984   I1018   2.141   .     S
C984   C993    1.406   .     A
C985   C993    1.410   .     A
C985   I1019   2.129   .     S
C986   C995    1.410   .     A
C986   I1020   2.129   .     S
C987   C994    1.472   .     S
C991   C1007   1.472   .     S
C992   C1006   1.472   .     S
C993   C1005   1.472   .     S
C994   O1054   1.307   .     A
C994   O1053   1.303   .     A
C995   C1004   1.472   .     S
C996   N1036   1.158   .     T
C996   C1008   1.445   .     S
C997   N1037   1.158   .     T
C998   N1038   1.158   .     T
C999   N1039   1.158   .     S
C1000  N1040   1.158   .     T
C1001  N1030   1.158   .     T
C1002  N1031   1.158   .     T
C1003  N1032   1.158   .     T
C1004  O1056   1.307   .     A
C1004  O1044   1.303   .     A
C1005  O1042   1.307   .     A
C1005  O1043   1.303   .     A
C1006  O1045   1.303   .     A
C1006  O1048   1.307   .     A
C1007  O1046   1.303   .     A
C1007  O1047   1.307   .     A
C1008  N1033   1.371   .     S
Cu1009 O1146   1.975   1_455 S
Cu1009 O1151   1.965   1_455 S
Cu1009 Cu1010  2.703   .     S
Cu1009 N1029   2.031   .     S
Cu1009 O1041   1.965   .     S
Cu1009 O1053   1.975   .     S
Cu1010 O1054   1.965   .     S
Cu1010 O1051   1.975   .     S
Cu1010 N1033   2.031   .     S
Cu1010 O1145   1.965   1_455 S
Cu1010 O1148   1.975   1_455 S
Cu1011 N1034   2.031   .     S
Cu1011 O1046   1.975   .     S
Cu1011 Cu1012  2.703   .     S
Cu1011 O1043   1.975   .     S
Cu1012 N1035   2.031   .     S
Cu1012 O1042   1.965   .     S
Cu1012 O1047   1.965   .     S
O1044  Cu820   1.975   1_565 S
O1045  Cu820   1.975   1_565 S
O1048  Cu819   1.965   1_565 S
O1049  Cu1106  1.965   .     S
O1050  Cu1105  1.975   .     S
O1052  Cu1106  1.975   .     S
O1055  Cu1105  1.965   .     S
O1056  Cu819   1.965   1_565 S
C1057  C1086   1.472   .     S
C1057  O1137   1.307   .     A
C1057  O1147   1.303   .     A
C1058  C1093   1.445   .     S
C1058  C291    1.428   1_556 S
C1058  N1125   1.371   .     S
C1059  C1094   1.444   .     S
C1059  N1129   1.374   .     A
C1060  N1125   1.374   .     A
C1060  C1095   1.444   .     S
C1060  C336    1.428   1_556 S
C1061  C1096   1.445   .     S
C1061  N939    1.371   1_565 S
C1062  C1097   1.445   .     S
C1062  N1130   1.371   .     A
C1062  C295    1.428   1_556 S
C1063  C1098   1.444   .     S
C1063  N1131   1.374   .     A
C1064  C1099   1.444   .     S
C1064  C293    1.428   1_556 S
C1064  N938    1.374   1_565 S
C1065  C1076   1.392   .     A
C1065  I1109   2.129   .     S
C1065  C1084   1.410   .     A
C1066  C1083   1.410   .     A
C1066  C1077   1.392   .     A
C1066  I1117   2.129   .     S
C1067  C1074   1.392   .     A
C1067  I1118   2.141   .     S
C1067  C1083   1.406   .     A
C1068  C1085   1.472   .     S
C1068  O1146   1.303   .     A
C1068  O1145   1.307   .     A
C1069  C1084   1.406   .     A
C1069  C1075   1.392   .     A
C1069  I1119   2.141   .     S
C1070  C1086   1.406   .     A
C1070  I1120   2.141   .     S
C1070  C1081   1.392   .     A
C1071  I1121   2.141   .     S
C1071  C1085   1.406   .     A
C1071  C1082   1.392   .     A
C1072  C1085   1.410   .     A
C1072  C1078   1.392   .     A
C1072  I1122   2.129   .     S
C1073  C1086   1.410   .     A
C1073  I1123   2.129   .     S
C1073  C1080   1.392   .     A
C1074  I1124   2.129   .     S
C1074  C1088   1.410   .     A
C1075  C1087   1.410   .     A
C1075  I1110   2.129   .     S
C1076  I1111   2.141   .     S
C1076  C1087   1.406   .     A
C1077  C1088   1.406   .     A
C1077  I1112   2.141   .     S
C1078  I1113   2.141   .     S
C1078  C1091   1.406   .     A
C1079  C1084   1.472   .     S
C1079  O1151   1.307   .     A
C1079  O1148   1.303   .     A
C1080  I1114   2.141   .     S
C1080  C1089   1.406   .     A
C1081  C1089   1.410   .     A
C1081  I1115   2.129   .     S
C1082  C1091   1.410   .     A
C1082  I1116   2.129   .     S
C1083  C1090   1.472   .     S
C1087  C1103   1.472   .     S
C1088  C1102   1.472   .     S
C1089  C1101   1.472   .     S
C1090  O1150   1.307   .     A
C1090  O1149   1.303   .     A
C1091  C1100   1.472   .     S
C1092  N1132   1.158   .     T
C1092  C1104   1.445   .     S
C1093  N1133   1.158   .     T
C1094  N1134   1.158   .     T
C1095  N1135   1.158   .     S
C1096  N1136   1.158   .     T
C1097  N1126   1.158   .     T
C1098  N1127   1.158   .     T
C1099  N1128   1.158   .     T
C1100  O1152   1.307   .     A
C1100  O1140   1.303   .     A
C1101  O1138   1.307   .     A
C1101  O1139   1.303   .     A
C1102  O1141   1.303   .     A
C1102  O1144   1.307   .     A
C1103  O1142   1.303   .     A
C1103  O1143   1.307   .     A
C1104  N1129   1.371   .     S
Cu1105 Cu1106  2.703   .     S
Cu1105 N1125   2.031   .     S
Cu1105 O1137   1.965   .     S
Cu1105 O1149   1.975   .     S
Cu1106 O1150   1.965   .     S
Cu1106 O1147   1.975   .     S
Cu1106 N1129   2.031   .     S
Cu1107 N1130   2.031   .     S
Cu1107 O1142   1.975   .     S
Cu1107 Cu1108  2.703   .     S
Cu1107 O1139   1.975   .     S
Cu1108 N1131   2.031   .     S
Cu1108 O1138   1.965   .     S
Cu1108 O1143   1.965   .     S
O1140  Cu916   1.975   1_565 S
O1141  Cu916   1.975   1_565 S
O1144  Cu915   1.965   1_565 S
O1145  Cu1010  1.965   1_655 S
O1146  Cu1009  1.975   1_655 S
O1148  Cu1010  1.975   1_655 S
O1151  Cu1009  1.965   1_655 S
O1152  Cu915   1.965   1_565 S
