data_str_m2_o1_o5_pcu_sym.33
_audit_creation_date              2020-01-03
_audit_creation_method            'Materials Studio'
_symmetry_space_group_name_H-M    'P1'
_symmetry_Int_Tables_number       1
_symmetry_cell_setting            triclinic
loop_
_symmetry_equiv_pos_as_xyz
  x,y,z
_cell_length_a                    32.3638
_cell_length_b                    28.5858
_cell_length_c                    27.2166
_cell_angle_alpha                 89.8514
_cell_angle_beta                  90.2978
_cell_angle_gamma                 89.1647
loop_
_atom_site_label
_atom_site_type_symbol
_atom_site_fract_x
_atom_site_fract_y
_atom_site_fract_z
_atom_site_U_iso_or_equiv
_atom_site_adp_type
_atom_site_occupancy
C1     C     0.08746   0.16711   0.16688   0.00000  Uiso   1.00
C2     C     0.02116   0.19230   0.20319   0.00000  Uiso   1.00
C3     C     0.29056   0.16496   0.16745   0.00000  Uiso   1.00
C4     C     0.04277   0.16837   0.16588   0.00000  Uiso   1.00
C5     C     0.13990   0.02530   0.13738   0.00000  Uiso   1.00
C6     C     0.19343   0.30804   0.19596   0.00000  Uiso   1.00
C7     C     0.19344   0.02429   0.19594   0.00000  Uiso   1.00
C8     C     0.13989   0.30905   0.13739   0.00000  Uiso   1.00
C9     C     0.05563   0.15668   0.05064   0.00000  Uiso   1.00
C10    C     0.27770   0.17665   0.28270   0.00000  Uiso   1.00
C11    C     0.28423   0.06735   0.10230   0.00000  Uiso   1.00
C12    C     0.24587   0.16622   0.16645   0.00000  Uiso   1.00
C13    C     0.04909   0.26601   0.23101   0.00000  Uiso   1.00
C14    C     0.16680   0.16670   0.07354   0.00000  Uiso   1.00
C15    C     0.16654   0.16663   0.25979   0.00000  Uiso   1.00
C16    C     0.16673   0.16672   0.02185   0.00000  Uiso   1.00
C17    C     0.16660   0.16662   0.31149   0.00000  Uiso   1.00
C18    C     0.02204   0.14402   0.12853   0.00000  Uiso   1.00
C19    C     0.31129   0.18932   0.20480   0.00000  Uiso   1.00
C20    C     0.31217   0.14103   0.13015   0.00000  Uiso   1.00
Cu21   Cu    0.16667   0.21355   0.16667   0.00000  Uiso   1.00
Cu22   Cu    0.16667   0.11978   0.16667   0.00000  Uiso   1.00
H23    H     0.11845   0.04436   0.11387   0.00000  Uiso   1.00
H24    H     0.30611   0.16239   0.30065   0.00000  Uiso   1.00
H25    H     0.25961   0.14730   0.26741   0.00000  Uiso   1.00
H26    H     0.25859   0.19472   0.31083   0.00000  Uiso   1.00
H27    H     0.29965   0.12342   0.05759   0.00000  Uiso   1.00
H28    H     0.31369   0.04755   0.09771   0.00000  Uiso   1.00
H29    H     0.26118   0.05350   0.07594   0.00000  Uiso   1.00
H30    H     0.27285   0.06127   0.14014   0.00000  Uiso   1.00
H31    H     0.03369   0.20994   0.27575   0.00000  Uiso   1.00
H32    H     0.01964   0.28580   0.23563   0.00000  Uiso   1.00
H33    H     0.06046   0.27208   0.19315   0.00000  Uiso   1.00
H34    H     0.21488   0.28897   0.21946   0.00000  Uiso   1.00
H35    H     0.07217   0.27986   0.25735   0.00000  Uiso   1.00
H36    H     0.21491   0.04255   0.21940   0.00000  Uiso   1.00
H37    H     0.11843   0.29078   0.11394   0.00000  Uiso   1.00
H38    H     0.03372   0.09306   0.07526   0.00000  Uiso   1.00
H39    H     0.02723   0.17093   0.03268   0.00000  Uiso   1.00
H40    H     0.07476   0.13861   0.02253   0.00000  Uiso   1.00
H41    H     0.07372   0.18603   0.06593   0.00000  Uiso   1.00
H42    H     0.29961   0.24028   0.25808   0.00000  Uiso   1.00
N43    N     0.16667   0.28402   0.16667   0.00000  Uiso   1.00
N44    N     0.16667   0.04931   0.16667   0.00000  Uiso   1.00
N45    N     0.04498   0.12389   0.08899   0.00000  Uiso   1.00
N46    N     0.28835   0.20945   0.24435   0.00000  Uiso   1.00
N47    N     0.28993   0.11677   0.09290   0.00000  Uiso   1.00
N48    N     0.04340   0.21658   0.24042   0.00000  Uiso   1.00
O49    O     0.10655   0.20625   0.16666   0.00000  Uiso   1.00
O50    O     0.22679   0.12709   0.16667   0.00000  Uiso   1.00
O51    O     0.22679   0.20625   0.16667   0.00000  Uiso   1.00
O52    O     0.10655   0.12709   0.16666   0.00000  Uiso   1.00
O53    O     0.16667   0.20625   0.09613   0.00000  Uiso   1.00
O54    O     0.16667   0.12708   0.23720   0.00000  Uiso   1.00
O55    O     0.16667   0.20625   0.23720   0.00000  Uiso   1.00
O56    O     0.16667   0.12708   0.09613   0.00000  Uiso   1.00
C57    C     0.42079   0.16711   0.16688   0.00000  Uiso   1.00
C58    C     0.35449   0.19230   0.20319   0.00000  Uiso   1.00
C59    C     0.62389   0.16496   0.16745   0.00000  Uiso   1.00
C60    C     0.37611   0.16837   0.16588   0.00000  Uiso   1.00
C61    C     0.47323   0.02530   0.13738   0.00000  Uiso   1.00
C62    C     0.52677   0.30804   0.19596   0.00000  Uiso   1.00
C63    C     0.52677   0.02429   0.19594   0.00000  Uiso   1.00
C64    C     0.47323   0.30905   0.13739   0.00000  Uiso   1.00
C65    C     0.38897   0.15668   0.05064   0.00000  Uiso   1.00
C66    C     0.61104   0.17665   0.28270   0.00000  Uiso   1.00
C67    C     0.61757   0.06735   0.10230   0.00000  Uiso   1.00
C68    C     0.57921   0.16622   0.16645   0.00000  Uiso   1.00
C69    C     0.38243   0.26601   0.23101   0.00000  Uiso   1.00
C70    C     0.50013   0.16670   0.07354   0.00000  Uiso   1.00
C71    C     0.49987   0.16663   0.25979   0.00000  Uiso   1.00
C72    C     0.50006   0.16672   0.02185   0.00000  Uiso   1.00
C73    C     0.49994   0.16662   0.31149   0.00000  Uiso   1.00
C74    C     0.35537   0.14402   0.12853   0.00000  Uiso   1.00
C75    C     0.64463   0.18932   0.20480   0.00000  Uiso   1.00
C76    C     0.64551   0.14103   0.13015   0.00000  Uiso   1.00
Cu77   Cu    0.50000   0.21355   0.16667   0.00000  Uiso   1.00
Cu78   Cu    0.50000   0.11978   0.16667   0.00000  Uiso   1.00
H79    H     0.45179   0.04436   0.11387   0.00000  Uiso   1.00
H80    H     0.63944   0.16239   0.30065   0.00000  Uiso   1.00
H81    H     0.59295   0.14730   0.26741   0.00000  Uiso   1.00
H82    H     0.59192   0.19472   0.31083   0.00000  Uiso   1.00
H83    H     0.63298   0.12342   0.05759   0.00000  Uiso   1.00
H84    H     0.64702   0.04755   0.09771   0.00000  Uiso   1.00
H85    H     0.59451   0.05350   0.07594   0.00000  Uiso   1.00
H86    H     0.60618   0.06127   0.14014   0.00000  Uiso   1.00
H87    H     0.36702   0.20994   0.27575   0.00000  Uiso   1.00
H88    H     0.35298   0.28580   0.23563   0.00000  Uiso   1.00
H89    H     0.39379   0.27208   0.19315   0.00000  Uiso   1.00
H90    H     0.54821   0.28897   0.21946   0.00000  Uiso   1.00
H91    H     0.40550   0.27986   0.25735   0.00000  Uiso   1.00
H92    H     0.54824   0.04255   0.21940   0.00000  Uiso   1.00
H93    H     0.45176   0.29078   0.11394   0.00000  Uiso   1.00
H94    H     0.36706   0.09306   0.07526   0.00000  Uiso   1.00
H95    H     0.36056   0.17093   0.03268   0.00000  Uiso   1.00
H96    H     0.40809   0.13861   0.02253   0.00000  Uiso   1.00
H97    H     0.40705   0.18603   0.06593   0.00000  Uiso   1.00
H98    H     0.63294   0.24028   0.25808   0.00000  Uiso   1.00
N99    N     0.50000   0.28402   0.16667   0.00000  Uiso   1.00
N100   N     0.50000   0.04931   0.16667   0.00000  Uiso   1.00
N101   N     0.37832   0.12389   0.08899   0.00000  Uiso   1.00
N102   N     0.62168   0.20945   0.24435   0.00000  Uiso   1.00
N103   N     0.62327   0.11677   0.09290   0.00000  Uiso   1.00
N104   N     0.37673   0.21658   0.24042   0.00000  Uiso   1.00
O105   O     0.43988   0.20625   0.16666   0.00000  Uiso   1.00
O106   O     0.56012   0.12709   0.16667   0.00000  Uiso   1.00
O107   O     0.56012   0.20625   0.16667   0.00000  Uiso   1.00
O108   O     0.43988   0.12709   0.16666   0.00000  Uiso   1.00
O109   O     0.50000   0.20625   0.09613   0.00000  Uiso   1.00
O110   O     0.50000   0.12708   0.23720   0.00000  Uiso   1.00
O111   O     0.50000   0.20625   0.23720   0.00000  Uiso   1.00
O112   O     0.50000   0.12708   0.09613   0.00000  Uiso   1.00
C113   C     0.75413   0.16711   0.16688   0.00000  Uiso   1.00
C114   C     0.68783   0.19230   0.20319   0.00000  Uiso   1.00
C115   C     0.95723   0.16496   0.16745   0.00000  Uiso   1.00
C116   C     0.70944   0.16837   0.16588   0.00000  Uiso   1.00
C117   C     0.80657   0.02530   0.13738   0.00000  Uiso   1.00
C118   C     0.86010   0.30804   0.19596   0.00000  Uiso   1.00
C119   C     0.86011   0.02429   0.19594   0.00000  Uiso   1.00
C120   C     0.80656   0.30905   0.13739   0.00000  Uiso   1.00
C121   C     0.72230   0.15668   0.05064   0.00000  Uiso   1.00
C122   C     0.94437   0.17665   0.28270   0.00000  Uiso   1.00
C123   C     0.95090   0.06735   0.10230   0.00000  Uiso   1.00
C124   C     0.91254   0.16622   0.16645   0.00000  Uiso   1.00
C125   C     0.71576   0.26601   0.23101   0.00000  Uiso   1.00
C126   C     0.83346   0.16670   0.07354   0.00000  Uiso   1.00
C127   C     0.83321   0.16663   0.25979   0.00000  Uiso   1.00
C128   C     0.83340   0.16672   0.02185   0.00000  Uiso   1.00
C129   C     0.83327   0.16662   0.31149   0.00000  Uiso   1.00
C130   C     0.68871   0.14402   0.12853   0.00000  Uiso   1.00
C131   C     0.97796   0.18932   0.20480   0.00000  Uiso   1.00
C132   C     0.97884   0.14103   0.13015   0.00000  Uiso   1.00
Cu133  Cu    0.83333   0.21355   0.16667   0.00000  Uiso   1.00
Cu134  Cu    0.83333   0.11978   0.16667   0.00000  Uiso   1.00
H135   H     0.78512   0.04436   0.11387   0.00000  Uiso   1.00
H136   H     0.97278   0.16239   0.30065   0.00000  Uiso   1.00
H137   H     0.92628   0.14730   0.26741   0.00000  Uiso   1.00
H138   H     0.92526   0.19472   0.31083   0.00000  Uiso   1.00
H139   H     0.96632   0.12342   0.05759   0.00000  Uiso   1.00
H140   H     0.98035   0.04755   0.09771   0.00000  Uiso   1.00
H141   H     0.92785   0.05350   0.07594   0.00000  Uiso   1.00
H142   H     0.93951   0.06127   0.14014   0.00000  Uiso   1.00
H143   H     0.70035   0.20994   0.27575   0.00000  Uiso   1.00
H144   H     0.68631   0.28580   0.23563   0.00000  Uiso   1.00
H145   H     0.72713   0.27208   0.19315   0.00000  Uiso   1.00
H146   H     0.88155   0.28897   0.21946   0.00000  Uiso   1.00
H147   H     0.73883   0.27986   0.25735   0.00000  Uiso   1.00
H148   H     0.88157   0.04255   0.21940   0.00000  Uiso   1.00
H149   H     0.78509   0.29078   0.11394   0.00000  Uiso   1.00
H150   H     0.70039   0.09306   0.07526   0.00000  Uiso   1.00
H151   H     0.69390   0.17093   0.03268   0.00000  Uiso   1.00
H152   H     0.74143   0.13861   0.02253   0.00000  Uiso   1.00
H153   H     0.74038   0.18603   0.06593   0.00000  Uiso   1.00
H154   H     0.96628   0.24028   0.25808   0.00000  Uiso   1.00
N155   N     0.83333   0.28402   0.16667   0.00000  Uiso   1.00
N156   N     0.83333   0.04931   0.16667   0.00000  Uiso   1.00
N157   N     0.71165   0.12389   0.08899   0.00000  Uiso   1.00
N158   N     0.95502   0.20945   0.24435   0.00000  Uiso   1.00
N159   N     0.95660   0.11677   0.09290   0.00000  Uiso   1.00
N160   N     0.71007   0.21658   0.24042   0.00000  Uiso   1.00
O161   O     0.77321   0.20625   0.16666   0.00000  Uiso   1.00
O162   O     0.89345   0.12709   0.16667   0.00000  Uiso   1.00
O163   O     0.89345   0.20625   0.16667   0.00000  Uiso   1.00
O164   O     0.77321   0.12709   0.16666   0.00000  Uiso   1.00
O165   O     0.83333   0.20625   0.09613   0.00000  Uiso   1.00
O166   O     0.83333   0.12708   0.23720   0.00000  Uiso   1.00
O167   O     0.83333   0.20625   0.23720   0.00000  Uiso   1.00
O168   O     0.83333   0.12708   0.09613   0.00000  Uiso   1.00
C169   C     0.08746   0.50045   0.16688   0.00000  Uiso   1.00
C170   C     0.02116   0.52564   0.20319   0.00000  Uiso   1.00
C171   C     0.29056   0.49829   0.16745   0.00000  Uiso   1.00
C172   C     0.04277   0.50171   0.16588   0.00000  Uiso   1.00
C173   C     0.13990   0.35863   0.13738   0.00000  Uiso   1.00
C174   C     0.19343   0.64137   0.19596   0.00000  Uiso   1.00
C175   C     0.19344   0.35762   0.19594   0.00000  Uiso   1.00
C176   C     0.13989   0.64238   0.13739   0.00000  Uiso   1.00
C177   C     0.05563   0.49001   0.05064   0.00000  Uiso   1.00
C178   C     0.27770   0.50998   0.28270   0.00000  Uiso   1.00
C179   C     0.28423   0.40068   0.10230   0.00000  Uiso   1.00
C180   C     0.24587   0.49955   0.16645   0.00000  Uiso   1.00
C181   C     0.04909   0.59934   0.23101   0.00000  Uiso   1.00
C182   C     0.16680   0.50003   0.07354   0.00000  Uiso   1.00
C183   C     0.16654   0.49997   0.25979   0.00000  Uiso   1.00
C184   C     0.16673   0.50005   0.02185   0.00000  Uiso   1.00
C185   C     0.16660   0.49995   0.31149   0.00000  Uiso   1.00
C186   C     0.02204   0.47735   0.12853   0.00000  Uiso   1.00
C187   C     0.31129   0.52265   0.20480   0.00000  Uiso   1.00
C188   C     0.31217   0.47437   0.13015   0.00000  Uiso   1.00
Cu189  Cu    0.16667   0.54689   0.16667   0.00000  Uiso   1.00
Cu190  Cu    0.16667   0.45311   0.16667   0.00000  Uiso   1.00
H191   H     0.11845   0.37769   0.11387   0.00000  Uiso   1.00
H192   H     0.30611   0.49572   0.30065   0.00000  Uiso   1.00
H193   H     0.25961   0.48063   0.26741   0.00000  Uiso   1.00
H194   H     0.25859   0.52805   0.31083   0.00000  Uiso   1.00
H195   H     0.29965   0.45675   0.05759   0.00000  Uiso   1.00
H196   H     0.31369   0.38088   0.09771   0.00000  Uiso   1.00
H197   H     0.26118   0.38684   0.07594   0.00000  Uiso   1.00
H198   H     0.27285   0.39460   0.14014   0.00000  Uiso   1.00
H199   H     0.03369   0.54327   0.27575   0.00000  Uiso   1.00
H200   H     0.01964   0.61913   0.23563   0.00000  Uiso   1.00
H201   H     0.06046   0.60542   0.19315   0.00000  Uiso   1.00
H202   H     0.21488   0.62231   0.21946   0.00000  Uiso   1.00
H203   H     0.07217   0.61320   0.25735   0.00000  Uiso   1.00
H204   H     0.21491   0.37589   0.21940   0.00000  Uiso   1.00
H205   H     0.11843   0.62411   0.11394   0.00000  Uiso   1.00
H206   H     0.03372   0.42640   0.07526   0.00000  Uiso   1.00
H207   H     0.02723   0.50426   0.03268   0.00000  Uiso   1.00
H208   H     0.07476   0.47195   0.02253   0.00000  Uiso   1.00
H209   H     0.07372   0.51937   0.06593   0.00000  Uiso   1.00
H210   H     0.29961   0.57361   0.25808   0.00000  Uiso   1.00
N211   N     0.16667   0.61736   0.16667   0.00000  Uiso   1.00
N212   N     0.16667   0.38264   0.16667   0.00000  Uiso   1.00
N213   N     0.04498   0.45722   0.08899   0.00000  Uiso   1.00
N214   N     0.28835   0.54278   0.24435   0.00000  Uiso   1.00
N215   N     0.28993   0.45010   0.09290   0.00000  Uiso   1.00
N216   N     0.04340   0.54991   0.24042   0.00000  Uiso   1.00
O217   O     0.10655   0.53958   0.16666   0.00000  Uiso   1.00
O218   O     0.22679   0.46042   0.16667   0.00000  Uiso   1.00
O219   O     0.22679   0.53958   0.16667   0.00000  Uiso   1.00
O220   O     0.10655   0.46042   0.16666   0.00000  Uiso   1.00
O221   O     0.16667   0.53959   0.09613   0.00000  Uiso   1.00
O222   O     0.16667   0.46041   0.23720   0.00000  Uiso   1.00
O223   O     0.16667   0.53959   0.23720   0.00000  Uiso   1.00
O224   O     0.16667   0.46041   0.09613   0.00000  Uiso   1.00
C225   C     0.42079   0.50045   0.16688   0.00000  Uiso   1.00
C226   C     0.35449   0.52564   0.20319   0.00000  Uiso   1.00
C227   C     0.62389   0.49829   0.16745   0.00000  Uiso   1.00
C228   C     0.37611   0.50171   0.16588   0.00000  Uiso   1.00
C229   C     0.47323   0.35863   0.13738   0.00000  Uiso   1.00
C230   C     0.52677   0.64137   0.19596   0.00000  Uiso   1.00
C231   C     0.52677   0.35762   0.19594   0.00000  Uiso   1.00
C232   C     0.47323   0.64238   0.13739   0.00000  Uiso   1.00
C233   C     0.38897   0.49001   0.05064   0.00000  Uiso   1.00
C234   C     0.61104   0.50998   0.28270   0.00000  Uiso   1.00
C235   C     0.61757   0.40068   0.10230   0.00000  Uiso   1.00
C236   C     0.57921   0.49955   0.16645   0.00000  Uiso   1.00
C237   C     0.38243   0.59934   0.23101   0.00000  Uiso   1.00
C238   C     0.50013   0.50003   0.07354   0.00000  Uiso   1.00
C239   C     0.49987   0.49997   0.25979   0.00000  Uiso   1.00
C240   C     0.50006   0.50005   0.02185   0.00000  Uiso   1.00
C241   C     0.49994   0.49995   0.31149   0.00000  Uiso   1.00
C242   C     0.35537   0.47735   0.12853   0.00000  Uiso   1.00
C243   C     0.64463   0.52265   0.20480   0.00000  Uiso   1.00
C244   C     0.64551   0.47437   0.13015   0.00000  Uiso   1.00
Cu245  Cu    0.50000   0.54689   0.16667   0.00000  Uiso   1.00
Cu246  Cu    0.50000   0.45311   0.16667   0.00000  Uiso   1.00
H247   H     0.45179   0.37769   0.11387   0.00000  Uiso   1.00
H248   H     0.63944   0.49572   0.30065   0.00000  Uiso   1.00
H249   H     0.59295   0.48063   0.26741   0.00000  Uiso   1.00
H250   H     0.59192   0.52805   0.31083   0.00000  Uiso   1.00
H251   H     0.63298   0.45675   0.05759   0.00000  Uiso   1.00
H252   H     0.64702   0.38088   0.09771   0.00000  Uiso   1.00
H253   H     0.59451   0.38684   0.07594   0.00000  Uiso   1.00
H254   H     0.60618   0.39460   0.14014   0.00000  Uiso   1.00
H255   H     0.36702   0.54327   0.27575   0.00000  Uiso   1.00
H256   H     0.35298   0.61913   0.23563   0.00000  Uiso   1.00
H257   H     0.39379   0.60542   0.19315   0.00000  Uiso   1.00
H258   H     0.54821   0.62231   0.21946   0.00000  Uiso   1.00
H259   H     0.40550   0.61320   0.25735   0.00000  Uiso   1.00
H260   H     0.54824   0.37589   0.21940   0.00000  Uiso   1.00
H261   H     0.45176   0.62411   0.11394   0.00000  Uiso   1.00
H262   H     0.36706   0.42640   0.07526   0.00000  Uiso   1.00
H263   H     0.36056   0.50426   0.03268   0.00000  Uiso   1.00
H264   H     0.40809   0.47195   0.02253   0.00000  Uiso   1.00
H265   H     0.40705   0.51937   0.06593   0.00000  Uiso   1.00
H266   H     0.63294   0.57361   0.25808   0.00000  Uiso   1.00
N267   N     0.50000   0.61736   0.16667   0.00000  Uiso   1.00
N268   N     0.50000   0.38264   0.16667   0.00000  Uiso   1.00
N269   N     0.37832   0.45722   0.08899   0.00000  Uiso   1.00
N270   N     0.62168   0.54278   0.24435   0.00000  Uiso   1.00
N271   N     0.62327   0.45010   0.09290   0.00000  Uiso   1.00
N272   N     0.37673   0.54991   0.24042   0.00000  Uiso   1.00
O273   O     0.43988   0.53958   0.16666   0.00000  Uiso   1.00
O274   O     0.56012   0.46042   0.16667   0.00000  Uiso   1.00
O275   O     0.56012   0.53958   0.16667   0.00000  Uiso   1.00
O276   O     0.43988   0.46042   0.16666   0.00000  Uiso   1.00
O277   O     0.50000   0.53959   0.09613   0.00000  Uiso   1.00
O278   O     0.50000   0.46041   0.23720   0.00000  Uiso   1.00
O279   O     0.50000   0.53959   0.23720   0.00000  Uiso   1.00
O280   O     0.50000   0.46041   0.09613   0.00000  Uiso   1.00
C281   C     0.75413   0.50045   0.16688   0.00000  Uiso   1.00
C282   C     0.68783   0.52564   0.20319   0.00000  Uiso   1.00
C283   C     0.95723   0.49829   0.16745   0.00000  Uiso   1.00
C284   C     0.70944   0.50171   0.16588   0.00000  Uiso   1.00
C285   C     0.80657   0.35863   0.13738   0.00000  Uiso   1.00
C286   C     0.86010   0.64137   0.19596   0.00000  Uiso   1.00
C287   C     0.86011   0.35762   0.19594   0.00000  Uiso   1.00
C288   C     0.80656   0.64238   0.13739   0.00000  Uiso   1.00
C289   C     0.72230   0.49001   0.05064   0.00000  Uiso   1.00
C290   C     0.94437   0.50998   0.28270   0.00000  Uiso   1.00
C291   C     0.95090   0.40068   0.10230   0.00000  Uiso   1.00
C292   C     0.91254   0.49955   0.16645   0.00000  Uiso   1.00
C293   C     0.71576   0.59934   0.23101   0.00000  Uiso   1.00
C294   C     0.83346   0.50003   0.07354   0.00000  Uiso   1.00
C295   C     0.83321   0.49997   0.25979   0.00000  Uiso   1.00
C296   C     0.83340   0.50005   0.02185   0.00000  Uiso   1.00
C297   C     0.83327   0.49995   0.31149   0.00000  Uiso   1.00
C298   C     0.68871   0.47735   0.12853   0.00000  Uiso   1.00
C299   C     0.97796   0.52265   0.20480   0.00000  Uiso   1.00
C300   C     0.97884   0.47437   0.13015   0.00000  Uiso   1.00
Cu301  Cu    0.83333   0.54689   0.16667   0.00000  Uiso   1.00
Cu302  Cu    0.83333   0.45311   0.16667   0.00000  Uiso   1.00
H303   H     0.78512   0.37769   0.11387   0.00000  Uiso   1.00
H304   H     0.97278   0.49572   0.30065   0.00000  Uiso   1.00
H305   H     0.92628   0.48063   0.26741   0.00000  Uiso   1.00
H306   H     0.92526   0.52805   0.31083   0.00000  Uiso   1.00
H307   H     0.96632   0.45675   0.05759   0.00000  Uiso   1.00
H308   H     0.98035   0.38088   0.09771   0.00000  Uiso   1.00
H309   H     0.92785   0.38684   0.07594   0.00000  Uiso   1.00
H310   H     0.93951   0.39460   0.14014   0.00000  Uiso   1.00
H311   H     0.70035   0.54327   0.27575   0.00000  Uiso   1.00
H312   H     0.68631   0.61913   0.23563   0.00000  Uiso   1.00
H313   H     0.72713   0.60542   0.19315   0.00000  Uiso   1.00
H314   H     0.88155   0.62231   0.21946   0.00000  Uiso   1.00
H315   H     0.73883   0.61320   0.25735   0.00000  Uiso   1.00
H316   H     0.88157   0.37589   0.21940   0.00000  Uiso   1.00
H317   H     0.78509   0.62411   0.11394   0.00000  Uiso   1.00
H318   H     0.70039   0.42640   0.07526   0.00000  Uiso   1.00
H319   H     0.69390   0.50426   0.03268   0.00000  Uiso   1.00
H320   H     0.74143   0.47195   0.02253   0.00000  Uiso   1.00
H321   H     0.74038   0.51937   0.06593   0.00000  Uiso   1.00
H322   H     0.96628   0.57361   0.25808   0.00000  Uiso   1.00
N323   N     0.83333   0.61736   0.16667   0.00000  Uiso   1.00
N324   N     0.83333   0.38264   0.16667   0.00000  Uiso   1.00
N325   N     0.71165   0.45722   0.08899   0.00000  Uiso   1.00
N326   N     0.95502   0.54278   0.24435   0.00000  Uiso   1.00
N327   N     0.95660   0.45010   0.09290   0.00000  Uiso   1.00
N328   N     0.71007   0.54991   0.24042   0.00000  Uiso   1.00
O329   O     0.77321   0.53958   0.16666   0.00000  Uiso   1.00
O330   O     0.89345   0.46042   0.16667   0.00000  Uiso   1.00
O331   O     0.89345   0.53958   0.16667   0.00000  Uiso   1.00
O332   O     0.77321   0.46042   0.16666   0.00000  Uiso   1.00
O333   O     0.83333   0.53959   0.09613   0.00000  Uiso   1.00
O334   O     0.83333   0.46041   0.23720   0.00000  Uiso   1.00
O335   O     0.83333   0.53959   0.23720   0.00000  Uiso   1.00
O336   O     0.83333   0.46041   0.09613   0.00000  Uiso   1.00
C337   C     0.08746   0.83378   0.16688   0.00000  Uiso   1.00
C338   C     0.02116   0.85897   0.20319   0.00000  Uiso   1.00
C339   C     0.29056   0.83163   0.16745   0.00000  Uiso   1.00
C340   C     0.04277   0.83504   0.16588   0.00000  Uiso   1.00
C341   C     0.13990   0.69196   0.13738   0.00000  Uiso   1.00
C342   C     0.19343   0.97470   0.19596   0.00000  Uiso   1.00
C343   C     0.19344   0.69096   0.19594   0.00000  Uiso   1.00
C344   C     0.13989   0.97571   0.13739   0.00000  Uiso   1.00
C345   C     0.05563   0.82335   0.05064   0.00000  Uiso   1.00
C346   C     0.27770   0.84332   0.28270   0.00000  Uiso   1.00
C347   C     0.28423   0.73401   0.10230   0.00000  Uiso   1.00
C348   C     0.24587   0.83289   0.16645   0.00000  Uiso   1.00
C349   C     0.04909   0.93267   0.23101   0.00000  Uiso   1.00
C350   C     0.16680   0.83337   0.07354   0.00000  Uiso   1.00
C351   C     0.16654   0.83330   0.25979   0.00000  Uiso   1.00
C352   C     0.16673   0.83338   0.02185   0.00000  Uiso   1.00
C353   C     0.16660   0.83328   0.31149   0.00000  Uiso   1.00
C354   C     0.02204   0.81069   0.12853   0.00000  Uiso   1.00
C355   C     0.31129   0.85598   0.20480   0.00000  Uiso   1.00
C356   C     0.31217   0.80770   0.13015   0.00000  Uiso   1.00
Cu357  Cu    0.16667   0.88022   0.16667   0.00000  Uiso   1.00
Cu358  Cu    0.16667   0.78645   0.16667   0.00000  Uiso   1.00
H359   H     0.11845   0.71103   0.11387   0.00000  Uiso   1.00
H360   H     0.30611   0.82905   0.30065   0.00000  Uiso   1.00
H361   H     0.25961   0.81397   0.26741   0.00000  Uiso   1.00
H362   H     0.25859   0.86139   0.31083   0.00000  Uiso   1.00
H363   H     0.29965   0.79008   0.05759   0.00000  Uiso   1.00
H364   H     0.31369   0.71422   0.09771   0.00000  Uiso   1.00
H365   H     0.26118   0.72017   0.07594   0.00000  Uiso   1.00
H366   H     0.27285   0.72794   0.14014   0.00000  Uiso   1.00
H367   H     0.03369   0.87661   0.27575   0.00000  Uiso   1.00
H368   H     0.01964   0.95246   0.23563   0.00000  Uiso   1.00
H369   H     0.06046   0.93875   0.19315   0.00000  Uiso   1.00
H370   H     0.21488   0.95564   0.21946   0.00000  Uiso   1.00
H371   H     0.07217   0.94653   0.25735   0.00000  Uiso   1.00
H372   H     0.21491   0.70922   0.21940   0.00000  Uiso   1.00
H373   H     0.11843   0.95745   0.11394   0.00000  Uiso   1.00
H374   H     0.03372   0.75973   0.07526   0.00000  Uiso   1.00
H375   H     0.02723   0.83759   0.03268   0.00000  Uiso   1.00
H376   H     0.07476   0.80528   0.02253   0.00000  Uiso   1.00
H377   H     0.07372   0.85270   0.06593   0.00000  Uiso   1.00
H378   H     0.29961   0.90694   0.25808   0.00000  Uiso   1.00
N379   N     0.16667   0.95069   0.16667   0.00000  Uiso   1.00
N380   N     0.16667   0.71598   0.16667   0.00000  Uiso   1.00
N381   N     0.04498   0.79055   0.08899   0.00000  Uiso   1.00
N382   N     0.28835   0.87611   0.24435   0.00000  Uiso   1.00
N383   N     0.28993   0.78344   0.09290   0.00000  Uiso   1.00
N384   N     0.04340   0.88324   0.24042   0.00000  Uiso   1.00
O385   O     0.10655   0.87291   0.16666   0.00000  Uiso   1.00
O386   O     0.22679   0.79375   0.16667   0.00000  Uiso   1.00
O387   O     0.22679   0.87291   0.16667   0.00000  Uiso   1.00
O388   O     0.10655   0.79375   0.16666   0.00000  Uiso   1.00
O389   O     0.16667   0.87292   0.09613   0.00000  Uiso   1.00
O390   O     0.16667   0.79375   0.23720   0.00000  Uiso   1.00
O391   O     0.16667   0.87292   0.23720   0.00000  Uiso   1.00
O392   O     0.16667   0.79375   0.09613   0.00000  Uiso   1.00
C393   C     0.42079   0.83378   0.16688   0.00000  Uiso   1.00
C394   C     0.35449   0.85897   0.20319   0.00000  Uiso   1.00
C395   C     0.62389   0.83163   0.16745   0.00000  Uiso   1.00
C396   C     0.37611   0.83504   0.16588   0.00000  Uiso   1.00
C397   C     0.47323   0.69196   0.13738   0.00000  Uiso   1.00
C398   C     0.52677   0.97470   0.19596   0.00000  Uiso   1.00
C399   C     0.52677   0.69096   0.19594   0.00000  Uiso   1.00
C400   C     0.47323   0.97571   0.13739   0.00000  Uiso   1.00
C401   C     0.38897   0.82335   0.05064   0.00000  Uiso   1.00
C402   C     0.61104   0.84332   0.28270   0.00000  Uiso   1.00
C403   C     0.61757   0.73401   0.10230   0.00000  Uiso   1.00
C404   C     0.57921   0.83289   0.16645   0.00000  Uiso   1.00
C405   C     0.38243   0.93267   0.23101   0.00000  Uiso   1.00
C406   C     0.50013   0.83337   0.07354   0.00000  Uiso   1.00
C407   C     0.49987   0.83330   0.25979   0.00000  Uiso   1.00
C408   C     0.50006   0.83338   0.02185   0.00000  Uiso   1.00
C409   C     0.49994   0.83328   0.31149   0.00000  Uiso   1.00
C410   C     0.35537   0.81069   0.12853   0.00000  Uiso   1.00
C411   C     0.64463   0.85598   0.20480   0.00000  Uiso   1.00
C412   C     0.64551   0.80770   0.13015   0.00000  Uiso   1.00
Cu413  Cu    0.50000   0.88022   0.16667   0.00000  Uiso   1.00
Cu414  Cu    0.50000   0.78645   0.16667   0.00000  Uiso   1.00
H415   H     0.45179   0.71103   0.11387   0.00000  Uiso   1.00
H416   H     0.63944   0.82905   0.30065   0.00000  Uiso   1.00
H417   H     0.59295   0.81397   0.26741   0.00000  Uiso   1.00
H418   H     0.59192   0.86139   0.31083   0.00000  Uiso   1.00
H419   H     0.63298   0.79008   0.05759   0.00000  Uiso   1.00
H420   H     0.64702   0.71422   0.09771   0.00000  Uiso   1.00
H421   H     0.59451   0.72017   0.07594   0.00000  Uiso   1.00
H422   H     0.60618   0.72794   0.14014   0.00000  Uiso   1.00
H423   H     0.36702   0.87661   0.27575   0.00000  Uiso   1.00
H424   H     0.35298   0.95246   0.23563   0.00000  Uiso   1.00
H425   H     0.39379   0.93875   0.19315   0.00000  Uiso   1.00
H426   H     0.54821   0.95564   0.21946   0.00000  Uiso   1.00
H427   H     0.40550   0.94653   0.25735   0.00000  Uiso   1.00
H428   H     0.54824   0.70922   0.21940   0.00000  Uiso   1.00
H429   H     0.45176   0.95745   0.11394   0.00000  Uiso   1.00
H430   H     0.36706   0.75973   0.07526   0.00000  Uiso   1.00
H431   H     0.36056   0.83759   0.03268   0.00000  Uiso   1.00
H432   H     0.40809   0.80528   0.02253   0.00000  Uiso   1.00
H433   H     0.40705   0.85270   0.06593   0.00000  Uiso   1.00
H434   H     0.63294   0.90694   0.25808   0.00000  Uiso   1.00
N435   N     0.50000   0.95069   0.16667   0.00000  Uiso   1.00
N436   N     0.50000   0.71598   0.16667   0.00000  Uiso   1.00
N437   N     0.37832   0.79055   0.08899   0.00000  Uiso   1.00
N438   N     0.62168   0.87611   0.24435   0.00000  Uiso   1.00
N439   N     0.62327   0.78344   0.09290   0.00000  Uiso   1.00
N440   N     0.37673   0.88324   0.24042   0.00000  Uiso   1.00
O441   O     0.43988   0.87291   0.16666   0.00000  Uiso   1.00
O442   O     0.56012   0.79375   0.16667   0.00000  Uiso   1.00
O443   O     0.56012   0.87291   0.16667   0.00000  Uiso   1.00
O444   O     0.43988   0.79375   0.16666   0.00000  Uiso   1.00
O445   O     0.50000   0.87292   0.09613   0.00000  Uiso   1.00
O446   O     0.50000   0.79375   0.23720   0.00000  Uiso   1.00
O447   O     0.50000   0.87292   0.23720   0.00000  Uiso   1.00
O448   O     0.50000   0.79375   0.09613   0.00000  Uiso   1.00
C449   C     0.75413   0.83378   0.16688   0.00000  Uiso   1.00
C450   C     0.68783   0.85897   0.20319   0.00000  Uiso   1.00
C451   C     0.95723   0.83163   0.16745   0.00000  Uiso   1.00
C452   C     0.70944   0.83504   0.16588   0.00000  Uiso   1.00
C453   C     0.80657   0.69196   0.13738   0.00000  Uiso   1.00
C454   C     0.86010   0.97470   0.19596   0.00000  Uiso   1.00
C455   C     0.86011   0.69096   0.19594   0.00000  Uiso   1.00
C456   C     0.80656   0.97571   0.13739   0.00000  Uiso   1.00
C457   C     0.72230   0.82335   0.05064   0.00000  Uiso   1.00
C458   C     0.94437   0.84332   0.28270   0.00000  Uiso   1.00
C459   C     0.95090   0.73401   0.10230   0.00000  Uiso   1.00
C460   C     0.91254   0.83289   0.16645   0.00000  Uiso   1.00
C461   C     0.71576   0.93267   0.23101   0.00000  Uiso   1.00
C462   C     0.83346   0.83337   0.07354   0.00000  Uiso   1.00
C463   C     0.83321   0.83330   0.25979   0.00000  Uiso   1.00
C464   C     0.83340   0.83338   0.02185   0.00000  Uiso   1.00
C465   C     0.83327   0.83328   0.31149   0.00000  Uiso   1.00
C466   C     0.68871   0.81069   0.12853   0.00000  Uiso   1.00
C467   C     0.97796   0.85598   0.20480   0.00000  Uiso   1.00
C468   C     0.97884   0.80770   0.13015   0.00000  Uiso   1.00
Cu469  Cu    0.83333   0.88022   0.16667   0.00000  Uiso   1.00
Cu470  Cu    0.83333   0.78645   0.16667   0.00000  Uiso   1.00
H471   H     0.78512   0.71103   0.11387   0.00000  Uiso   1.00
H472   H     0.97278   0.82905   0.30065   0.00000  Uiso   1.00
H473   H     0.92628   0.81397   0.26741   0.00000  Uiso   1.00
H474   H     0.92526   0.86139   0.31083   0.00000  Uiso   1.00
H475   H     0.96632   0.79008   0.05759   0.00000  Uiso   1.00
H476   H     0.98035   0.71422   0.09771   0.00000  Uiso   1.00
H477   H     0.92785   0.72017   0.07594   0.00000  Uiso   1.00
H478   H     0.93951   0.72794   0.14014   0.00000  Uiso   1.00
H479   H     0.70035   0.87661   0.27575   0.00000  Uiso   1.00
H480   H     0.68631   0.95246   0.23563   0.00000  Uiso   1.00
H481   H     0.72713   0.93875   0.19315   0.00000  Uiso   1.00
H482   H     0.88155   0.95564   0.21946   0.00000  Uiso   1.00
H483   H     0.73883   0.94653   0.25735   0.00000  Uiso   1.00
H484   H     0.88157   0.70922   0.21940   0.00000  Uiso   1.00
H485   H     0.78509   0.95745   0.11394   0.00000  Uiso   1.00
H486   H     0.70039   0.75973   0.07526   0.00000  Uiso   1.00
H487   H     0.69390   0.83759   0.03268   0.00000  Uiso   1.00
H488   H     0.74143   0.80528   0.02253   0.00000  Uiso   1.00
H489   H     0.74038   0.85270   0.06593   0.00000  Uiso   1.00
H490   H     0.96628   0.90694   0.25808   0.00000  Uiso   1.00
N491   N     0.83333   0.95069   0.16667   0.00000  Uiso   1.00
N492   N     0.83333   0.71598   0.16667   0.00000  Uiso   1.00
N493   N     0.71165   0.79055   0.08899   0.00000  Uiso   1.00
N494   N     0.95502   0.87611   0.24435   0.00000  Uiso   1.00
N495   N     0.95660   0.78344   0.09290   0.00000  Uiso   1.00
N496   N     0.71007   0.88324   0.24042   0.00000  Uiso   1.00
O497   O     0.77321   0.87291   0.16666   0.00000  Uiso   1.00
O498   O     0.89345   0.79375   0.16667   0.00000  Uiso   1.00
O499   O     0.89345   0.87291   0.16667   0.00000  Uiso   1.00
O500   O     0.77321   0.79375   0.16666   0.00000  Uiso   1.00
O501   O     0.83333   0.87292   0.09613   0.00000  Uiso   1.00
O502   O     0.83333   0.79375   0.23720   0.00000  Uiso   1.00
O503   O     0.83333   0.87292   0.23720   0.00000  Uiso   1.00
O504   O     0.83333   0.79375   0.09613   0.00000  Uiso   1.00
C505   C     0.08746   0.16711   0.50022   0.00000  Uiso   1.00
C506   C     0.02116   0.19230   0.53652   0.00000  Uiso   1.00
C507   C     0.29056   0.16496   0.50078   0.00000  Uiso   1.00
C508   C     0.04277   0.16837   0.49922   0.00000  Uiso   1.00
C509   C     0.13990   0.02530   0.47071   0.00000  Uiso   1.00
C510   C     0.19343   0.30804   0.52929   0.00000  Uiso   1.00
C511   C     0.19344   0.02429   0.52928   0.00000  Uiso   1.00
C512   C     0.13989   0.30905   0.47072   0.00000  Uiso   1.00
C513   C     0.05563   0.15668   0.38398   0.00000  Uiso   1.00
C514   C     0.27770   0.17665   0.61603   0.00000  Uiso   1.00
C515   C     0.28423   0.06735   0.43563   0.00000  Uiso   1.00
C516   C     0.24587   0.16622   0.49978   0.00000  Uiso   1.00
C517   C     0.04909   0.26601   0.56435   0.00000  Uiso   1.00
C518   C     0.16680   0.16670   0.40687   0.00000  Uiso   1.00
C519   C     0.16654   0.16663   0.59313   0.00000  Uiso   1.00
C520   C     0.16673   0.16672   0.35518   0.00000  Uiso   1.00
C521   C     0.16660   0.16662   0.64482   0.00000  Uiso   1.00
C522   C     0.02204   0.14402   0.46186   0.00000  Uiso   1.00
C523   C     0.31129   0.18932   0.53814   0.00000  Uiso   1.00
C524   C     0.31217   0.14103   0.46348   0.00000  Uiso   1.00
Cu525  Cu    0.16667   0.21355   0.50000   0.00000  Uiso   1.00
Cu526  Cu    0.16667   0.11978   0.50000   0.00000  Uiso   1.00
H527   H     0.11845   0.04436   0.44721   0.00000  Uiso   1.00
H528   H     0.30611   0.16239   0.63399   0.00000  Uiso   1.00
H529   H     0.25961   0.14730   0.60074   0.00000  Uiso   1.00
H530   H     0.25859   0.19472   0.64416   0.00000  Uiso   1.00
H531   H     0.29965   0.12342   0.39092   0.00000  Uiso   1.00
H532   H     0.31369   0.04755   0.43105   0.00000  Uiso   1.00
H533   H     0.26118   0.05350   0.40927   0.00000  Uiso   1.00
H534   H     0.27285   0.06127   0.47348   0.00000  Uiso   1.00
H535   H     0.03369   0.20994   0.60908   0.00000  Uiso   1.00
H536   H     0.01964   0.28580   0.56896   0.00000  Uiso   1.00
H537   H     0.06046   0.27208   0.52648   0.00000  Uiso   1.00
H538   H     0.21488   0.28897   0.55279   0.00000  Uiso   1.00
H539   H     0.07217   0.27986   0.59069   0.00000  Uiso   1.00
H540   H     0.21491   0.04255   0.55273   0.00000  Uiso   1.00
H541   H     0.11843   0.29078   0.44727   0.00000  Uiso   1.00
H542   H     0.03372   0.09306   0.40860   0.00000  Uiso   1.00
H543   H     0.02723   0.17093   0.36601   0.00000  Uiso   1.00
H544   H     0.07476   0.13861   0.35586   0.00000  Uiso   1.00
H545   H     0.07372   0.18603   0.39926   0.00000  Uiso   1.00
H546   H     0.29961   0.24028   0.59141   0.00000  Uiso   1.00
N547   N     0.16667   0.28402   0.50000   0.00000  Uiso   1.00
N548   N     0.16667   0.04931   0.50000   0.00000  Uiso   1.00
N549   N     0.04498   0.12389   0.42233   0.00000  Uiso   1.00
N550   N     0.28835   0.20945   0.57768   0.00000  Uiso   1.00
N551   N     0.28993   0.11677   0.42624   0.00000  Uiso   1.00
N552   N     0.04340   0.21658   0.57376   0.00000  Uiso   1.00
O553   O     0.10655   0.20625   0.50000   0.00000  Uiso   1.00
O554   O     0.22679   0.12709   0.50000   0.00000  Uiso   1.00
O555   O     0.22679   0.20625   0.50000   0.00000  Uiso   1.00
O556   O     0.10655   0.12709   0.50000   0.00000  Uiso   1.00
O557   O     0.16667   0.20625   0.42946   0.00000  Uiso   1.00
O558   O     0.16667   0.12708   0.57054   0.00000  Uiso   1.00
O559   O     0.16667   0.20625   0.57054   0.00000  Uiso   1.00
O560   O     0.16667   0.12708   0.42946   0.00000  Uiso   1.00
C561   C     0.42079   0.16711   0.50022   0.00000  Uiso   1.00
C562   C     0.35449   0.19230   0.53652   0.00000  Uiso   1.00
C563   C     0.62389   0.16496   0.50078   0.00000  Uiso   1.00
C564   C     0.37611   0.16837   0.49922   0.00000  Uiso   1.00
C565   C     0.47323   0.02530   0.47071   0.00000  Uiso   1.00
C566   C     0.52677   0.30804   0.52929   0.00000  Uiso   1.00
C567   C     0.52677   0.02429   0.52928   0.00000  Uiso   1.00
C568   C     0.47323   0.30905   0.47072   0.00000  Uiso   1.00
C569   C     0.38897   0.15668   0.38398   0.00000  Uiso   1.00
C570   C     0.61104   0.17665   0.61603   0.00000  Uiso   1.00
C571   C     0.61757   0.06735   0.43563   0.00000  Uiso   1.00
C572   C     0.57921   0.16622   0.49978   0.00000  Uiso   1.00
C573   C     0.38243   0.26601   0.56435   0.00000  Uiso   1.00
C574   C     0.50013   0.16670   0.40687   0.00000  Uiso   1.00
C575   C     0.49987   0.16663   0.59313   0.00000  Uiso   1.00
C576   C     0.50006   0.16672   0.35518   0.00000  Uiso   1.00
C577   C     0.49994   0.16662   0.64482   0.00000  Uiso   1.00
C578   C     0.35537   0.14402   0.46186   0.00000  Uiso   1.00
C579   C     0.64463   0.18932   0.53814   0.00000  Uiso   1.00
C580   C     0.64551   0.14103   0.46348   0.00000  Uiso   1.00
Cu581  Cu    0.50000   0.21355   0.50000   0.00000  Uiso   1.00
Cu582  Cu    0.50000   0.11978   0.50000   0.00000  Uiso   1.00
H583   H     0.45179   0.04436   0.44721   0.00000  Uiso   1.00
H584   H     0.63944   0.16239   0.63399   0.00000  Uiso   1.00
H585   H     0.59295   0.14730   0.60074   0.00000  Uiso   1.00
H586   H     0.59192   0.19472   0.64416   0.00000  Uiso   1.00
H587   H     0.63298   0.12342   0.39092   0.00000  Uiso   1.00
H588   H     0.64702   0.04755   0.43105   0.00000  Uiso   1.00
H589   H     0.59451   0.05350   0.40927   0.00000  Uiso   1.00
H590   H     0.60618   0.06127   0.47348   0.00000  Uiso   1.00
H591   H     0.36702   0.20994   0.60908   0.00000  Uiso   1.00
H592   H     0.35298   0.28580   0.56896   0.00000  Uiso   1.00
H593   H     0.39379   0.27208   0.52648   0.00000  Uiso   1.00
H594   H     0.54821   0.28897   0.55279   0.00000  Uiso   1.00
H595   H     0.40550   0.27986   0.59069   0.00000  Uiso   1.00
H596   H     0.54824   0.04255   0.55273   0.00000  Uiso   1.00
H597   H     0.45176   0.29078   0.44727   0.00000  Uiso   1.00
H598   H     0.36706   0.09306   0.40860   0.00000  Uiso   1.00
H599   H     0.36056   0.17093   0.36601   0.00000  Uiso   1.00
H600   H     0.40809   0.13861   0.35586   0.00000  Uiso   1.00
H601   H     0.40705   0.18603   0.39926   0.00000  Uiso   1.00
H602   H     0.63294   0.24028   0.59141   0.00000  Uiso   1.00
N603   N     0.50000   0.28402   0.50000   0.00000  Uiso   1.00
N604   N     0.50000   0.04931   0.50000   0.00000  Uiso   1.00
N605   N     0.37832   0.12389   0.42233   0.00000  Uiso   1.00
N606   N     0.62168   0.20945   0.57768   0.00000  Uiso   1.00
N607   N     0.62327   0.11677   0.42624   0.00000  Uiso   1.00
N608   N     0.37673   0.21658   0.57376   0.00000  Uiso   1.00
O609   O     0.43988   0.20625   0.50000   0.00000  Uiso   1.00
O610   O     0.56012   0.12709   0.50000   0.00000  Uiso   1.00
O611   O     0.56012   0.20625   0.50000   0.00000  Uiso   1.00
O612   O     0.43988   0.12709   0.50000   0.00000  Uiso   1.00
O613   O     0.50000   0.20625   0.42946   0.00000  Uiso   1.00
O614   O     0.50000   0.12708   0.57054   0.00000  Uiso   1.00
O615   O     0.50000   0.20625   0.57054   0.00000  Uiso   1.00
O616   O     0.50000   0.12708   0.42946   0.00000  Uiso   1.00
C617   C     0.75413   0.16711   0.50022   0.00000  Uiso   1.00
C618   C     0.68783   0.19230   0.53652   0.00000  Uiso   1.00
C619   C     0.95723   0.16496   0.50078   0.00000  Uiso   1.00
C620   C     0.70944   0.16837   0.49922   0.00000  Uiso   1.00
C621   C     0.80657   0.02530   0.47071   0.00000  Uiso   1.00
C622   C     0.86010   0.30804   0.52929   0.00000  Uiso   1.00
C623   C     0.86011   0.02429   0.52928   0.00000  Uiso   1.00
C624   C     0.80656   0.30905   0.47072   0.00000  Uiso   1.00
C625   C     0.72230   0.15668   0.38398   0.00000  Uiso   1.00
C626   C     0.94437   0.17665   0.61603   0.00000  Uiso   1.00
C627   C     0.95090   0.06735   0.43563   0.00000  Uiso   1.00
C628   C     0.91254   0.16622   0.49978   0.00000  Uiso   1.00
C629   C     0.71576   0.26601   0.56435   0.00000  Uiso   1.00
C630   C     0.83346   0.16670   0.40687   0.00000  Uiso   1.00
C631   C     0.83321   0.16663   0.59313   0.00000  Uiso   1.00
C632   C     0.83340   0.16672   0.35518   0.00000  Uiso   1.00
C633   C     0.83327   0.16662   0.64482   0.00000  Uiso   1.00
C634   C     0.68871   0.14402   0.46186   0.00000  Uiso   1.00
C635   C     0.97796   0.18932   0.53814   0.00000  Uiso   1.00
C636   C     0.97884   0.14103   0.46348   0.00000  Uiso   1.00
Cu637  Cu    0.83333   0.21355   0.50000   0.00000  Uiso   1.00
Cu638  Cu    0.83333   0.11978   0.50000   0.00000  Uiso   1.00
H639   H     0.78512   0.04436   0.44721   0.00000  Uiso   1.00
H640   H     0.97278   0.16239   0.63399   0.00000  Uiso   1.00
H641   H     0.92628   0.14730   0.60074   0.00000  Uiso   1.00
H642   H     0.92526   0.19472   0.64416   0.00000  Uiso   1.00
H643   H     0.96632   0.12342   0.39092   0.00000  Uiso   1.00
H644   H     0.98035   0.04755   0.43105   0.00000  Uiso   1.00
H645   H     0.92785   0.05350   0.40927   0.00000  Uiso   1.00
H646   H     0.93951   0.06127   0.47348   0.00000  Uiso   1.00
H647   H     0.70035   0.20994   0.60908   0.00000  Uiso   1.00
H648   H     0.68631   0.28580   0.56896   0.00000  Uiso   1.00
H649   H     0.72713   0.27208   0.52648   0.00000  Uiso   1.00
H650   H     0.88155   0.28897   0.55279   0.00000  Uiso   1.00
H651   H     0.73883   0.27986   0.59069   0.00000  Uiso   1.00
H652   H     0.88157   0.04255   0.55273   0.00000  Uiso   1.00
H653   H     0.78509   0.29078   0.44727   0.00000  Uiso   1.00
H654   H     0.70039   0.09306   0.40860   0.00000  Uiso   1.00
H655   H     0.69390   0.17093   0.36601   0.00000  Uiso   1.00
H656   H     0.74143   0.13861   0.35586   0.00000  Uiso   1.00
H657   H     0.74038   0.18603   0.39926   0.00000  Uiso   1.00
H658   H     0.96628   0.24028   0.59141   0.00000  Uiso   1.00
N659   N     0.83333   0.28402   0.50000   0.00000  Uiso   1.00
N660   N     0.83333   0.04931   0.50000   0.00000  Uiso   1.00
N661   N     0.71165   0.12389   0.42233   0.00000  Uiso   1.00
N662   N     0.95502   0.20945   0.57768   0.00000  Uiso   1.00
N663   N     0.95660   0.11677   0.42624   0.00000  Uiso   1.00
N664   N     0.71007   0.21658   0.57376   0.00000  Uiso   1.00
O665   O     0.77321   0.20625   0.50000   0.00000  Uiso   1.00
O666   O     0.89345   0.12709   0.50000   0.00000  Uiso   1.00
O667   O     0.89345   0.20625   0.50000   0.00000  Uiso   1.00
O668   O     0.77321   0.12709   0.50000   0.00000  Uiso   1.00
O669   O     0.83333   0.20625   0.42946   0.00000  Uiso   1.00
O670   O     0.83333   0.12708   0.57054   0.00000  Uiso   1.00
O671   O     0.83333   0.20625   0.57054   0.00000  Uiso   1.00
O672   O     0.83333   0.12708   0.42946   0.00000  Uiso   1.00
C673   C     0.08746   0.50045   0.50022   0.00000  Uiso   1.00
C674   C     0.02116   0.52564   0.53652   0.00000  Uiso   1.00
C675   C     0.29056   0.49829   0.50078   0.00000  Uiso   1.00
C676   C     0.04277   0.50171   0.49922   0.00000  Uiso   1.00
C677   C     0.13990   0.35863   0.47071   0.00000  Uiso   1.00
C678   C     0.19343   0.64137   0.52929   0.00000  Uiso   1.00
C679   C     0.19344   0.35762   0.52928   0.00000  Uiso   1.00
C680   C     0.13989   0.64238   0.47072   0.00000  Uiso   1.00
C681   C     0.05563   0.49001   0.38398   0.00000  Uiso   1.00
C682   C     0.27770   0.50998   0.61603   0.00000  Uiso   1.00
C683   C     0.28423   0.40068   0.43563   0.00000  Uiso   1.00
C684   C     0.24587   0.49955   0.49978   0.00000  Uiso   1.00
C685   C     0.04909   0.59934   0.56435   0.00000  Uiso   1.00
C686   C     0.16680   0.50003   0.40687   0.00000  Uiso   1.00
C687   C     0.16654   0.49997   0.59313   0.00000  Uiso   1.00
C688   C     0.16673   0.50005   0.35518   0.00000  Uiso   1.00
C689   C     0.16660   0.49995   0.64482   0.00000  Uiso   1.00
C690   C     0.02204   0.47735   0.46186   0.00000  Uiso   1.00
C691   C     0.31129   0.52265   0.53814   0.00000  Uiso   1.00
C692   C     0.31217   0.47437   0.46348   0.00000  Uiso   1.00
Cu693  Cu    0.16667   0.54689   0.50000   0.00000  Uiso   1.00
Cu694  Cu    0.16667   0.45311   0.50000   0.00000  Uiso   1.00
H695   H     0.11845   0.37769   0.44721   0.00000  Uiso   1.00
H696   H     0.30611   0.49572   0.63399   0.00000  Uiso   1.00
H697   H     0.25961   0.48063   0.60074   0.00000  Uiso   1.00
H698   H     0.25859   0.52805   0.64416   0.00000  Uiso   1.00
H699   H     0.29965   0.45675   0.39092   0.00000  Uiso   1.00
H700   H     0.31369   0.38088   0.43105   0.00000  Uiso   1.00
H701   H     0.26118   0.38684   0.40927   0.00000  Uiso   1.00
H702   H     0.27285   0.39460   0.47348   0.00000  Uiso   1.00
H703   H     0.03369   0.54327   0.60908   0.00000  Uiso   1.00
H704   H     0.01964   0.61913   0.56896   0.00000  Uiso   1.00
H705   H     0.06046   0.60542   0.52648   0.00000  Uiso   1.00
H706   H     0.21488   0.62231   0.55279   0.00000  Uiso   1.00
H707   H     0.07217   0.61320   0.59069   0.00000  Uiso   1.00
H708   H     0.21491   0.37589   0.55273   0.00000  Uiso   1.00
H709   H     0.11843   0.62411   0.44727   0.00000  Uiso   1.00
H710   H     0.03372   0.42640   0.40860   0.00000  Uiso   1.00
H711   H     0.02723   0.50426   0.36601   0.00000  Uiso   1.00
H712   H     0.07476   0.47195   0.35586   0.00000  Uiso   1.00
H713   H     0.07372   0.51937   0.39926   0.00000  Uiso   1.00
H714   H     0.29961   0.57361   0.59141   0.00000  Uiso   1.00
N715   N     0.16667   0.61736   0.50000   0.00000  Uiso   1.00
N716   N     0.16667   0.38264   0.50000   0.00000  Uiso   1.00
N717   N     0.04498   0.45722   0.42233   0.00000  Uiso   1.00
N718   N     0.28835   0.54278   0.57768   0.00000  Uiso   1.00
N719   N     0.28993   0.45010   0.42624   0.00000  Uiso   1.00
N720   N     0.04340   0.54991   0.57376   0.00000  Uiso   1.00
O721   O     0.10655   0.53958   0.50000   0.00000  Uiso   1.00
O722   O     0.22679   0.46042   0.50000   0.00000  Uiso   1.00
O723   O     0.22679   0.53958   0.50000   0.00000  Uiso   1.00
O724   O     0.10655   0.46042   0.50000   0.00000  Uiso   1.00
O725   O     0.16667   0.53959   0.42946   0.00000  Uiso   1.00
O726   O     0.16667   0.46041   0.57054   0.00000  Uiso   1.00
O727   O     0.16667   0.53959   0.57054   0.00000  Uiso   1.00
O728   O     0.16667   0.46041   0.42946   0.00000  Uiso   1.00
C729   C     0.42079   0.50045   0.50022   0.00000  Uiso   1.00
C730   C     0.35449   0.52564   0.53652   0.00000  Uiso   1.00
C731   C     0.62389   0.49829   0.50078   0.00000  Uiso   1.00
C732   C     0.37611   0.50171   0.49922   0.00000  Uiso   1.00
C733   C     0.47323   0.35863   0.47071   0.00000  Uiso   1.00
C734   C     0.52677   0.64137   0.52929   0.00000  Uiso   1.00
C735   C     0.52677   0.35762   0.52928   0.00000  Uiso   1.00
C736   C     0.47323   0.64238   0.47072   0.00000  Uiso   1.00
C737   C     0.38897   0.49001   0.38398   0.00000  Uiso   1.00
C738   C     0.61104   0.50998   0.61603   0.00000  Uiso   1.00
C739   C     0.61757   0.40068   0.43563   0.00000  Uiso   1.00
C740   C     0.57921   0.49955   0.49978   0.00000  Uiso   1.00
C741   C     0.38243   0.59934   0.56435   0.00000  Uiso   1.00
C742   C     0.50013   0.50003   0.40687   0.00000  Uiso   1.00
C743   C     0.49987   0.49997   0.59313   0.00000  Uiso   1.00
C744   C     0.50006   0.50005   0.35518   0.00000  Uiso   1.00
C745   C     0.49994   0.49995   0.64482   0.00000  Uiso   1.00
C746   C     0.35537   0.47735   0.46186   0.00000  Uiso   1.00
C747   C     0.64463   0.52265   0.53814   0.00000  Uiso   1.00
C748   C     0.64551   0.47437   0.46348   0.00000  Uiso   1.00
Cu749  Cu    0.50000   0.54689   0.50000   0.00000  Uiso   1.00
Cu750  Cu    0.50000   0.45311   0.50000   0.00000  Uiso   1.00
H751   H     0.45179   0.37769   0.44721   0.00000  Uiso   1.00
H752   H     0.63944   0.49572   0.63399   0.00000  Uiso   1.00
H753   H     0.59295   0.48063   0.60074   0.00000  Uiso   1.00
H754   H     0.59192   0.52805   0.64416   0.00000  Uiso   1.00
H755   H     0.63298   0.45675   0.39092   0.00000  Uiso   1.00
H756   H     0.64702   0.38088   0.43105   0.00000  Uiso   1.00
H757   H     0.59451   0.38684   0.40927   0.00000  Uiso   1.00
H758   H     0.60618   0.39460   0.47348   0.00000  Uiso   1.00
H759   H     0.36702   0.54327   0.60908   0.00000  Uiso   1.00
H760   H     0.35298   0.61913   0.56896   0.00000  Uiso   1.00
H761   H     0.39379   0.60542   0.52648   0.00000  Uiso   1.00
H762   H     0.54821   0.62231   0.55279   0.00000  Uiso   1.00
H763   H     0.40550   0.61320   0.59069   0.00000  Uiso   1.00
H764   H     0.54824   0.37589   0.55273   0.00000  Uiso   1.00
H765   H     0.45176   0.62411   0.44727   0.00000  Uiso   1.00
H766   H     0.36706   0.42640   0.40860   0.00000  Uiso   1.00
H767   H     0.36056   0.50426   0.36601   0.00000  Uiso   1.00
H768   H     0.40809   0.47195   0.35586   0.00000  Uiso   1.00
H769   H     0.40705   0.51937   0.39926   0.00000  Uiso   1.00
H770   H     0.63294   0.57361   0.59141   0.00000  Uiso   1.00
N771   N     0.50000   0.61736   0.50000   0.00000  Uiso   1.00
N772   N     0.50000   0.38264   0.50000   0.00000  Uiso   1.00
N773   N     0.37832   0.45722   0.42233   0.00000  Uiso   1.00
N774   N     0.62168   0.54278   0.57768   0.00000  Uiso   1.00
N775   N     0.62327   0.45010   0.42624   0.00000  Uiso   1.00
N776   N     0.37673   0.54991   0.57376   0.00000  Uiso   1.00
O777   O     0.43988   0.53958   0.50000   0.00000  Uiso   1.00
O778   O     0.56012   0.46042   0.50000   0.00000  Uiso   1.00
O779   O     0.56012   0.53958   0.50000   0.00000  Uiso   1.00
O780   O     0.43988   0.46042   0.50000   0.00000  Uiso   1.00
O781   O     0.50000   0.53959   0.42946   0.00000  Uiso   1.00
O782   O     0.50000   0.46041   0.57054   0.00000  Uiso   1.00
O783   O     0.50000   0.53959   0.57054   0.00000  Uiso   1.00
O784   O     0.50000   0.46041   0.42946   0.00000  Uiso   1.00
C785   C     0.75413   0.50045   0.50022   0.00000  Uiso   1.00
C786   C     0.68783   0.52564   0.53652   0.00000  Uiso   1.00
C787   C     0.95723   0.49829   0.50078   0.00000  Uiso   1.00
C788   C     0.70944   0.50171   0.49922   0.00000  Uiso   1.00
C789   C     0.80657   0.35863   0.47071   0.00000  Uiso   1.00
C790   C     0.86010   0.64137   0.52929   0.00000  Uiso   1.00
C791   C     0.86011   0.35762   0.52928   0.00000  Uiso   1.00
C792   C     0.80656   0.64238   0.47072   0.00000  Uiso   1.00
C793   C     0.72230   0.49001   0.38398   0.00000  Uiso   1.00
C794   C     0.94437   0.50998   0.61603   0.00000  Uiso   1.00
C795   C     0.95090   0.40068   0.43563   0.00000  Uiso   1.00
C796   C     0.91254   0.49955   0.49978   0.00000  Uiso   1.00
C797   C     0.71576   0.59934   0.56435   0.00000  Uiso   1.00
C798   C     0.83346   0.50003   0.40687   0.00000  Uiso   1.00
C799   C     0.83321   0.49997   0.59313   0.00000  Uiso   1.00
C800   C     0.83340   0.50005   0.35518   0.00000  Uiso   1.00
C801   C     0.83327   0.49995   0.64482   0.00000  Uiso   1.00
C802   C     0.68871   0.47735   0.46186   0.00000  Uiso   1.00
C803   C     0.97796   0.52265   0.53814   0.00000  Uiso   1.00
C804   C     0.97884   0.47437   0.46348   0.00000  Uiso   1.00
Cu805  Cu    0.83333   0.54689   0.50000   0.00000  Uiso   1.00
Cu806  Cu    0.83333   0.45311   0.50000   0.00000  Uiso   1.00
H807   H     0.78512   0.37769   0.44721   0.00000  Uiso   1.00
H808   H     0.97278   0.49572   0.63399   0.00000  Uiso   1.00
H809   H     0.92628   0.48063   0.60074   0.00000  Uiso   1.00
H810   H     0.92526   0.52805   0.64416   0.00000  Uiso   1.00
H811   H     0.96632   0.45675   0.39092   0.00000  Uiso   1.00
H812   H     0.98035   0.38088   0.43105   0.00000  Uiso   1.00
H813   H     0.92785   0.38684   0.40927   0.00000  Uiso   1.00
H814   H     0.93951   0.39460   0.47348   0.00000  Uiso   1.00
H815   H     0.70035   0.54327   0.60908   0.00000  Uiso   1.00
H816   H     0.68631   0.61913   0.56896   0.00000  Uiso   1.00
H817   H     0.72713   0.60542   0.52648   0.00000  Uiso   1.00
H818   H     0.88155   0.62231   0.55279   0.00000  Uiso   1.00
H819   H     0.73883   0.61320   0.59069   0.00000  Uiso   1.00
H820   H     0.88157   0.37589   0.55273   0.00000  Uiso   1.00
H821   H     0.78509   0.62411   0.44727   0.00000  Uiso   1.00
H822   H     0.70039   0.42640   0.40860   0.00000  Uiso   1.00
H823   H     0.69390   0.50426   0.36601   0.00000  Uiso   1.00
H824   H     0.74143   0.47195   0.35586   0.00000  Uiso   1.00
H825   H     0.74038   0.51937   0.39926   0.00000  Uiso   1.00
H826   H     0.96628   0.57361   0.59141   0.00000  Uiso   1.00
N827   N     0.83333   0.61736   0.50000   0.00000  Uiso   1.00
N828   N     0.83333   0.38264   0.50000   0.00000  Uiso   1.00
N829   N     0.71165   0.45722   0.42233   0.00000  Uiso   1.00
N830   N     0.95502   0.54278   0.57768   0.00000  Uiso   1.00
N831   N     0.95660   0.45010   0.42624   0.00000  Uiso   1.00
N832   N     0.71007   0.54991   0.57376   0.00000  Uiso   1.00
O833   O     0.77321   0.53958   0.50000   0.00000  Uiso   1.00
O834   O     0.89345   0.46042   0.50000   0.00000  Uiso   1.00
O835   O     0.89345   0.53958   0.50000   0.00000  Uiso   1.00
O836   O     0.77321   0.46042   0.50000   0.00000  Uiso   1.00
O837   O     0.83333   0.53959   0.42946   0.00000  Uiso   1.00
O838   O     0.83333   0.46041   0.57054   0.00000  Uiso   1.00
O839   O     0.83333   0.53959   0.57054   0.00000  Uiso   1.00
O840   O     0.83333   0.46041   0.42946   0.00000  Uiso   1.00
C841   C     0.08746   0.83378   0.50022   0.00000  Uiso   1.00
C842   C     0.02116   0.85897   0.53652   0.00000  Uiso   1.00
C843   C     0.29056   0.83163   0.50078   0.00000  Uiso   1.00
C844   C     0.04277   0.83504   0.49922   0.00000  Uiso   1.00
C845   C     0.13990   0.69196   0.47071   0.00000  Uiso   1.00
C846   C     0.19343   0.97470   0.52929   0.00000  Uiso   1.00
C847   C     0.19344   0.69096   0.52928   0.00000  Uiso   1.00
C848   C     0.13989   0.97571   0.47072   0.00000  Uiso   1.00
C849   C     0.05563   0.82335   0.38398   0.00000  Uiso   1.00
C850   C     0.27770   0.84332   0.61603   0.00000  Uiso   1.00
C851   C     0.28423   0.73401   0.43563   0.00000  Uiso   1.00
C852   C     0.24587   0.83289   0.49978   0.00000  Uiso   1.00
C853   C     0.04909   0.93267   0.56435   0.00000  Uiso   1.00
C854   C     0.16680   0.83337   0.40687   0.00000  Uiso   1.00
C855   C     0.16654   0.83330   0.59313   0.00000  Uiso   1.00
C856   C     0.16673   0.83338   0.35518   0.00000  Uiso   1.00
C857   C     0.16660   0.83328   0.64482   0.00000  Uiso   1.00
C858   C     0.02204   0.81069   0.46186   0.00000  Uiso   1.00
C859   C     0.31129   0.85598   0.53814   0.00000  Uiso   1.00
C860   C     0.31217   0.80770   0.46348   0.00000  Uiso   1.00
Cu861  Cu    0.16667   0.88022   0.50000   0.00000  Uiso   1.00
Cu862  Cu    0.16667   0.78645   0.50000   0.00000  Uiso   1.00
H863   H     0.11845   0.71103   0.44721   0.00000  Uiso   1.00
H864   H     0.30611   0.82905   0.63399   0.00000  Uiso   1.00
H865   H     0.25961   0.81397   0.60074   0.00000  Uiso   1.00
H866   H     0.25859   0.86139   0.64416   0.00000  Uiso   1.00
H867   H     0.29965   0.79008   0.39092   0.00000  Uiso   1.00
H868   H     0.31369   0.71422   0.43105   0.00000  Uiso   1.00
H869   H     0.26118   0.72017   0.40927   0.00000  Uiso   1.00
H870   H     0.27285   0.72794   0.47348   0.00000  Uiso   1.00
H871   H     0.03369   0.87661   0.60908   0.00000  Uiso   1.00
H872   H     0.01964   0.95246   0.56896   0.00000  Uiso   1.00
H873   H     0.06046   0.93875   0.52648   0.00000  Uiso   1.00
H874   H     0.21488   0.95564   0.55279   0.00000  Uiso   1.00
H875   H     0.07217   0.94653   0.59069   0.00000  Uiso   1.00
H876   H     0.21491   0.70922   0.55273   0.00000  Uiso   1.00
H877   H     0.11843   0.95745   0.44727   0.00000  Uiso   1.00
H878   H     0.03372   0.75973   0.40860   0.00000  Uiso   1.00
H879   H     0.02723   0.83759   0.36601   0.00000  Uiso   1.00
H880   H     0.07476   0.80528   0.35586   0.00000  Uiso   1.00
H881   H     0.07372   0.85270   0.39926   0.00000  Uiso   1.00
H882   H     0.29961   0.90694   0.59141   0.00000  Uiso   1.00
N883   N     0.16667   0.95069   0.50000   0.00000  Uiso   1.00
N884   N     0.16667   0.71598   0.50000   0.00000  Uiso   1.00
N885   N     0.04498   0.79055   0.42233   0.00000  Uiso   1.00
N886   N     0.28835   0.87611   0.57768   0.00000  Uiso   1.00
N887   N     0.28993   0.78344   0.42624   0.00000  Uiso   1.00
N888   N     0.04340   0.88324   0.57376   0.00000  Uiso   1.00
O889   O     0.10655   0.87291   0.50000   0.00000  Uiso   1.00
O890   O     0.22679   0.79375   0.50000   0.00000  Uiso   1.00
O891   O     0.22679   0.87291   0.50000   0.00000  Uiso   1.00
O892   O     0.10655   0.79375   0.50000   0.00000  Uiso   1.00
O893   O     0.16667   0.87292   0.42946   0.00000  Uiso   1.00
O894   O     0.16667   0.79375   0.57054   0.00000  Uiso   1.00
O895   O     0.16667   0.87292   0.57054   0.00000  Uiso   1.00
O896   O     0.16667   0.79375   0.42946   0.00000  Uiso   1.00
C897   C     0.42079   0.83378   0.50022   0.00000  Uiso   1.00
C898   C     0.35449   0.85897   0.53652   0.00000  Uiso   1.00
C899   C     0.62389   0.83163   0.50078   0.00000  Uiso   1.00
C900   C     0.37611   0.83504   0.49922   0.00000  Uiso   1.00
C901   C     0.47323   0.69196   0.47071   0.00000  Uiso   1.00
C902   C     0.52677   0.97470   0.52929   0.00000  Uiso   1.00
C903   C     0.52677   0.69096   0.52928   0.00000  Uiso   1.00
C904   C     0.47323   0.97571   0.47072   0.00000  Uiso   1.00
C905   C     0.38897   0.82335   0.38398   0.00000  Uiso   1.00
C906   C     0.61104   0.84332   0.61603   0.00000  Uiso   1.00
C907   C     0.61757   0.73401   0.43563   0.00000  Uiso   1.00
C908   C     0.57921   0.83289   0.49978   0.00000  Uiso   1.00
C909   C     0.38243   0.93267   0.56435   0.00000  Uiso   1.00
C910   C     0.50013   0.83337   0.40687   0.00000  Uiso   1.00
C911   C     0.49987   0.83330   0.59313   0.00000  Uiso   1.00
C912   C     0.50006   0.83338   0.35518   0.00000  Uiso   1.00
C913   C     0.49994   0.83328   0.64482   0.00000  Uiso   1.00
C914   C     0.35537   0.81069   0.46186   0.00000  Uiso   1.00
C915   C     0.64463   0.85598   0.53814   0.00000  Uiso   1.00
C916   C     0.64551   0.80770   0.46348   0.00000  Uiso   1.00
Cu917  Cu    0.50000   0.88022   0.50000   0.00000  Uiso   1.00
Cu918  Cu    0.50000   0.78645   0.50000   0.00000  Uiso   1.00
H919   H     0.45179   0.71103   0.44721   0.00000  Uiso   1.00
H920   H     0.63944   0.82905   0.63399   0.00000  Uiso   1.00
H921   H     0.59295   0.81397   0.60074   0.00000  Uiso   1.00
H922   H     0.59192   0.86139   0.64416   0.00000  Uiso   1.00
H923   H     0.63298   0.79008   0.39092   0.00000  Uiso   1.00
H924   H     0.64702   0.71422   0.43105   0.00000  Uiso   1.00
H925   H     0.59451   0.72017   0.40927   0.00000  Uiso   1.00
H926   H     0.60618   0.72794   0.47348   0.00000  Uiso   1.00
H927   H     0.36702   0.87661   0.60908   0.00000  Uiso   1.00
H928   H     0.35298   0.95246   0.56896   0.00000  Uiso   1.00
H929   H     0.39379   0.93875   0.52648   0.00000  Uiso   1.00
H930   H     0.54821   0.95564   0.55279   0.00000  Uiso   1.00
H931   H     0.40550   0.94653   0.59069   0.00000  Uiso   1.00
H932   H     0.54824   0.70922   0.55273   0.00000  Uiso   1.00
H933   H     0.45176   0.95745   0.44727   0.00000  Uiso   1.00
H934   H     0.36706   0.75973   0.40860   0.00000  Uiso   1.00
H935   H     0.36056   0.83759   0.36601   0.00000  Uiso   1.00
H936   H     0.40809   0.80528   0.35586   0.00000  Uiso   1.00
H937   H     0.40705   0.85270   0.39926   0.00000  Uiso   1.00
H938   H     0.63294   0.90694   0.59141   0.00000  Uiso   1.00
N939   N     0.50000   0.95069   0.50000   0.00000  Uiso   1.00
N940   N     0.50000   0.71598   0.50000   0.00000  Uiso   1.00
N941   N     0.37832   0.79055   0.42233   0.00000  Uiso   1.00
N942   N     0.62168   0.87611   0.57768   0.00000  Uiso   1.00
N943   N     0.62327   0.78344   0.42624   0.00000  Uiso   1.00
N944   N     0.37673   0.88324   0.57376   0.00000  Uiso   1.00
O945   O     0.43988   0.87291   0.50000   0.00000  Uiso   1.00
O946   O     0.56012   0.79375   0.50000   0.00000  Uiso   1.00
O947   O     0.56012   0.87291   0.50000   0.00000  Uiso   1.00
O948   O     0.43988   0.79375   0.50000   0.00000  Uiso   1.00
O949   O     0.50000   0.87292   0.42946   0.00000  Uiso   1.00
O950   O     0.50000   0.79375   0.57054   0.00000  Uiso   1.00
O951   O     0.50000   0.87292   0.57054   0.00000  Uiso   1.00
O952   O     0.50000   0.79375   0.42946   0.00000  Uiso   1.00
C953   C     0.75413   0.83378   0.50022   0.00000  Uiso   1.00
C954   C     0.68783   0.85897   0.53652   0.00000  Uiso   1.00
C955   C     0.95723   0.83163   0.50078   0.00000  Uiso   1.00
C956   C     0.70944   0.83504   0.49922   0.00000  Uiso   1.00
C957   C     0.80657   0.69196   0.47071   0.00000  Uiso   1.00
C958   C     0.86010   0.97470   0.52929   0.00000  Uiso   1.00
C959   C     0.86011   0.69096   0.52928   0.00000  Uiso   1.00
C960   C     0.80656   0.97571   0.47072   0.00000  Uiso   1.00
C961   C     0.72230   0.82335   0.38398   0.00000  Uiso   1.00
C962   C     0.94437   0.84332   0.61603   0.00000  Uiso   1.00
C963   C     0.95090   0.73401   0.43563   0.00000  Uiso   1.00
C964   C     0.91254   0.83289   0.49978   0.00000  Uiso   1.00
C965   C     0.71576   0.93267   0.56435   0.00000  Uiso   1.00
C966   C     0.83346   0.83337   0.40687   0.00000  Uiso   1.00
C967   C     0.83321   0.83330   0.59313   0.00000  Uiso   1.00
C968   C     0.83340   0.83338   0.35518   0.00000  Uiso   1.00
C969   C     0.83327   0.83328   0.64482   0.00000  Uiso   1.00
C970   C     0.68871   0.81069   0.46186   0.00000  Uiso   1.00
C971   C     0.97796   0.85598   0.53814   0.00000  Uiso   1.00
C972   C     0.97884   0.80770   0.46348   0.00000  Uiso   1.00
Cu973  Cu    0.83333   0.88022   0.50000   0.00000  Uiso   1.00
Cu974  Cu    0.83333   0.78645   0.50000   0.00000  Uiso   1.00
H975   H     0.78512   0.71103   0.44721   0.00000  Uiso   1.00
H976   H     0.97278   0.82905   0.63399   0.00000  Uiso   1.00
H977   H     0.92628   0.81397   0.60074   0.00000  Uiso   1.00
H978   H     0.92526   0.86139   0.64416   0.00000  Uiso   1.00
H979   H     0.96632   0.79008   0.39092   0.00000  Uiso   1.00
H980   H     0.98035   0.71422   0.43105   0.00000  Uiso   1.00
H981   H     0.92785   0.72017   0.40927   0.00000  Uiso   1.00
H982   H     0.93951   0.72794   0.47348   0.00000  Uiso   1.00
H983   H     0.70035   0.87661   0.60908   0.00000  Uiso   1.00
H984   H     0.68631   0.95246   0.56896   0.00000  Uiso   1.00
H985   H     0.72713   0.93875   0.52648   0.00000  Uiso   1.00
H986   H     0.88155   0.95564   0.55279   0.00000  Uiso   1.00
H987   H     0.73883   0.94653   0.59069   0.00000  Uiso   1.00
H988   H     0.88157   0.70922   0.55273   0.00000  Uiso   1.00
H989   H     0.78509   0.95745   0.44727   0.00000  Uiso   1.00
H990   H     0.70039   0.75973   0.40860   0.00000  Uiso   1.00
H991   H     0.69390   0.83759   0.36601   0.00000  Uiso   1.00
H992   H     0.74143   0.80528   0.35586   0.00000  Uiso   1.00
H993   H     0.74038   0.85270   0.39926   0.00000  Uiso   1.00
H994   H     0.96628   0.90694   0.59141   0.00000  Uiso   1.00
N995   N     0.83333   0.95069   0.50000   0.00000  Uiso   1.00
N996   N     0.83333   0.71598   0.50000   0.00000  Uiso   1.00
N997   N     0.71165   0.79055   0.42233   0.00000  Uiso   1.00
N998   N     0.95502   0.87611   0.57768   0.00000  Uiso   1.00
N999   N     0.95660   0.78344   0.42624   0.00000  Uiso   1.00
N1000  N     0.71007   0.88324   0.57376   0.00000  Uiso   1.00
O1001  O     0.77321   0.87291   0.50000   0.00000  Uiso   1.00
O1002  O     0.89345   0.79375   0.50000   0.00000  Uiso   1.00
O1003  O     0.89345   0.87291   0.50000   0.00000  Uiso   1.00
O1004  O     0.77321   0.79375   0.50000   0.00000  Uiso   1.00
O1005  O     0.83333   0.87292   0.42946   0.00000  Uiso   1.00
O1006  O     0.83333   0.79375   0.57054   0.00000  Uiso   1.00
O1007  O     0.83333   0.87292   0.57054   0.00000  Uiso   1.00
O1008  O     0.83333   0.79375   0.42946   0.00000  Uiso   1.00
C1009  C     0.08746   0.16711   0.83355   0.00000  Uiso   1.00
C1010  C     0.02116   0.19230   0.86985   0.00000  Uiso   1.00
C1011  C     0.29056   0.16496   0.83411   0.00000  Uiso   1.00
C1012  C     0.04277   0.16837   0.83255   0.00000  Uiso   1.00
C1013  C     0.13990   0.02530   0.80404   0.00000  Uiso   1.00
C1014  C     0.19343   0.30804   0.86262   0.00000  Uiso   1.00
C1015  C     0.19344   0.02429   0.86261   0.00000  Uiso   1.00
C1016  C     0.13989   0.30905   0.80406   0.00000  Uiso   1.00
C1017  C     0.05563   0.15668   0.71731   0.00000  Uiso   1.00
C1018  C     0.27770   0.17665   0.94936   0.00000  Uiso   1.00
C1019  C     0.28423   0.06735   0.76897   0.00000  Uiso   1.00
C1020  C     0.24587   0.16622   0.83312   0.00000  Uiso   1.00
C1021  C     0.04909   0.26601   0.89768   0.00000  Uiso   1.00
C1022  C     0.16680   0.16670   0.74021   0.00000  Uiso   1.00
C1023  C     0.16654   0.16663   0.92646   0.00000  Uiso   1.00
C1024  C     0.16673   0.16672   0.68851   0.00000  Uiso   1.00
C1025  C     0.16660   0.16662   0.97815   0.00000  Uiso   1.00
C1026  C     0.02204   0.14402   0.79520   0.00000  Uiso   1.00
C1027  C     0.31129   0.18932   0.87147   0.00000  Uiso   1.00
C1028  C     0.31217   0.14103   0.79681   0.00000  Uiso   1.00
Cu1029 Cu    0.16667   0.21355   0.83333   0.00000  Uiso   1.00
Cu1030 Cu    0.16667   0.11978   0.83333   0.00000  Uiso   1.00
H1031  H     0.11845   0.04436   0.78054   0.00000  Uiso   1.00
H1032  H     0.30611   0.16239   0.96732   0.00000  Uiso   1.00
H1033  H     0.25961   0.14730   0.93408   0.00000  Uiso   1.00
H1034  H     0.25859   0.19472   0.97749   0.00000  Uiso   1.00
H1035  H     0.29965   0.12342   0.72426   0.00000  Uiso   1.00
H1036  H     0.31369   0.04755   0.76438   0.00000  Uiso   1.00
H1037  H     0.26118   0.05350   0.74261   0.00000  Uiso   1.00
H1038  H     0.27285   0.06127   0.80681   0.00000  Uiso   1.00
H1039  H     0.03369   0.20994   0.94242   0.00000  Uiso   1.00
H1040  H     0.01964   0.28580   0.90229   0.00000  Uiso   1.00
H1041  H     0.06046   0.27208   0.85982   0.00000  Uiso   1.00
H1042  H     0.21488   0.28897   0.88613   0.00000  Uiso   1.00
H1043  H     0.07217   0.27986   0.92402   0.00000  Uiso   1.00
H1044  H     0.21491   0.04255   0.88606   0.00000  Uiso   1.00
H1045  H     0.11843   0.29078   0.78061   0.00000  Uiso   1.00
H1046  H     0.03372   0.09306   0.74193   0.00000  Uiso   1.00
H1047  H     0.02723   0.17093   0.69935   0.00000  Uiso   1.00
H1048  H     0.07476   0.13861   0.68919   0.00000  Uiso   1.00
H1049  H     0.07372   0.18603   0.73259   0.00000  Uiso   1.00
H1050  H     0.29961   0.24028   0.92474   0.00000  Uiso   1.00
N1051  N     0.16667   0.28402   0.83333   0.00000  Uiso   1.00
N1052  N     0.16667   0.04931   0.83333   0.00000  Uiso   1.00
N1053  N     0.04498   0.12389   0.75566   0.00000  Uiso   1.00
N1054  N     0.28835   0.20945   0.91101   0.00000  Uiso   1.00
N1055  N     0.28993   0.11677   0.75957   0.00000  Uiso   1.00
N1056  N     0.04340   0.21658   0.90709   0.00000  Uiso   1.00
O1057  O     0.10655   0.20625   0.83333   0.00000  Uiso   1.00
O1058  O     0.22679   0.12709   0.83334   0.00000  Uiso   1.00
O1059  O     0.22679   0.20625   0.83334   0.00000  Uiso   1.00
O1060  O     0.10655   0.12709   0.83333   0.00000  Uiso   1.00
O1061  O     0.16667   0.20625   0.76280   0.00000  Uiso   1.00
O1062  O     0.16667   0.12708   0.90387   0.00000  Uiso   1.00
O1063  O     0.16667   0.20625   0.90387   0.00000  Uiso   1.00
O1064  O     0.16667   0.12708   0.76280   0.00000  Uiso   1.00
C1065  C     0.42079   0.16711   0.83355   0.00000  Uiso   1.00
C1066  C     0.35449   0.19230   0.86985   0.00000  Uiso   1.00
C1067  C     0.62389   0.16496   0.83411   0.00000  Uiso   1.00
C1068  C     0.37611   0.16837   0.83255   0.00000  Uiso   1.00
C1069  C     0.47323   0.02530   0.80404   0.00000  Uiso   1.00
C1070  C     0.52677   0.30804   0.86262   0.00000  Uiso   1.00
C1071  C     0.52677   0.02429   0.86261   0.00000  Uiso   1.00
C1072  C     0.47323   0.30905   0.80406   0.00000  Uiso   1.00
C1073  C     0.38897   0.15668   0.71731   0.00000  Uiso   1.00
C1074  C     0.61104   0.17665   0.94936   0.00000  Uiso   1.00
C1075  C     0.61757   0.06735   0.76897   0.00000  Uiso   1.00
C1076  C     0.57921   0.16622   0.83312   0.00000  Uiso   1.00
C1077  C     0.38243   0.26601   0.89768   0.00000  Uiso   1.00
C1078  C     0.50013   0.16670   0.74021   0.00000  Uiso   1.00
C1079  C     0.49987   0.16663   0.92646   0.00000  Uiso   1.00
C1080  C     0.50006   0.16672   0.68851   0.00000  Uiso   1.00
C1081  C     0.49994   0.16662   0.97815   0.00000  Uiso   1.00
C1082  C     0.35537   0.14402   0.79520   0.00000  Uiso   1.00
C1083  C     0.64463   0.18932   0.87147   0.00000  Uiso   1.00
C1084  C     0.64551   0.14103   0.79681   0.00000  Uiso   1.00
Cu1085 Cu    0.50000   0.21355   0.83333   0.00000  Uiso   1.00
Cu1086 Cu    0.50000   0.11978   0.83333   0.00000  Uiso   1.00
H1087  H     0.45179   0.04436   0.78054   0.00000  Uiso   1.00
H1088  H     0.63944   0.16239   0.96732   0.00000  Uiso   1.00
H1089  H     0.59295   0.14730   0.93408   0.00000  Uiso   1.00
H1090  H     0.59192   0.19472   0.97749   0.00000  Uiso   1.00
H1091  H     0.63298   0.12342   0.72426   0.00000  Uiso   1.00
H1092  H     0.64702   0.04755   0.76438   0.00000  Uiso   1.00
H1093  H     0.59451   0.05350   0.74261   0.00000  Uiso   1.00
H1094  H     0.60618   0.06127   0.80681   0.00000  Uiso   1.00
H1095  H     0.36702   0.20994   0.94242   0.00000  Uiso   1.00
H1096  H     0.35298   0.28580   0.90229   0.00000  Uiso   1.00
H1097  H     0.39379   0.27208   0.85982   0.00000  Uiso   1.00
H1098  H     0.54821   0.28897   0.88613   0.00000  Uiso   1.00
H1099  H     0.40550   0.27986   0.92402   0.00000  Uiso   1.00
H1100  H     0.54824   0.04255   0.88606   0.00000  Uiso   1.00
H1101  H     0.45176   0.29078   0.78061   0.00000  Uiso   1.00
H1102  H     0.36706   0.09306   0.74193   0.00000  Uiso   1.00
H1103  H     0.36056   0.17093   0.69935   0.00000  Uiso   1.00
H1104  H     0.40809   0.13861   0.68919   0.00000  Uiso   1.00
H1105  H     0.40705   0.18603   0.73259   0.00000  Uiso   1.00
H1106  H     0.63294   0.24028   0.92474   0.00000  Uiso   1.00
N1107  N     0.50000   0.28402   0.83333   0.00000  Uiso   1.00
N1108  N     0.50000   0.04931   0.83333   0.00000  Uiso   1.00
N1109  N     0.37832   0.12389   0.75566   0.00000  Uiso   1.00
N1110  N     0.62168   0.20945   0.91101   0.00000  Uiso   1.00
N1111  N     0.62327   0.11677   0.75957   0.00000  Uiso   1.00
N1112  N     0.37673   0.21658   0.90709   0.00000  Uiso   1.00
O1113  O     0.43988   0.20625   0.83333   0.00000  Uiso   1.00
O1114  O     0.56012   0.12709   0.83334   0.00000  Uiso   1.00
O1115  O     0.56012   0.20625   0.83334   0.00000  Uiso   1.00
O1116  O     0.43988   0.12709   0.83333   0.00000  Uiso   1.00
O1117  O     0.50000   0.20625   0.76280   0.00000  Uiso   1.00
O1118  O     0.50000   0.12708   0.90387   0.00000  Uiso   1.00
O1119  O     0.50000   0.20625   0.90387   0.00000  Uiso   1.00
O1120  O     0.50000   0.12708   0.76280   0.00000  Uiso   1.00
C1121  C     0.75413   0.16711   0.83355   0.00000  Uiso   1.00
C1122  C     0.68783   0.19230   0.86985   0.00000  Uiso   1.00
C1123  C     0.95723   0.16496   0.83411   0.00000  Uiso   1.00
C1124  C     0.70944   0.16837   0.83255   0.00000  Uiso   1.00
C1125  C     0.80657   0.02530   0.80404   0.00000  Uiso   1.00
C1126  C     0.86010   0.30804   0.86262   0.00000  Uiso   1.00
C1127  C     0.86011   0.02429   0.86261   0.00000  Uiso   1.00
C1128  C     0.80656   0.30905   0.80406   0.00000  Uiso   1.00
C1129  C     0.72230   0.15668   0.71731   0.00000  Uiso   1.00
C1130  C     0.94437   0.17665   0.94936   0.00000  Uiso   1.00
C1131  C     0.95090   0.06735   0.76897   0.00000  Uiso   1.00
C1132  C     0.91254   0.16622   0.83312   0.00000  Uiso   1.00
C1133  C     0.71576   0.26601   0.89768   0.00000  Uiso   1.00
C1134  C     0.83346   0.16670   0.74021   0.00000  Uiso   1.00
C1135  C     0.83321   0.16663   0.92646   0.00000  Uiso   1.00
C1136  C     0.83340   0.16672   0.68851   0.00000  Uiso   1.00
C1137  C     0.83327   0.16662   0.97815   0.00000  Uiso   1.00
C1138  C     0.68871   0.14402   0.79520   0.00000  Uiso   1.00
C1139  C     0.97796   0.18932   0.87147   0.00000  Uiso   1.00
C1140  C     0.97884   0.14103   0.79681   0.00000  Uiso   1.00
Cu1141 Cu    0.83333   0.21355   0.83333   0.00000  Uiso   1.00
Cu1142 Cu    0.83333   0.11978   0.83333   0.00000  Uiso   1.00
H1143  H     0.78512   0.04436   0.78054   0.00000  Uiso   1.00
H1144  H     0.97278   0.16239   0.96732   0.00000  Uiso   1.00
H1145  H     0.92628   0.14730   0.93408   0.00000  Uiso   1.00
H1146  H     0.92526   0.19472   0.97749   0.00000  Uiso   1.00
H1147  H     0.96632   0.12342   0.72426   0.00000  Uiso   1.00
H1148  H     0.98035   0.04755   0.76438   0.00000  Uiso   1.00
H1149  H     0.92785   0.05350   0.74261   0.00000  Uiso   1.00
H1150  H     0.93951   0.06127   0.80681   0.00000  Uiso   1.00
H1151  H     0.70035   0.20994   0.94242   0.00000  Uiso   1.00
H1152  H     0.68631   0.28580   0.90229   0.00000  Uiso   1.00
H1153  H     0.72713   0.27208   0.85982   0.00000  Uiso   1.00
H1154  H     0.88155   0.28897   0.88613   0.00000  Uiso   1.00
H1155  H     0.73883   0.27986   0.92402   0.00000  Uiso   1.00
H1156  H     0.88157   0.04255   0.88606   0.00000  Uiso   1.00
H1157  H     0.78509   0.29078   0.78061   0.00000  Uiso   1.00
H1158  H     0.70039   0.09306   0.74193   0.00000  Uiso   1.00
H1159  H     0.69390   0.17093   0.69935   0.00000  Uiso   1.00
H1160  H     0.74143   0.13861   0.68919   0.00000  Uiso   1.00
H1161  H     0.74038   0.18603   0.73259   0.00000  Uiso   1.00
H1162  H     0.96628   0.24028   0.92474   0.00000  Uiso   1.00
N1163  N     0.83333   0.28402   0.83333   0.00000  Uiso   1.00
N1164  N     0.83333   0.04931   0.83333   0.00000  Uiso   1.00
N1165  N     0.71165   0.12389   0.75566   0.00000  Uiso   1.00
N1166  N     0.95502   0.20945   0.91101   0.00000  Uiso   1.00
N1167  N     0.95660   0.11677   0.75957   0.00000  Uiso   1.00
N1168  N     0.71007   0.21658   0.90709   0.00000  Uiso   1.00
O1169  O     0.77321   0.20625   0.83333   0.00000  Uiso   1.00
O1170  O     0.89345   0.12709   0.83334   0.00000  Uiso   1.00
O1171  O     0.89345   0.20625   0.83334   0.00000  Uiso   1.00
O1172  O     0.77321   0.12709   0.83333   0.00000  Uiso   1.00
O1173  O     0.83333   0.20625   0.76280   0.00000  Uiso   1.00
O1174  O     0.83333   0.12708   0.90387   0.00000  Uiso   1.00
O1175  O     0.83333   0.20625   0.90387   0.00000  Uiso   1.00
O1176  O     0.83333   0.12708   0.76280   0.00000  Uiso   1.00
C1177  C     0.08746   0.50045   0.83355   0.00000  Uiso   1.00
C1178  C     0.02116   0.52564   0.86985   0.00000  Uiso   1.00
C1179  C     0.29056   0.49829   0.83411   0.00000  Uiso   1.00
C1180  C     0.04277   0.50171   0.83255   0.00000  Uiso   1.00
C1181  C     0.13990   0.35863   0.80404   0.00000  Uiso   1.00
C1182  C     0.19343   0.64137   0.86262   0.00000  Uiso   1.00
C1183  C     0.19344   0.35762   0.86261   0.00000  Uiso   1.00
C1184  C     0.13989   0.64238   0.80406   0.00000  Uiso   1.00
C1185  C     0.05563   0.49001   0.71731   0.00000  Uiso   1.00
C1186  C     0.27770   0.50998   0.94936   0.00000  Uiso   1.00
C1187  C     0.28423   0.40068   0.76897   0.00000  Uiso   1.00
C1188  C     0.24587   0.49955   0.83312   0.00000  Uiso   1.00
C1189  C     0.04909   0.59934   0.89768   0.00000  Uiso   1.00
C1190  C     0.16680   0.50003   0.74021   0.00000  Uiso   1.00
C1191  C     0.16654   0.49997   0.92646   0.00000  Uiso   1.00
C1192  C     0.16673   0.50005   0.68851   0.00000  Uiso   1.00
C1193  C     0.16660   0.49995   0.97815   0.00000  Uiso   1.00
C1194  C     0.02204   0.47735   0.79520   0.00000  Uiso   1.00
C1195  C     0.31129   0.52265   0.87147   0.00000  Uiso   1.00
C1196  C     0.31217   0.47437   0.79681   0.00000  Uiso   1.00
Cu1197 Cu    0.16667   0.54689   0.83333   0.00000  Uiso   1.00
Cu1198 Cu    0.16667   0.45311   0.83333   0.00000  Uiso   1.00
H1199  H     0.11845   0.37769   0.78054   0.00000  Uiso   1.00
H1200  H     0.30611   0.49572   0.96732   0.00000  Uiso   1.00
H1201  H     0.25961   0.48063   0.93408   0.00000  Uiso   1.00
H1202  H     0.25859   0.52805   0.97749   0.00000  Uiso   1.00
H1203  H     0.29965   0.45675   0.72426   0.00000  Uiso   1.00
H1204  H     0.31369   0.38088   0.76438   0.00000  Uiso   1.00
H1205  H     0.26118   0.38684   0.74261   0.00000  Uiso   1.00
H1206  H     0.27285   0.39460   0.80681   0.00000  Uiso   1.00
H1207  H     0.03369   0.54327   0.94242   0.00000  Uiso   1.00
H1208  H     0.01964   0.61913   0.90229   0.00000  Uiso   1.00
H1209  H     0.06046   0.60542   0.85982   0.00000  Uiso   1.00
H1210  H     0.21488   0.62231   0.88613   0.00000  Uiso   1.00
H1211  H     0.07217   0.61320   0.92402   0.00000  Uiso   1.00
H1212  H     0.21491   0.37589   0.88606   0.00000  Uiso   1.00
H1213  H     0.11843   0.62411   0.78061   0.00000  Uiso   1.00
H1214  H     0.03372   0.42640   0.74193   0.00000  Uiso   1.00
H1215  H     0.02723   0.50426   0.69935   0.00000  Uiso   1.00
H1216  H     0.07476   0.47195   0.68919   0.00000  Uiso   1.00
H1217  H     0.07372   0.51937   0.73259   0.00000  Uiso   1.00
H1218  H     0.29961   0.57361   0.92474   0.00000  Uiso   1.00
N1219  N     0.16667   0.61736   0.83333   0.00000  Uiso   1.00
N1220  N     0.16667   0.38264   0.83333   0.00000  Uiso   1.00
N1221  N     0.04498   0.45722   0.75566   0.00000  Uiso   1.00
N1222  N     0.28835   0.54278   0.91101   0.00000  Uiso   1.00
N1223  N     0.28993   0.45010   0.75957   0.00000  Uiso   1.00
N1224  N     0.04340   0.54991   0.90709   0.00000  Uiso   1.00
O1225  O     0.10655   0.53958   0.83333   0.00000  Uiso   1.00
O1226  O     0.22679   0.46042   0.83334   0.00000  Uiso   1.00
O1227  O     0.22679   0.53958   0.83334   0.00000  Uiso   1.00
O1228  O     0.10655   0.46042   0.83333   0.00000  Uiso   1.00
O1229  O     0.16667   0.53959   0.76280   0.00000  Uiso   1.00
O1230  O     0.16667   0.46041   0.90387   0.00000  Uiso   1.00
O1231  O     0.16667   0.53959   0.90387   0.00000  Uiso   1.00
O1232  O     0.16667   0.46041   0.76280   0.00000  Uiso   1.00
C1233  C     0.42079   0.50045   0.83355   0.00000  Uiso   1.00
C1234  C     0.35449   0.52564   0.86985   0.00000  Uiso   1.00
C1235  C     0.62389   0.49829   0.83411   0.00000  Uiso   1.00
C1236  C     0.37611   0.50171   0.83255   0.00000  Uiso   1.00
C1237  C     0.47323   0.35863   0.80404   0.00000  Uiso   1.00
C1238  C     0.52677   0.64137   0.86262   0.00000  Uiso   1.00
C1239  C     0.52677   0.35762   0.86261   0.00000  Uiso   1.00
C1240  C     0.47323   0.64238   0.80406   0.00000  Uiso   1.00
C1241  C     0.38897   0.49001   0.71731   0.00000  Uiso   1.00
C1242  C     0.61104   0.50998   0.94936   0.00000  Uiso   1.00
C1243  C     0.61757   0.40068   0.76897   0.00000  Uiso   1.00
C1244  C     0.57921   0.49955   0.83312   0.00000  Uiso   1.00
C1245  C     0.38243   0.59934   0.89768   0.00000  Uiso   1.00
C1246  C     0.50013   0.50003   0.74021   0.00000  Uiso   1.00
C1247  C     0.49987   0.49997   0.92646   0.00000  Uiso   1.00
C1248  C     0.50006   0.50005   0.68851   0.00000  Uiso   1.00
C1249  C     0.49994   0.49995   0.97815   0.00000  Uiso   1.00
C1250  C     0.35537   0.47735   0.79520   0.00000  Uiso   1.00
C1251  C     0.64463   0.52265   0.87147   0.00000  Uiso   1.00
C1252  C     0.64551   0.47437   0.79681   0.00000  Uiso   1.00
Cu1253 Cu    0.50000   0.54689   0.83333   0.00000  Uiso   1.00
Cu1254 Cu    0.50000   0.45311   0.83333   0.00000  Uiso   1.00
H1255  H     0.45179   0.37769   0.78054   0.00000  Uiso   1.00
H1256  H     0.63944   0.49572   0.96732   0.00000  Uiso   1.00
H1257  H     0.59295   0.48063   0.93408   0.00000  Uiso   1.00
H1258  H     0.59192   0.52805   0.97749   0.00000  Uiso   1.00
H1259  H     0.63298   0.45675   0.72426   0.00000  Uiso   1.00
H1260  H     0.64702   0.38088   0.76438   0.00000  Uiso   1.00
H1261  H     0.59451   0.38684   0.74261   0.00000  Uiso   1.00
H1262  H     0.60618   0.39460   0.80681   0.00000  Uiso   1.00
H1263  H     0.36702   0.54327   0.94242   0.00000  Uiso   1.00
H1264  H     0.35298   0.61913   0.90229   0.00000  Uiso   1.00
H1265  H     0.39379   0.60542   0.85982   0.00000  Uiso   1.00
H1266  H     0.54821   0.62231   0.88613   0.00000  Uiso   1.00
H1267  H     0.40550   0.61320   0.92402   0.00000  Uiso   1.00
H1268  H     0.54824   0.37589   0.88606   0.00000  Uiso   1.00
H1269  H     0.45176   0.62411   0.78061   0.00000  Uiso   1.00
H1270  H     0.36706   0.42640   0.74193   0.00000  Uiso   1.00
H1271  H     0.36056   0.50426   0.69935   0.00000  Uiso   1.00
H1272  H     0.40809   0.47195   0.68919   0.00000  Uiso   1.00
H1273  H     0.40705   0.51937   0.73259   0.00000  Uiso   1.00
H1274  H     0.63294   0.57361   0.92474   0.00000  Uiso   1.00
N1275  N     0.50000   0.61736   0.83333   0.00000  Uiso   1.00
N1276  N     0.50000   0.38264   0.83333   0.00000  Uiso   1.00
N1277  N     0.37832   0.45722   0.75566   0.00000  Uiso   1.00
N1278  N     0.62168   0.54278   0.91101   0.00000  Uiso   1.00
N1279  N     0.62327   0.45010   0.75957   0.00000  Uiso   1.00
N1280  N     0.37673   0.54991   0.90709   0.00000  Uiso   1.00
O1281  O     0.43988   0.53958   0.83333   0.00000  Uiso   1.00
O1282  O     0.56012   0.46042   0.83334   0.00000  Uiso   1.00
O1283  O     0.56012   0.53958   0.83334   0.00000  Uiso   1.00
O1284  O     0.43988   0.46042   0.83333   0.00000  Uiso   1.00
O1285  O     0.50000   0.53959   0.76280   0.00000  Uiso   1.00
O1286  O     0.50000   0.46041   0.90387   0.00000  Uiso   1.00
O1287  O     0.50000   0.53959   0.90387   0.00000  Uiso   1.00
O1288  O     0.50000   0.46041   0.76280   0.00000  Uiso   1.00
C1289  C     0.75413   0.50045   0.83355   0.00000  Uiso   1.00
C1290  C     0.68783   0.52564   0.86985   0.00000  Uiso   1.00
C1291  C     0.95723   0.49829   0.83411   0.00000  Uiso   1.00
C1292  C     0.70944   0.50171   0.83255   0.00000  Uiso   1.00
C1293  C     0.80657   0.35863   0.80404   0.00000  Uiso   1.00
C1294  C     0.86010   0.64137   0.86262   0.00000  Uiso   1.00
C1295  C     0.86011   0.35762   0.86261   0.00000  Uiso   1.00
C1296  C     0.80656   0.64238   0.80406   0.00000  Uiso   1.00
C1297  C     0.72230   0.49001   0.71731   0.00000  Uiso   1.00
C1298  C     0.94437   0.50998   0.94936   0.00000  Uiso   1.00
C1299  C     0.95090   0.40068   0.76897   0.00000  Uiso   1.00
C1300  C     0.91254   0.49955   0.83312   0.00000  Uiso   1.00
C1301  C     0.71576   0.59934   0.89768   0.00000  Uiso   1.00
C1302  C     0.83346   0.50003   0.74021   0.00000  Uiso   1.00
C1303  C     0.83321   0.49997   0.92646   0.00000  Uiso   1.00
C1304  C     0.83340   0.50005   0.68851   0.00000  Uiso   1.00
C1305  C     0.83327   0.49995   0.97815   0.00000  Uiso   1.00
C1306  C     0.68871   0.47735   0.79520   0.00000  Uiso   1.00
C1307  C     0.97796   0.52265   0.87147   0.00000  Uiso   1.00
C1308  C     0.97884   0.47437   0.79681   0.00000  Uiso   1.00
Cu1309 Cu    0.83333   0.54689   0.83333   0.00000  Uiso   1.00
Cu1310 Cu    0.83333   0.45311   0.83333   0.00000  Uiso   1.00
H1311  H     0.78512   0.37769   0.78054   0.00000  Uiso   1.00
H1312  H     0.97278   0.49572   0.96732   0.00000  Uiso   1.00
H1313  H     0.92628   0.48063   0.93408   0.00000  Uiso   1.00
H1314  H     0.92526   0.52805   0.97749   0.00000  Uiso   1.00
H1315  H     0.96632   0.45675   0.72426   0.00000  Uiso   1.00
H1316  H     0.98035   0.38088   0.76438   0.00000  Uiso   1.00
H1317  H     0.92785   0.38684   0.74261   0.00000  Uiso   1.00
H1318  H     0.93951   0.39460   0.80681   0.00000  Uiso   1.00
H1319  H     0.70035   0.54327   0.94242   0.00000  Uiso   1.00
H1320  H     0.68631   0.61913   0.90229   0.00000  Uiso   1.00
H1321  H     0.72713   0.60542   0.85982   0.00000  Uiso   1.00
H1322  H     0.88155   0.62231   0.88613   0.00000  Uiso   1.00
H1323  H     0.73883   0.61320   0.92402   0.00000  Uiso   1.00
H1324  H     0.88157   0.37589   0.88606   0.00000  Uiso   1.00
H1325  H     0.78509   0.62411   0.78061   0.00000  Uiso   1.00
H1326  H     0.70039   0.42640   0.74193   0.00000  Uiso   1.00
H1327  H     0.69390   0.50426   0.69935   0.00000  Uiso   1.00
H1328  H     0.74143   0.47195   0.68919   0.00000  Uiso   1.00
H1329  H     0.74038   0.51937   0.73259   0.00000  Uiso   1.00
H1330  H     0.96628   0.57361   0.92474   0.00000  Uiso   1.00
N1331  N     0.83333   0.61736   0.83333   0.00000  Uiso   1.00
N1332  N     0.83333   0.38264   0.83333   0.00000  Uiso   1.00
N1333  N     0.71165   0.45722   0.75566   0.00000  Uiso   1.00
N1334  N     0.95502   0.54278   0.91101   0.00000  Uiso   1.00
N1335  N     0.95660   0.45010   0.75957   0.00000  Uiso   1.00
N1336  N     0.71007   0.54991   0.90709   0.00000  Uiso   1.00
O1337  O     0.77321   0.53958   0.83333   0.00000  Uiso   1.00
O1338  O     0.89345   0.46042   0.83334   0.00000  Uiso   1.00
O1339  O     0.89345   0.53958   0.83334   0.00000  Uiso   1.00
O1340  O     0.77321   0.46042   0.83333   0.00000  Uiso   1.00
O1341  O     0.83333   0.53959   0.76280   0.00000  Uiso   1.00
O1342  O     0.83333   0.46041   0.90387   0.00000  Uiso   1.00
O1343  O     0.83333   0.53959   0.90387   0.00000  Uiso   1.00
O1344  O     0.83333   0.46041   0.76280   0.00000  Uiso   1.00
C1345  C     0.08746   0.83378   0.83355   0.00000  Uiso   1.00
C1346  C     0.02116   0.85897   0.86985   0.00000  Uiso   1.00
C1347  C     0.29056   0.83163   0.83411   0.00000  Uiso   1.00
C1348  C     0.04277   0.83504   0.83255   0.00000  Uiso   1.00
C1349  C     0.13990   0.69196   0.80404   0.00000  Uiso   1.00
C1350  C     0.19343   0.97470   0.86262   0.00000  Uiso   1.00
C1351  C     0.19344   0.69096   0.86261   0.00000  Uiso   1.00
C1352  C     0.13989   0.97571   0.80406   0.00000  Uiso   1.00
C1353  C     0.05563   0.82335   0.71731   0.00000  Uiso   1.00
C1354  C     0.27770   0.84332   0.94936   0.00000  Uiso   1.00
C1355  C     0.28423   0.73401   0.76897   0.00000  Uiso   1.00
C1356  C     0.24587   0.83289   0.83312   0.00000  Uiso   1.00
C1357  C     0.04909   0.93267   0.89768   0.00000  Uiso   1.00
C1358  C     0.16680   0.83337   0.74021   0.00000  Uiso   1.00
C1359  C     0.16654   0.83330   0.92646   0.00000  Uiso   1.00
C1360  C     0.16673   0.83338   0.68851   0.00000  Uiso   1.00
C1361  C     0.16660   0.83328   0.97815   0.00000  Uiso   1.00
C1362  C     0.02204   0.81069   0.79520   0.00000  Uiso   1.00
C1363  C     0.31129   0.85598   0.87147   0.00000  Uiso   1.00
C1364  C     0.31217   0.80770   0.79681   0.00000  Uiso   1.00
Cu1365 Cu    0.16667   0.88022   0.83333   0.00000  Uiso   1.00
Cu1366 Cu    0.16667   0.78645   0.83333   0.00000  Uiso   1.00
H1367  H     0.11845   0.71103   0.78054   0.00000  Uiso   1.00
H1368  H     0.30611   0.82905   0.96732   0.00000  Uiso   1.00
H1369  H     0.25961   0.81397   0.93408   0.00000  Uiso   1.00
H1370  H     0.25859   0.86139   0.97749   0.00000  Uiso   1.00
H1371  H     0.29965   0.79008   0.72426   0.00000  Uiso   1.00
H1372  H     0.31369   0.71422   0.76438   0.00000  Uiso   1.00
H1373  H     0.26118   0.72017   0.74261   0.00000  Uiso   1.00
H1374  H     0.27285   0.72794   0.80681   0.00000  Uiso   1.00
H1375  H     0.03369   0.87661   0.94242   0.00000  Uiso   1.00
H1376  H     0.01964   0.95246   0.90229   0.00000  Uiso   1.00
H1377  H     0.06046   0.93875   0.85982   0.00000  Uiso   1.00
H1378  H     0.21488   0.95564   0.88613   0.00000  Uiso   1.00
H1379  H     0.07217   0.94653   0.92402   0.00000  Uiso   1.00
H1380  H     0.21491   0.70922   0.88606   0.00000  Uiso   1.00
H1381  H     0.11843   0.95745   0.78061   0.00000  Uiso   1.00
H1382  H     0.03372   0.75973   0.74193   0.00000  Uiso   1.00
H1383  H     0.02723   0.83759   0.69935   0.00000  Uiso   1.00
H1384  H     0.07476   0.80528   0.68919   0.00000  Uiso   1.00
H1385  H     0.07372   0.85270   0.73259   0.00000  Uiso   1.00
H1386  H     0.29961   0.90694   0.92474   0.00000  Uiso   1.00
N1387  N     0.16667   0.95069   0.83333   0.00000  Uiso   1.00
N1388  N     0.16667   0.71598   0.83333   0.00000  Uiso   1.00
N1389  N     0.04498   0.79055   0.75566   0.00000  Uiso   1.00
N1390  N     0.28835   0.87611   0.91101   0.00000  Uiso   1.00
N1391  N     0.28993   0.78344   0.75957   0.00000  Uiso   1.00
N1392  N     0.04340   0.88324   0.90709   0.00000  Uiso   1.00
O1393  O     0.10655   0.87291   0.83333   0.00000  Uiso   1.00
O1394  O     0.22679   0.79375   0.83334   0.00000  Uiso   1.00
O1395  O     0.22679   0.87291   0.83334   0.00000  Uiso   1.00
O1396  O     0.10655   0.79375   0.83333   0.00000  Uiso   1.00
O1397  O     0.16667   0.87292   0.76280   0.00000  Uiso   1.00
O1398  O     0.16667   0.79375   0.90387   0.00000  Uiso   1.00
O1399  O     0.16667   0.87292   0.90387   0.00000  Uiso   1.00
O1400  O     0.16667   0.79375   0.76280   0.00000  Uiso   1.00
C1401  C     0.42079   0.83378   0.83355   0.00000  Uiso   1.00
C1402  C     0.35449   0.85897   0.86985   0.00000  Uiso   1.00
C1403  C     0.62389   0.83163   0.83411   0.00000  Uiso   1.00
C1404  C     0.37611   0.83504   0.83255   0.00000  Uiso   1.00
C1405  C     0.47323   0.69196   0.80404   0.00000  Uiso   1.00
C1406  C     0.52677   0.97470   0.86262   0.00000  Uiso   1.00
C1407  C     0.52677   0.69096   0.86261   0.00000  Uiso   1.00
C1408  C     0.47323   0.97571   0.80406   0.00000  Uiso   1.00
C1409  C     0.38897   0.82335   0.71731   0.00000  Uiso   1.00
C1410  C     0.61104   0.84332   0.94936   0.00000  Uiso   1.00
C1411  C     0.61757   0.73401   0.76897   0.00000  Uiso   1.00
C1412  C     0.57921   0.83289   0.83312   0.00000  Uiso   1.00
C1413  C     0.38243   0.93267   0.89768   0.00000  Uiso   1.00
C1414  C     0.50013   0.83337   0.74021   0.00000  Uiso   1.00
C1415  C     0.49987   0.83330   0.92646   0.00000  Uiso   1.00
C1416  C     0.50006   0.83338   0.68851   0.00000  Uiso   1.00
C1417  C     0.49994   0.83328   0.97815   0.00000  Uiso   1.00
C1418  C     0.35537   0.81069   0.79520   0.00000  Uiso   1.00
C1419  C     0.64463   0.85598   0.87147   0.00000  Uiso   1.00
C1420  C     0.64551   0.80770   0.79681   0.00000  Uiso   1.00
Cu1421 Cu    0.50000   0.88022   0.83333   0.00000  Uiso   1.00
Cu1422 Cu    0.50000   0.78645   0.83333   0.00000  Uiso   1.00
H1423  H     0.45179   0.71103   0.78054   0.00000  Uiso   1.00
H1424  H     0.63944   0.82905   0.96732   0.00000  Uiso   1.00
H1425  H     0.59295   0.81397   0.93408   0.00000  Uiso   1.00
H1426  H     0.59192   0.86139   0.97749   0.00000  Uiso   1.00
H1427  H     0.63298   0.79008   0.72426   0.00000  Uiso   1.00
H1428  H     0.64702   0.71422   0.76438   0.00000  Uiso   1.00
H1429  H     0.59451   0.72017   0.74261   0.00000  Uiso   1.00
H1430  H     0.60618   0.72794   0.80681   0.00000  Uiso   1.00
H1431  H     0.36702   0.87661   0.94242   0.00000  Uiso   1.00
H1432  H     0.35298   0.95246   0.90229   0.00000  Uiso   1.00
H1433  H     0.39379   0.93875   0.85982   0.00000  Uiso   1.00
H1434  H     0.54821   0.95564   0.88613   0.00000  Uiso   1.00
H1435  H     0.40550   0.94653   0.92402   0.00000  Uiso   1.00
H1436  H     0.54824   0.70922   0.88606   0.00000  Uiso   1.00
H1437  H     0.45176   0.95745   0.78061   0.00000  Uiso   1.00
H1438  H     0.36706   0.75973   0.74193   0.00000  Uiso   1.00
H1439  H     0.36056   0.83759   0.69935   0.00000  Uiso   1.00
H1440  H     0.40809   0.80528   0.68919   0.00000  Uiso   1.00
H1441  H     0.40705   0.85270   0.73259   0.00000  Uiso   1.00
H1442  H     0.63294   0.90694   0.92474   0.00000  Uiso   1.00
N1443  N     0.50000   0.95069   0.83333   0.00000  Uiso   1.00
N1444  N     0.50000   0.71598   0.83333   0.00000  Uiso   1.00
N1445  N     0.37832   0.79055   0.75566   0.00000  Uiso   1.00
N1446  N     0.62168   0.87611   0.91101   0.00000  Uiso   1.00
N1447  N     0.62327   0.78344   0.75957   0.00000  Uiso   1.00
N1448  N     0.37673   0.88324   0.90709   0.00000  Uiso   1.00
O1449  O     0.43988   0.87291   0.83333   0.00000  Uiso   1.00
O1450  O     0.56012   0.79375   0.83334   0.00000  Uiso   1.00
O1451  O     0.56012   0.87291   0.83334   0.00000  Uiso   1.00
O1452  O     0.43988   0.79375   0.83333   0.00000  Uiso   1.00
O1453  O     0.50000   0.87292   0.76280   0.00000  Uiso   1.00
O1454  O     0.50000   0.79375   0.90387   0.00000  Uiso   1.00
O1455  O     0.50000   0.87292   0.90387   0.00000  Uiso   1.00
O1456  O     0.50000   0.79375   0.76280   0.00000  Uiso   1.00
C1457  C     0.75413   0.83378   0.83355   0.00000  Uiso   1.00
C1458  C     0.68783   0.85897   0.86985   0.00000  Uiso   1.00
C1459  C     0.95723   0.83163   0.83411   0.00000  Uiso   1.00
C1460  C     0.70944   0.83504   0.83255   0.00000  Uiso   1.00
C1461  C     0.80657   0.69196   0.80404   0.00000  Uiso   1.00
C1462  C     0.86010   0.97470   0.86262   0.00000  Uiso   1.00
C1463  C     0.86011   0.69096   0.86261   0.00000  Uiso   1.00
C1464  C     0.80656   0.97571   0.80406   0.00000  Uiso   1.00
C1465  C     0.72230   0.82335   0.71731   0.00000  Uiso   1.00
C1466  C     0.94437   0.84332   0.94936   0.00000  Uiso   1.00
C1467  C     0.95090   0.73401   0.76897   0.00000  Uiso   1.00
C1468  C     0.91254   0.83289   0.83312   0.00000  Uiso   1.00
C1469  C     0.71576   0.93267   0.89768   0.00000  Uiso   1.00
C1470  C     0.83346   0.83337   0.74021   0.00000  Uiso   1.00
C1471  C     0.83321   0.83330   0.92646   0.00000  Uiso   1.00
C1472  C     0.83340   0.83338   0.68851   0.00000  Uiso   1.00
C1473  C     0.83327   0.83328   0.97815   0.00000  Uiso   1.00
C1474  C     0.68871   0.81069   0.79520   0.00000  Uiso   1.00
C1475  C     0.97796   0.85598   0.87147   0.00000  Uiso   1.00
C1476  C     0.97884   0.80770   0.79681   0.00000  Uiso   1.00
Cu1477 Cu    0.83333   0.88022   0.83333   0.00000  Uiso   1.00
Cu1478 Cu    0.83333   0.78645   0.83333   0.00000  Uiso   1.00
H1479  H     0.78512   0.71103   0.78054   0.00000  Uiso   1.00
H1480  H     0.97278   0.82905   0.96732   0.00000  Uiso   1.00
H1481  H     0.92628   0.81397   0.93408   0.00000  Uiso   1.00
H1482  H     0.92526   0.86139   0.97749   0.00000  Uiso   1.00
H1483  H     0.96632   0.79008   0.72426   0.00000  Uiso   1.00
H1484  H     0.98035   0.71422   0.76438   0.00000  Uiso   1.00
H1485  H     0.92785   0.72017   0.74261   0.00000  Uiso   1.00
H1486  H     0.93951   0.72794   0.80681   0.00000  Uiso   1.00
H1487  H     0.70035   0.87661   0.94242   0.00000  Uiso   1.00
H1488  H     0.68631   0.95246   0.90229   0.00000  Uiso   1.00
H1489  H     0.72713   0.93875   0.85982   0.00000  Uiso   1.00
H1490  H     0.88155   0.95564   0.88613   0.00000  Uiso   1.00
H1491  H     0.73883   0.94653   0.92402   0.00000  Uiso   1.00
H1492  H     0.88157   0.70922   0.88606   0.00000  Uiso   1.00
H1493  H     0.78509   0.95745   0.78061   0.00000  Uiso   1.00
H1494  H     0.70039   0.75973   0.74193   0.00000  Uiso   1.00
H1495  H     0.69390   0.83759   0.69935   0.00000  Uiso   1.00
H1496  H     0.74143   0.80528   0.68919   0.00000  Uiso   1.00
H1497  H     0.74038   0.85270   0.73259   0.00000  Uiso   1.00
H1498  H     0.96628   0.90694   0.92474   0.00000  Uiso   1.00
N1499  N     0.83333   0.95069   0.83333   0.00000  Uiso   1.00
N1500  N     0.83333   0.71598   0.83333   0.00000  Uiso   1.00
N1501  N     0.71165   0.79055   0.75566   0.00000  Uiso   1.00
N1502  N     0.95502   0.87611   0.91101   0.00000  Uiso   1.00
N1503  N     0.95660   0.78344   0.75957   0.00000  Uiso   1.00
N1504  N     0.71007   0.88324   0.90709   0.00000  Uiso   1.00
O1505  O     0.77321   0.87291   0.83333   0.00000  Uiso   1.00
O1506  O     0.89345   0.79375   0.83334   0.00000  Uiso   1.00
O1507  O     0.89345   0.87291   0.83334   0.00000  Uiso   1.00
O1508  O     0.77321   0.79375   0.83333   0.00000  Uiso   1.00
O1509  O     0.83333   0.87292   0.76280   0.00000  Uiso   1.00
O1510  O     0.83333   0.79375   0.90387   0.00000  Uiso   1.00
O1511  O     0.83333   0.87292   0.90387   0.00000  Uiso   1.00
O1512  O     0.83333   0.79375   0.76280   0.00000  Uiso   1.00
loop_
_geom_bond_atom_site_label_1
_geom_bond_atom_site_label_2
_geom_bond_distance
_geom_bond_site_symmetry_2
_ccdc_geom_bond_type
C1     C4      1.446   .     S
C1     O52     1.292   .     A
C1     O49     1.286   .     A
C2     C4      1.409   .     A
C2     N48     1.427   .     S
C2     C131    1.403   1_455 S
C3     C20     1.409   .     A
C3     C19     1.407   .     A
C3     C12     1.446   .     S
C4     C18     1.407   .     A
C5     H23     1.082   .     S
C5     N44     1.368   .     A
C5     C344    1.417   1_545 S
C6     N43     1.368   .     A
C6     H34     1.082   .     S
C6     C175    1.417   .     S
C7     H36     1.082   .     S
C7     N44     1.367   .     A
C7     C342    1.417   1_545 S
C8     N43     1.367   .     A
C8     H37     1.082   .     S
C8     C173    1.417   .     S
C9     H41     1.110   .     S
C9     N45     1.447   .     S
C9     H40     1.110   .     S
C9     H39     1.111   .     S
C10    N46     1.448   .     S
C10    H26     1.111   .     S
C10    H25     1.111   .     S
C10    H24     1.111   .     S
C11    N47     1.450   .     S
C11    H28     1.109   .     S
C11    H29     1.110   .     S
C11    H30     1.110   .     S
C12    O51     1.292   .     A
C12    O50     1.286   .     A
C13    N48     1.450   .     S
C13    H33     1.110   .     S
C13    H32     1.109   .     S
C13    H35     1.110   .     S
C14    O56     1.287   .     A
C14    O53     1.288   .     A
C14    C16     1.407   .     S
C15    C17     1.407   .     S
C15    O54     1.288   .     A
C15    O55     1.287   .     A
C16    C1025   1.189   1_554 S
C17    C520    1.189   .     S
C18    N45     1.428   .     S
C18    C132    1.403   1_455 S
C19    N46     1.428   .     S
C19    C58     1.403   .     S
C20    N47     1.427   .     S
C20    C74     1.403   .     S
Cu21   O49     1.960   .     S
Cu21   N43     2.014   .     S
Cu21   O53     1.932   .     S
Cu21   O51     1.954   .     S
Cu21   O55     1.931   .     S
Cu21   Cu22    2.681   .     S
Cu22   O50     1.960   .     S
Cu22   O54     1.932   .     S
Cu22   O52     1.954   .     S
Cu22   O56     1.931   .     S
Cu22   N44     2.014   .     S
H27    N47     1.031   .     S
H31    N48     1.031   .     S
H38    N45     1.029   .     S
H42    N46     1.029   .     S
C57    C60     1.446   .     S
C57    O108    1.292   .     A
C57    O105    1.286   .     A
C58    C60     1.409   .     A
C58    N104    1.427   .     S
C59    C76     1.409   .     A
C59    C75     1.407   .     A
C59    C68     1.446   .     S
C60    C74     1.407   .     A
C61    H79     1.082   .     S
C61    N100    1.368   .     A
C61    C400    1.417   1_545 S
C62    N99     1.368   .     A
C62    H90     1.082   .     S
C62    C231    1.417   .     S
C63    H92     1.082   .     S
C63    N100    1.367   .     A
C63    C398    1.417   1_545 S
C64    N99     1.367   .     A
C64    H93     1.082   .     S
C64    C229    1.417   .     S
C65    H97     1.110   .     S
C65    N101    1.447   .     S
C65    H96     1.110   .     S
C65    H95     1.111   .     S
C66    N102    1.448   .     S
C66    H82     1.111   .     S
C66    H81     1.111   .     S
C66    H80     1.111   .     S
C67    N103    1.450   .     S
C67    H84     1.109   .     S
C67    H85     1.110   .     S
C67    H86     1.110   .     S
C68    O107    1.292   .     A
C68    O106    1.286   .     A
C69    N104    1.450   .     S
C69    H89     1.110   .     S
C69    H88     1.109   .     S
C69    H91     1.110   .     S
C70    O112    1.287   .     A
C70    O109    1.288   .     A
C70    C72     1.407   .     S
C71    C73     1.407   .     S
C71    O110    1.288   .     A
C71    O111    1.287   .     A
C72    C1081   1.189   1_554 S
C73    C576    1.189   .     S
C74    N101    1.428   .     S
C75    N102    1.428   .     S
C75    C114    1.403   .     S
C76    N103    1.427   .     S
C76    C130    1.403   .     S
Cu77   O105    1.960   .     S
Cu77   N99     2.014   .     S
Cu77   O109    1.932   .     S
Cu77   O107    1.954   .     S
Cu77   O111    1.931   .     S
Cu77   Cu78    2.681   .     S
Cu78   O106    1.960   .     S
Cu78   O110    1.932   .     S
Cu78   O108    1.954   .     S
Cu78   O112    1.931   .     S
Cu78   N100    2.014   .     S
H83    N103    1.031   .     S
H87    N104    1.031   .     S
H94    N101    1.029   .     S
H98    N102    1.029   .     S
C113   C116    1.446   .     S
C113   O164    1.292   .     A
C113   O161    1.286   .     A
C114   C116    1.409   .     A
C114   N160    1.427   .     S
C115   C132    1.409   .     A
C115   C131    1.407   .     A
C115   C124    1.446   .     S
C116   C130    1.407   .     A
C117   H135    1.082   .     S
C117   N156    1.368   .     A
C117   C456    1.417   1_545 S
C118   N155    1.368   .     A
C118   H146    1.082   .     S
C118   C287    1.417   .     S
C119   H148    1.082   .     S
C119   N156    1.367   .     A
C119   C454    1.417   1_545 S
C120   N155    1.367   .     A
C120   H149    1.082   .     S
C120   C285    1.417   .     S
C121   H153    1.110   .     S
C121   N157    1.447   .     S
C121   H152    1.110   .     S
C121   H151    1.111   .     S
C122   N158    1.448   .     S
C122   H138    1.111   .     S
C122   H137    1.111   .     S
C122   H136    1.111   .     S
C123   N159    1.450   .     S
C123   H140    1.109   .     S
C123   H141    1.110   .     S
C123   H142    1.110   .     S
C124   O163    1.292   .     A
C124   O162    1.286   .     A
C125   N160    1.450   .     S
C125   H145    1.110   .     S
C125   H144    1.109   .     S
C125   H147    1.110   .     S
C126   O168    1.287   .     A
C126   O165    1.288   .     A
C126   C128    1.407   .     S
C127   C129    1.407   .     S
C127   O166    1.288   .     A
C127   O167    1.287   .     A
C128   C1137   1.189   1_554 S
C129   C632    1.189   .     S
C130   N157    1.428   .     S
C131   N158    1.428   .     S
C131   C2      1.403   1_655 S
C132   N159    1.427   .     S
C132   C18     1.403   1_655 S
Cu133  O161    1.960   .     S
Cu133  N155    2.014   .     S
Cu133  O165    1.932   .     S
Cu133  O163    1.954   .     S
Cu133  O167    1.931   .     S
Cu133  Cu134   2.681   .     S
Cu134  O162    1.960   .     S
Cu134  O166    1.932   .     S
Cu134  O164    1.954   .     S
Cu134  O168    1.931   .     S
Cu134  N156    2.014   .     S
H139   N159    1.031   .     S
H143   N160    1.031   .     S
H150   N157    1.029   .     S
H154   N158    1.029   .     S
C169   C172    1.446   .     S
C169   O220    1.292   .     A
C169   O217    1.286   .     A
C170   C172    1.409   .     A
C170   N216    1.427   .     S
C170   C299    1.403   1_455 S
C171   C188    1.409   .     A
C171   C187    1.407   .     A
C171   C180    1.446   .     S
C172   C186    1.407   .     A
C173   H191    1.082   .     S
C173   N212    1.368   .     A
C174   N211    1.368   .     A
C174   H202    1.082   .     S
C174   C343    1.417   .     S
C175   H204    1.082   .     S
C175   N212    1.367   .     A
C176   N211    1.367   .     A
C176   H205    1.082   .     S
C176   C341    1.417   .     S
C177   H209    1.110   .     S
C177   N213    1.447   .     S
C177   H208    1.110   .     S
C177   H207    1.111   .     S
C178   N214    1.448   .     S
C178   H194    1.111   .     S
C178   H193    1.111   .     S
C178   H192    1.111   .     S
C179   N215    1.450   .     S
C179   H196    1.109   .     S
C179   H197    1.110   .     S
C179   H198    1.110   .     S
C180   O219    1.292   .     A
C180   O218    1.286   .     A
C181   N216    1.450   .     S
C181   H201    1.110   .     S
C181   H200    1.109   .     S
C181   H203    1.110   .     S
C182   O224    1.287   .     A
C182   O221    1.288   .     A
C182   C184    1.407   .     S
C183   C185    1.407   .     S
C183   O222    1.288   .     A
C183   O223    1.287   .     A
C184   C1193   1.189   1_554 S
C185   C688    1.189   .     S
C186   N213    1.428   .     S
C186   C300    1.403   1_455 S
C187   N214    1.428   .     S
C187   C226    1.403   .     S
C188   N215    1.427   .     S
C188   C242    1.403   .     S
Cu189  O217    1.960   .     S
Cu189  N211    2.014   .     S
Cu189  O221    1.932   .     S
Cu189  O219    1.954   .     S
Cu189  O223    1.931   .     S
Cu189  Cu190   2.681   .     S
Cu190  O218    1.960   .     S
Cu190  O222    1.932   .     S
Cu190  O220    1.954   .     S
Cu190  O224    1.931   .     S
Cu190  N212    2.014   .     S
H195   N215    1.031   .     S
H199   N216    1.031   .     S
H206   N213    1.029   .     S
H210   N214    1.029   .     S
C225   C228    1.446   .     S
C225   O276    1.292   .     A
C225   O273    1.286   .     A
C226   C228    1.409   .     A
C226   N272    1.427   .     S
C227   C244    1.409   .     A
C227   C243    1.407   .     A
C227   C236    1.446   .     S
C228   C242    1.407   .     A
C229   H247    1.082   .     S
C229   N268    1.368   .     A
C230   N267    1.368   .     A
C230   H258    1.082   .     S
C230   C399    1.417   .     S
C231   H260    1.082   .     S
C231   N268    1.367   .     A
C232   N267    1.367   .     A
C232   H261    1.082   .     S
C232   C397    1.417   .     S
C233   H265    1.110   .     S
C233   N269    1.447   .     S
C233   H264    1.110   .     S
C233   H263    1.111   .     S
C234   N270    1.448   .     S
C234   H250    1.111   .     S
C234   H249    1.111   .     S
C234   H248    1.111   .     S
C235   N271    1.450   .     S
C235   H252    1.109   .     S
C235   H253    1.110   .     S
C235   H254    1.110   .     S
C236   O275    1.292   .     A
C236   O274    1.286   .     A
C237   N272    1.450   .     S
C237   H257    1.110   .     S
C237   H256    1.109   .     S
C237   H259    1.110   .     S
C238   O280    1.287   .     A
C238   O277    1.288   .     A
C238   C240    1.407   .     S
C239   C241    1.407   .     S
C239   O278    1.288   .     A
C239   O279    1.287   .     A
C240   C1249   1.189   1_554 S
C241   C744    1.189   .     S
C242   N269    1.428   .     S
C243   N270    1.428   .     S
C243   C282    1.403   .     S
C244   N271    1.427   .     S
C244   C298    1.403   .     S
Cu245  O273    1.960   .     S
Cu245  N267    2.014   .     S
Cu245  O277    1.932   .     S
Cu245  O275    1.954   .     S
Cu245  O279    1.931   .     S
Cu245  Cu246   2.681   .     S
Cu246  O274    1.960   .     S
Cu246  O278    1.932   .     S
Cu246  O276    1.954   .     S
Cu246  O280    1.931   .     S
Cu246  N268    2.014   .     S
H251   N271    1.031   .     S
H255   N272    1.031   .     S
H262   N269    1.029   .     S
H266   N270    1.029   .     S
C281   C284    1.446   .     S
C281   O332    1.292   .     A
C281   O329    1.286   .     A
C282   C284    1.409   .     A
C282   N328    1.427   .     S
C283   C300    1.409   .     A
C283   C299    1.407   .     A
C283   C292    1.446   .     S
C284   C298    1.407   .     A
C285   H303    1.082   .     S
C285   N324    1.368   .     A
C286   N323    1.368   .     A
C286   H314    1.082   .     S
C286   C455    1.417   .     S
C287   H316    1.082   .     S
C287   N324    1.367   .     A
C288   N323    1.367   .     A
C288   H317    1.082   .     S
C288   C453    1.417   .     S
C289   H321    1.110   .     S
C289   N325    1.447   .     S
C289   H320    1.110   .     S
C289   H319    1.111   .     S
C290   N326    1.448   .     S
C290   H306    1.111   .     S
C290   H305    1.111   .     S
C290   H304    1.111   .     S
C291   N327    1.450   .     S
C291   H308    1.109   .     S
C291   H309    1.110   .     S
C291   H310    1.110   .     S
C292   O331    1.292   .     A
C292   O330    1.286   .     A
C293   N328    1.450   .     S
C293   H313    1.110   .     S
C293   H312    1.109   .     S
C293   H315    1.110   .     S
C294   O336    1.287   .     A
C294   O333    1.288   .     A
C294   C296    1.407   .     S
C295   C297    1.407   .     S
C295   O334    1.288   .     A
C295   O335    1.287   .     A
C296   C1305   1.189   1_554 S
C297   C800    1.189   .     S
C298   N325    1.428   .     S
C299   N326    1.428   .     S
C299   C170    1.403   1_655 S
C300   N327    1.427   .     S
C300   C186    1.403   1_655 S
Cu301  O329    1.960   .     S
Cu301  N323    2.014   .     S
Cu301  O333    1.932   .     S
Cu301  O331    1.954   .     S
Cu301  O335    1.931   .     S
Cu301  Cu302   2.681   .     S
Cu302  O330    1.960   .     S
Cu302  O334    1.932   .     S
Cu302  O332    1.954   .     S
Cu302  O336    1.931   .     S
Cu302  N324    2.014   .     S
H307   N327    1.031   .     S
H311   N328    1.031   .     S
H318   N325    1.029   .     S
H322   N326    1.029   .     S
C337   C340    1.446   .     S
C337   O388    1.292   .     A
C337   O385    1.286   .     A
C338   C340    1.409   .     A
C338   N384    1.427   .     S
C338   C467    1.403   1_455 S
C339   C356    1.409   .     A
C339   C355    1.407   .     A
C339   C348    1.446   .     S
C340   C354    1.407   .     A
C341   H359    1.082   .     S
C341   N380    1.368   .     A
C342   N379    1.368   .     A
C342   H370    1.082   .     S
C342   C7      1.417   1_565 S
C343   H372    1.082   .     S
C343   N380    1.367   .     A
C344   N379    1.367   .     A
C344   H373    1.082   .     S
C344   C5      1.417   1_565 S
C345   H377    1.110   .     S
C345   N381    1.447   .     S
C345   H376    1.110   .     S
C345   H375    1.111   .     S
C346   N382    1.448   .     S
C346   H362    1.111   .     S
C346   H361    1.111   .     S
C346   H360    1.111   .     S
C347   N383    1.450   .     S
C347   H364    1.109   .     S
C347   H365    1.110   .     S
C347   H366    1.110   .     S
C348   O387    1.292   .     A
C348   O386    1.286   .     A
C349   N384    1.450   .     S
C349   H369    1.110   .     S
C349   H368    1.109   .     S
C349   H371    1.110   .     S
C350   O392    1.287   .     A
C350   O389    1.288   .     A
C350   C352    1.407   .     S
C351   C353    1.407   .     S
C351   O390    1.288   .     A
C351   O391    1.287   .     A
C352   C1361   1.189   1_554 S
C353   C856    1.189   .     S
C354   N381    1.428   .     S
C354   C468    1.403   1_455 S
C355   N382    1.428   .     S
C355   C394    1.403   .     S
C356   N383    1.427   .     S
C356   C410    1.403   .     S
Cu357  O385    1.960   .     S
Cu357  N379    2.014   .     S
Cu357  O389    1.932   .     S
Cu357  O387    1.954   .     S
Cu357  O391    1.931   .     S
Cu357  Cu358   2.681   .     S
Cu358  O386    1.960   .     S
Cu358  O390    1.932   .     S
Cu358  O388    1.954   .     S
Cu358  O392    1.931   .     S
Cu358  N380    2.014   .     S
H363   N383    1.031   .     S
H367   N384    1.031   .     S
H374   N381    1.029   .     S
H378   N382    1.029   .     S
C393   C396    1.446   .     S
C393   O444    1.292   .     A
C393   O441    1.286   .     A
C394   C396    1.409   .     A
C394   N440    1.427   .     S
C395   C412    1.409   .     A
C395   C411    1.407   .     A
C395   C404    1.446   .     S
C396   C410    1.407   .     A
C397   H415    1.082   .     S
C397   N436    1.368   .     A
C398   N435    1.368   .     A
C398   H426    1.082   .     S
C398   C63     1.417   1_565 S
C399   H428    1.082   .     S
C399   N436    1.367   .     A
C400   N435    1.367   .     A
C400   H429    1.082   .     S
C400   C61     1.417   1_565 S
C401   H433    1.110   .     S
C401   N437    1.447   .     S
C401   H432    1.110   .     S
C401   H431    1.111   .     S
C402   N438    1.448   .     S
C402   H418    1.111   .     S
C402   H417    1.111   .     S
C402   H416    1.111   .     S
C403   N439    1.450   .     S
C403   H420    1.109   .     S
C403   H421    1.110   .     S
C403   H422    1.110   .     S
C404   O443    1.292   .     A
C404   O442    1.286   .     A
C405   N440    1.450   .     S
C405   H425    1.110   .     S
C405   H424    1.109   .     S
C405   H427    1.110   .     S
C406   O448    1.287   .     A
C406   O445    1.288   .     A
C406   C408    1.407   .     S
C407   C409    1.407   .     S
C407   O446    1.288   .     A
C407   O447    1.287   .     A
C408   C1417   1.189   1_554 S
C409   C912    1.189   .     S
C410   N437    1.428   .     S
C411   N438    1.428   .     S
C411   C450    1.403   .     S
C412   N439    1.427   .     S
C412   C466    1.403   .     S
Cu413  O441    1.960   .     S
Cu413  N435    2.014   .     S
Cu413  O445    1.932   .     S
Cu413  O443    1.954   .     S
Cu413  O447    1.931   .     S
Cu413  Cu414   2.681   .     S
Cu414  O442    1.960   .     S
Cu414  O446    1.932   .     S
Cu414  O444    1.954   .     S
Cu414  O448    1.931   .     S
Cu414  N436    2.014   .     S
H419   N439    1.031   .     S
H423   N440    1.031   .     S
H430   N437    1.029   .     S
H434   N438    1.029   .     S
C449   C452    1.446   .     S
C449   O500    1.292   .     A
C449   O497    1.286   .     A
C450   C452    1.409   .     A
C450   N496    1.427   .     S
C451   C468    1.409   .     A
C451   C467    1.407   .     A
C451   C460    1.446   .     S
C452   C466    1.407   .     A
C453   H471    1.082   .     S
C453   N492    1.368   .     A
C454   N491    1.368   .     A
C454   H482    1.082   .     S
C454   C119    1.417   1_565 S
C455   H484    1.082   .     S
C455   N492    1.367   .     A
C456   N491    1.367   .     A
C456   H485    1.082   .     S
C456   C117    1.417   1_565 S
C457   H489    1.110   .     S
C457   N493    1.447   .     S
C457   H488    1.110   .     S
C457   H487    1.111   .     S
C458   N494    1.448   .     S
C458   H474    1.111   .     S
C458   H473    1.111   .     S
C458   H472    1.111   .     S
C459   N495    1.450   .     S
C459   H476    1.109   .     S
C459   H477    1.110   .     S
C459   H478    1.110   .     S
C460   O499    1.292   .     A
C460   O498    1.286   .     A
C461   N496    1.450   .     S
C461   H481    1.110   .     S
C461   H480    1.109   .     S
C461   H483    1.110   .     S
C462   O504    1.287   .     A
C462   O501    1.288   .     A
C462   C464    1.407   .     S
C463   C465    1.407   .     S
C463   O502    1.288   .     A
C463   O503    1.287   .     A
C464   C1473   1.189   1_554 S
C465   C968    1.189   .     S
C466   N493    1.428   .     S
C467   N494    1.428   .     S
C467   C338    1.403   1_655 S
C468   N495    1.427   .     S
C468   C354    1.403   1_655 S
Cu469  O497    1.960   .     S
Cu469  N491    2.014   .     S
Cu469  O501    1.932   .     S
Cu469  O499    1.954   .     S
Cu469  O503    1.931   .     S
Cu469  Cu470   2.681   .     S
Cu470  O498    1.960   .     S
Cu470  O502    1.932   .     S
Cu470  O500    1.954   .     S
Cu470  O504    1.931   .     S
Cu470  N492    2.014   .     S
H475   N495    1.031   .     S
H479   N496    1.031   .     S
H486   N493    1.029   .     S
H490   N494    1.029   .     S
C505   C508    1.446   .     S
C505   O556    1.292   .     A
C505   O553    1.286   .     A
C506   C508    1.409   .     A
C506   N552    1.427   .     S
C506   C635    1.403   1_455 S
C507   C524    1.409   .     A
C507   C523    1.407   .     A
C507   C516    1.446   .     S
C508   C522    1.407   .     A
C509   H527    1.082   .     S
C509   N548    1.368   .     A
C509   C848    1.417   1_545 S
C510   N547    1.368   .     A
C510   H538    1.082   .     S
C510   C679    1.417   .     S
C511   H540    1.082   .     S
C511   N548    1.367   .     A
C511   C846    1.417   1_545 S
C512   N547    1.367   .     A
C512   H541    1.082   .     S
C512   C677    1.417   .     S
C513   H545    1.110   .     S
C513   N549    1.447   .     S
C513   H544    1.110   .     S
C513   H543    1.111   .     S
C514   N550    1.448   .     S
C514   H530    1.111   .     S
C514   H529    1.111   .     S
C514   H528    1.111   .     S
C515   N551    1.450   .     S
C515   H532    1.109   .     S
C515   H533    1.110   .     S
C515   H534    1.110   .     S
C516   O555    1.292   .     A
C516   O554    1.286   .     A
C517   N552    1.450   .     S
C517   H537    1.110   .     S
C517   H536    1.109   .     S
C517   H539    1.110   .     S
C518   O560    1.287   .     A
C518   O557    1.288   .     A
C518   C520    1.407   .     S
C519   C521    1.407   .     S
C519   O558    1.288   .     A
C519   O559    1.287   .     A
C521   C1024   1.189   .     S
C522   N549    1.428   .     S
C522   C636    1.403   1_455 S
C523   N550    1.428   .     S
C523   C562    1.403   .     S
C524   N551    1.427   .     S
C524   C578    1.403   .     S
Cu525  O553    1.960   .     S
Cu525  N547    2.014   .     S
Cu525  O557    1.932   .     S
Cu525  O555    1.954   .     S
Cu525  O559    1.931   .     S
Cu525  Cu526   2.681   .     S
Cu526  O554    1.960   .     S
Cu526  O558    1.932   .     S
Cu526  O556    1.954   .     S
Cu526  O560    1.931   .     S
Cu526  N548    2.014   .     S
H531   N551    1.031   .     S
H535   N552    1.031   .     S
H542   N549    1.029   .     S
H546   N550    1.029   .     S
C561   C564    1.446   .     S
C561   O612    1.292   .     A
C561   O609    1.286   .     A
C562   C564    1.409   .     A
C562   N608    1.427   .     S
C563   C580    1.409   .     A
C563   C579    1.407   .     A
C563   C572    1.446   .     S
C564   C578    1.407   .     A
C565   H583    1.082   .     S
C565   N604    1.368   .     A
C565   C904    1.417   1_545 S
C566   N603    1.368   .     A
C566   H594    1.082   .     S
C566   C735    1.417   .     S
C567   H596    1.082   .     S
C567   N604    1.367   .     A
C567   C902    1.417   1_545 S
C568   N603    1.367   .     A
C568   H597    1.082   .     S
C568   C733    1.417   .     S
C569   H601    1.110   .     S
C569   N605    1.447   .     S
C569   H600    1.110   .     S
C569   H599    1.111   .     S
C570   N606    1.448   .     S
C570   H586    1.111   .     S
C570   H585    1.111   .     S
C570   H584    1.111   .     S
C571   N607    1.450   .     S
C571   H588    1.109   .     S
C571   H589    1.110   .     S
C571   H590    1.110   .     S
C572   O611    1.292   .     A
C572   O610    1.286   .     A
C573   N608    1.450   .     S
C573   H593    1.110   .     S
C573   H592    1.109   .     S
C573   H595    1.110   .     S
C574   O616    1.287   .     A
C574   O613    1.288   .     A
C574   C576    1.407   .     S
C575   C577    1.407   .     S
C575   O614    1.288   .     A
C575   O615    1.287   .     A
C577   C1080   1.189   .     S
C578   N605    1.428   .     S
C579   N606    1.428   .     S
C579   C618    1.403   .     S
C580   N607    1.427   .     S
C580   C634    1.403   .     S
Cu581  O609    1.960   .     S
Cu581  N603    2.014   .     S
Cu581  O613    1.932   .     S
Cu581  O611    1.954   .     S
Cu581  O615    1.931   .     S
Cu581  Cu582   2.681   .     S
Cu582  O610    1.960   .     S
Cu582  O614    1.932   .     S
Cu582  O612    1.954   .     S
Cu582  O616    1.931   .     S
Cu582  N604    2.014   .     S
H587   N607    1.031   .     S
H591   N608    1.031   .     S
H598   N605    1.029   .     S
H602   N606    1.029   .     S
C617   C620    1.446   .     S
C617   O668    1.292   .     A
C617   O665    1.286   .     A
C618   C620    1.409   .     A
C618   N664    1.427   .     S
C619   C636    1.409   .     A
C619   C635    1.407   .     A
C619   C628    1.446   .     S
C620   C634    1.407   .     A
C621   H639    1.082   .     S
C621   N660    1.368   .     A
C621   C960    1.417   1_545 S
C622   N659    1.368   .     A
C622   H650    1.082   .     S
C622   C791    1.417   .     S
C623   H652    1.082   .     S
C623   N660    1.367   .     A
C623   C958    1.417   1_545 S
C624   N659    1.367   .     A
C624   H653    1.082   .     S
C624   C789    1.417   .     S
C625   H657    1.110   .     S
C625   N661    1.447   .     S
C625   H656    1.110   .     S
C625   H655    1.111   .     S
C626   N662    1.448   .     S
C626   H642    1.111   .     S
C626   H641    1.111   .     S
C626   H640    1.111   .     S
C627   N663    1.450   .     S
C627   H644    1.109   .     S
C627   H645    1.110   .     S
C627   H646    1.110   .     S
C628   O667    1.292   .     A
C628   O666    1.286   .     A
C629   N664    1.450   .     S
C629   H649    1.110   .     S
C629   H648    1.109   .     S
C629   H651    1.110   .     S
C630   O672    1.287   .     A
C630   O669    1.288   .     A
C630   C632    1.407   .     S
C631   C633    1.407   .     S
C631   O670    1.288   .     A
C631   O671    1.287   .     A
C633   C1136   1.189   .     S
C634   N661    1.428   .     S
C635   N662    1.428   .     S
C635   C506    1.403   1_655 S
C636   N663    1.427   .     S
C636   C522    1.403   1_655 S
Cu637  O665    1.960   .     S
Cu637  N659    2.014   .     S
Cu637  O669    1.932   .     S
Cu637  O667    1.954   .     S
Cu637  O671    1.931   .     S
Cu637  Cu638   2.681   .     S
Cu638  O666    1.960   .     S
Cu638  O670    1.932   .     S
Cu638  O668    1.954   .     S
Cu638  O672    1.931   .     S
Cu638  N660    2.014   .     S
H643   N663    1.031   .     S
H647   N664    1.031   .     S
H654   N661    1.029   .     S
H658   N662    1.029   .     S
C673   C676    1.446   .     S
C673   O724    1.292   .     A
C673   O721    1.286   .     A
C674   C676    1.409   .     A
C674   N720    1.427   .     S
C674   C803    1.403   1_455 S
C675   C692    1.409   .     A
C675   C691    1.407   .     A
C675   C684    1.446   .     S
C676   C690    1.407   .     A
C677   H695    1.082   .     S
C677   N716    1.368   .     A
C678   N715    1.368   .     A
C678   H706    1.082   .     S
C678   C847    1.417   .     S
C679   H708    1.082   .     S
C679   N716    1.367   .     A
C680   N715    1.367   .     A
C680   H709    1.082   .     S
C680   C845    1.417   .     S
C681   H713    1.110   .     S
C681   N717    1.447   .     S
C681   H712    1.110   .     S
C681   H711    1.111   .     S
C682   N718    1.448   .     S
C682   H698    1.111   .     S
C682   H697    1.111   .     S
C682   H696    1.111   .     S
C683   N719    1.450   .     S
C683   H700    1.109   .     S
C683   H701    1.110   .     S
C683   H702    1.110   .     S
C684   O723    1.292   .     A
C684   O722    1.286   .     A
C685   N720    1.450   .     S
C685   H705    1.110   .     S
C685   H704    1.109   .     S
C685   H707    1.110   .     S
C686   O728    1.287   .     A
C686   O725    1.288   .     A
C686   C688    1.407   .     S
C687   C689    1.407   .     S
C687   O726    1.288   .     A
C687   O727    1.287   .     A
C689   C1192   1.189   .     S
C690   N717    1.428   .     S
C690   C804    1.403   1_455 S
C691   N718    1.428   .     S
C691   C730    1.403   .     S
C692   N719    1.427   .     S
C692   C746    1.403   .     S
Cu693  O721    1.960   .     S
Cu693  N715    2.014   .     S
Cu693  O725    1.932   .     S
Cu693  O723    1.954   .     S
Cu693  O727    1.931   .     S
Cu693  Cu694   2.681   .     S
Cu694  O722    1.960   .     S
Cu694  O726    1.932   .     S
Cu694  O724    1.954   .     S
Cu694  O728    1.931   .     S
Cu694  N716    2.014   .     S
H699   N719    1.031   .     S
H703   N720    1.031   .     S
H710   N717    1.029   .     S
H714   N718    1.029   .     S
C729   C732    1.446   .     S
C729   O780    1.292   .     A
C729   O777    1.286   .     A
C730   C732    1.409   .     A
C730   N776    1.427   .     S
C731   C748    1.409   .     A
C731   C747    1.407   .     A
C731   C740    1.446   .     S
C732   C746    1.407   .     A
C733   H751    1.082   .     S
C733   N772    1.368   .     A
C734   N771    1.368   .     A
C734   H762    1.082   .     S
C734   C903    1.417   .     S
C735   H764    1.082   .     S
C735   N772    1.367   .     A
C736   N771    1.367   .     A
C736   H765    1.082   .     S
C736   C901    1.417   .     S
C737   H769    1.110   .     S
C737   N773    1.447   .     S
C737   H768    1.110   .     S
C737   H767    1.111   .     S
C738   N774    1.448   .     S
C738   H754    1.111   .     S
C738   H753    1.111   .     S
C738   H752    1.111   .     S
C739   N775    1.450   .     S
C739   H756    1.109   .     S
C739   H757    1.110   .     S
C739   H758    1.110   .     S
C740   O779    1.292   .     A
C740   O778    1.286   .     A
C741   N776    1.450   .     S
C741   H761    1.110   .     S
C741   H760    1.109   .     S
C741   H763    1.110   .     S
C742   O784    1.287   .     A
C742   O781    1.288   .     A
C742   C744    1.407   .     S
C743   C745    1.407   .     S
C743   O782    1.288   .     A
C743   O783    1.287   .     A
C745   C1248   1.189   .     S
C746   N773    1.428   .     S
C747   N774    1.428   .     S
C747   C786    1.403   .     S
C748   N775    1.427   .     S
C748   C802    1.403   .     S
Cu749  O777    1.960   .     S
Cu749  N771    2.014   .     S
Cu749  O781    1.932   .     S
Cu749  O779    1.954   .     S
Cu749  O783    1.931   .     S
Cu749  Cu750   2.681   .     S
Cu750  O778    1.960   .     S
Cu750  O782    1.932   .     S
Cu750  O780    1.954   .     S
Cu750  O784    1.931   .     S
Cu750  N772    2.014   .     S
H755   N775    1.031   .     S
H759   N776    1.031   .     S
H766   N773    1.029   .     S
H770   N774    1.029   .     S
C785   C788    1.446   .     S
C785   O836    1.292   .     A
C785   O833    1.286   .     A
C786   C788    1.409   .     A
C786   N832    1.427   .     S
C787   C804    1.409   .     A
C787   C803    1.407   .     A
C787   C796    1.446   .     S
C788   C802    1.407   .     A
C789   H807    1.082   .     S
C789   N828    1.368   .     A
C790   N827    1.368   .     A
C790   H818    1.082   .     S
C790   C959    1.417   .     S
C791   H820    1.082   .     S
C791   N828    1.367   .     A
C792   N827    1.367   .     A
C792   H821    1.082   .     S
C792   C957    1.417   .     S
C793   H825    1.110   .     S
C793   N829    1.447   .     S
C793   H824    1.110   .     S
C793   H823    1.111   .     S
C794   N830    1.448   .     S
C794   H810    1.111   .     S
C794   H809    1.111   .     S
C794   H808    1.111   .     S
C795   N831    1.450   .     S
C795   H812    1.109   .     S
C795   H813    1.110   .     S
C795   H814    1.110   .     S
C796   O835    1.292   .     A
C796   O834    1.286   .     A
C797   N832    1.450   .     S
C797   H817    1.110   .     S
C797   H816    1.109   .     S
C797   H819    1.110   .     S
C798   O840    1.287   .     A
C798   O837    1.288   .     A
C798   C800    1.407   .     S
C799   C801    1.407   .     S
C799   O838    1.288   .     A
C799   O839    1.287   .     A
C801   C1304   1.189   .     S
C802   N829    1.428   .     S
C803   N830    1.428   .     S
C803   C674    1.403   1_655 S
C804   N831    1.427   .     S
C804   C690    1.403   1_655 S
Cu805  O833    1.960   .     S
Cu805  N827    2.014   .     S
Cu805  O837    1.932   .     S
Cu805  O835    1.954   .     S
Cu805  O839    1.931   .     S
Cu805  Cu806   2.681   .     S
Cu806  O834    1.960   .     S
Cu806  O838    1.932   .     S
Cu806  O836    1.954   .     S
Cu806  O840    1.931   .     S
Cu806  N828    2.014   .     S
H811   N831    1.031   .     S
H815   N832    1.031   .     S
H822   N829    1.029   .     S
H826   N830    1.029   .     S
C841   C844    1.446   .     S
C841   O892    1.292   .     A
C841   O889    1.286   .     A
C842   C844    1.409   .     A
C842   N888    1.427   .     S
C842   C971    1.403   1_455 S
C843   C860    1.409   .     A
C843   C859    1.407   .     A
C843   C852    1.446   .     S
C844   C858    1.407   .     A
C845   H863    1.082   .     S
C845   N884    1.368   .     A
C846   N883    1.368   .     A
C846   H874    1.082   .     S
C846   C511    1.417   1_565 S
C847   H876    1.082   .     S
C847   N884    1.367   .     A
C848   N883    1.367   .     A
C848   H877    1.082   .     S
C848   C509    1.417   1_565 S
C849   H881    1.110   .     S
C849   N885    1.447   .     S
C849   H880    1.110   .     S
C849   H879    1.111   .     S
C850   N886    1.448   .     S
C850   H866    1.111   .     S
C850   H865    1.111   .     S
C850   H864    1.111   .     S
C851   N887    1.450   .     S
C851   H868    1.109   .     S
C851   H869    1.110   .     S
C851   H870    1.110   .     S
C852   O891    1.292   .     A
C852   O890    1.286   .     A
C853   N888    1.450   .     S
C853   H873    1.110   .     S
C853   H872    1.109   .     S
C853   H875    1.110   .     S
C854   O896    1.287   .     A
C854   O893    1.288   .     A
C854   C856    1.407   .     S
C855   C857    1.407   .     S
C855   O894    1.288   .     A
C855   O895    1.287   .     A
C857   C1360   1.189   .     S
C858   N885    1.428   .     S
C858   C972    1.403   1_455 S
C859   N886    1.428   .     S
C859   C898    1.403   .     S
C860   N887    1.427   .     S
C860   C914    1.403   .     S
Cu861  O889    1.960   .     S
Cu861  N883    2.014   .     S
Cu861  O893    1.932   .     S
Cu861  O891    1.954   .     S
Cu861  O895    1.931   .     S
Cu861  Cu862   2.681   .     S
Cu862  O890    1.960   .     S
Cu862  O894    1.932   .     S
Cu862  O892    1.954   .     S
Cu862  O896    1.931   .     S
Cu862  N884    2.014   .     S
H867   N887    1.031   .     S
H871   N888    1.031   .     S
H878   N885    1.029   .     S
H882   N886    1.029   .     S
C897   C900    1.446   .     S
C897   O948    1.292   .     A
C897   O945    1.286   .     A
C898   C900    1.409   .     A
C898   N944    1.427   .     S
C899   C916    1.409   .     A
C899   C915    1.407   .     A
C899   C908    1.446   .     S
C900   C914    1.407   .     A
C901   H919    1.082   .     S
C901   N940    1.368   .     A
C902   N939    1.368   .     A
C902   H930    1.082   .     S
C902   C567    1.417   1_565 S
C903   H932    1.082   .     S
C903   N940    1.367   .     A
C904   N939    1.367   .     A
C904   H933    1.082   .     S
C904   C565    1.417   1_565 S
C905   H937    1.110   .     S
C905   N941    1.447   .     S
C905   H936    1.110   .     S
C905   H935    1.111   .     S
C906   N942    1.448   .     S
C906   H922    1.111   .     S
C906   H921    1.111   .     S
C906   H920    1.111   .     S
C907   N943    1.450   .     S
C907   H924    1.109   .     S
C907   H925    1.110   .     S
C907   H926    1.110   .     S
C908   O947    1.292   .     A
C908   O946    1.286   .     A
C909   N944    1.450   .     S
C909   H929    1.110   .     S
C909   H928    1.109   .     S
C909   H931    1.110   .     S
C910   O952    1.287   .     A
C910   O949    1.288   .     A
C910   C912    1.407   .     S
C911   C913    1.407   .     S
C911   O950    1.288   .     A
C911   O951    1.287   .     A
C913   C1416   1.189   .     S
C914   N941    1.428   .     S
C915   N942    1.428   .     S
C915   C954    1.403   .     S
C916   N943    1.427   .     S
C916   C970    1.403   .     S
Cu917  O945    1.960   .     S
Cu917  N939    2.014   .     S
Cu917  O949    1.932   .     S
Cu917  O947    1.954   .     S
Cu917  O951    1.931   .     S
Cu917  Cu918   2.681   .     S
Cu918  O946    1.960   .     S
Cu918  O950    1.932   .     S
Cu918  O948    1.954   .     S
Cu918  O952    1.931   .     S
Cu918  N940    2.014   .     S
H923   N943    1.031   .     S
H927   N944    1.031   .     S
H934   N941    1.029   .     S
H938   N942    1.029   .     S
C953   C956    1.446   .     S
C953   O1004   1.292   .     A
C953   O1001   1.286   .     A
C954   C956    1.409   .     A
C954   N1000   1.427   .     S
C955   C972    1.409   .     A
C955   C971    1.407   .     A
C955   C964    1.446   .     S
C956   C970    1.407   .     A
C957   H975    1.082   .     S
C957   N996    1.368   .     A
C958   N995    1.368   .     A
C958   H986    1.082   .     S
C958   C623    1.417   1_565 S
C959   H988    1.082   .     S
C959   N996    1.367   .     A
C960   N995    1.367   .     A
C960   H989    1.082   .     S
C960   C621    1.417   1_565 S
C961   H993    1.110   .     S
C961   N997    1.447   .     S
C961   H992    1.110   .     S
C961   H991    1.111   .     S
C962   N998    1.448   .     S
C962   H978    1.111   .     S
C962   H977    1.111   .     S
C962   H976    1.111   .     S
C963   N999    1.450   .     S
C963   H980    1.109   .     S
C963   H981    1.110   .     S
C963   H982    1.110   .     S
C964   O1003   1.292   .     A
C964   O1002   1.286   .     A
C965   N1000   1.450   .     S
C965   H985    1.110   .     S
C965   H984    1.109   .     S
C965   H987    1.110   .     S
C966   O1008   1.287   .     A
C966   O1005   1.288   .     A
C966   C968    1.407   .     S
C967   C969    1.407   .     S
C967   O1006   1.288   .     A
C967   O1007   1.287   .     A
C969   C1472   1.189   .     S
C970   N997    1.428   .     S
C971   N998    1.428   .     S
C971   C842    1.403   1_655 S
C972   N999    1.427   .     S
C972   C858    1.403   1_655 S
Cu973  O1001   1.960   .     S
Cu973  N995    2.014   .     S
Cu973  O1005   1.932   .     S
Cu973  O1003   1.954   .     S
Cu973  O1007   1.931   .     S
Cu973  Cu974   2.681   .     S
Cu974  O1002   1.960   .     S
Cu974  O1006   1.932   .     S
Cu974  O1004   1.954   .     S
Cu974  O1008   1.931   .     S
Cu974  N996    2.014   .     S
H979   N999    1.031   .     S
H983   N1000   1.031   .     S
H990   N997    1.029   .     S
H994   N998    1.029   .     S
C1009  C1012   1.446   .     S
C1009  O1060   1.292   .     A
C1009  O1057   1.286   .     A
C1010  C1012   1.409   .     A
C1010  N1056   1.427   .     S
C1010  C1139   1.403   1_455 S
C1011  C1028   1.409   .     A
C1011  C1027   1.407   .     A
C1011  C1020   1.446   .     S
C1012  C1026   1.407   .     A
C1013  H1031   1.082   .     S
C1013  N1052   1.368   .     A
C1013  C1352   1.417   1_545 S
C1014  N1051   1.368   .     A
C1014  H1042   1.082   .     S
C1014  C1183   1.417   .     S
C1015  H1044   1.082   .     S
C1015  N1052   1.367   .     A
C1015  C1350   1.417   1_545 S
C1016  N1051   1.367   .     A
C1016  H1045   1.082   .     S
C1016  C1181   1.417   .     S
C1017  H1049   1.110   .     S
C1017  N1053   1.447   .     S
C1017  H1048   1.110   .     S
C1017  H1047   1.111   .     S
C1018  N1054   1.448   .     S
C1018  H1034   1.111   .     S
C1018  H1033   1.111   .     S
C1018  H1032   1.111   .     S
C1019  N1055   1.450   .     S
C1019  H1036   1.109   .     S
C1019  H1037   1.110   .     S
C1019  H1038   1.110   .     S
C1020  O1059   1.292   .     A
C1020  O1058   1.286   .     A
C1021  N1056   1.450   .     S
C1021  H1041   1.110   .     S
C1021  H1040   1.109   .     S
C1021  H1043   1.110   .     S
C1022  O1064   1.287   .     A
C1022  O1061   1.288   .     A
C1022  C1024   1.407   .     S
C1023  C1025   1.407   .     S
C1023  O1062   1.288   .     A
C1023  O1063   1.287   .     A
C1025  C16     1.189   1_556 S
C1026  N1053   1.428   .     S
C1026  C1140   1.403   1_455 S
C1027  N1054   1.428   .     S
C1027  C1066   1.403   .     S
C1028  N1055   1.427   .     S
C1028  C1082   1.403   .     S
Cu1029 O1057   1.960   .     S
Cu1029 N1051   2.014   .     S
Cu1029 O1061   1.932   .     S
Cu1029 O1059   1.954   .     S
Cu1029 O1063   1.931   .     S
Cu1029 Cu1030  2.681   .     S
Cu1030 O1058   1.960   .     S
Cu1030 O1062   1.932   .     S
Cu1030 O1060   1.954   .     S
Cu1030 O1064   1.931   .     S
Cu1030 N1052   2.014   .     S
H1035  N1055   1.031   .     S
H1039  N1056   1.031   .     S
H1046  N1053   1.029   .     S
H1050  N1054   1.029   .     S
C1065  C1068   1.446   .     S
C1065  O1116   1.292   .     A
C1065  O1113   1.286   .     A
C1066  C1068   1.409   .     A
C1066  N1112   1.427   .     S
C1067  C1084   1.409   .     A
C1067  C1083   1.407   .     A
C1067  C1076   1.446   .     S
C1068  C1082   1.407   .     A
C1069  H1087   1.082   .     S
C1069  N1108   1.368   .     A
C1069  C1408   1.417   1_545 S
C1070  N1107   1.368   .     A
C1070  H1098   1.082   .     S
C1070  C1239   1.417   .     S
C1071  H1100   1.082   .     S
C1071  N1108   1.367   .     A
C1071  C1406   1.417   1_545 S
C1072  N1107   1.367   .     A
C1072  H1101   1.082   .     S
C1072  C1237   1.417   .     S
C1073  H1105   1.110   .     S
C1073  N1109   1.447   .     S
C1073  H1104   1.110   .     S
C1073  H1103   1.111   .     S
C1074  N1110   1.448   .     S
C1074  H1090   1.111   .     S
C1074  H1089   1.111   .     S
C1074  H1088   1.111   .     S
C1075  N1111   1.450   .     S
C1075  H1092   1.109   .     S
C1075  H1093   1.110   .     S
C1075  H1094   1.110   .     S
C1076  O1115   1.292   .     A
C1076  O1114   1.286   .     A
C1077  N1112   1.450   .     S
C1077  H1097   1.110   .     S
C1077  H1096   1.109   .     S
C1077  H1099   1.110   .     S
C1078  O1120   1.287   .     A
C1078  O1117   1.288   .     A
C1078  C1080   1.407   .     S
C1079  C1081   1.407   .     S
C1079  O1118   1.288   .     A
C1079  O1119   1.287   .     A
C1081  C72     1.189   1_556 S
C1082  N1109   1.428   .     S
C1083  N1110   1.428   .     S
C1083  C1122   1.403   .     S
C1084  N1111   1.427   .     S
C1084  C1138   1.403   .     S
Cu1085 O1113   1.960   .     S
Cu1085 N1107   2.014   .     S
Cu1085 O1117   1.932   .     S
Cu1085 O1115   1.954   .     S
Cu1085 O1119   1.931   .     S
Cu1085 Cu1086  2.681   .     S
Cu1086 O1114   1.960   .     S
Cu1086 O1118   1.932   .     S
Cu1086 O1116   1.954   .     S
Cu1086 O1120   1.931   .     S
Cu1086 N1108   2.014   .     S
H1091  N1111   1.031   .     S
H1095  N1112   1.031   .     S
H1102  N1109   1.029   .     S
H1106  N1110   1.029   .     S
C1121  C1124   1.446   .     S
C1121  O1172   1.292   .     A
C1121  O1169   1.286   .     A
C1122  C1124   1.409   .     A
C1122  N1168   1.427   .     S
C1123  C1140   1.409   .     A
C1123  C1139   1.407   .     A
C1123  C1132   1.446   .     S
C1124  C1138   1.407   .     A
C1125  H1143   1.082   .     S
C1125  N1164   1.368   .     A
C1125  C1464   1.417   1_545 S
C1126  N1163   1.368   .     A
C1126  H1154   1.082   .     S
C1126  C1295   1.417   .     S
C1127  H1156   1.082   .     S
C1127  N1164   1.367   .     A
C1127  C1462   1.417   1_545 S
C1128  N1163   1.367   .     A
C1128  H1157   1.082   .     S
C1128  C1293   1.417   .     S
C1129  H1161   1.110   .     S
C1129  N1165   1.447   .     S
C1129  H1160   1.110   .     S
C1129  H1159   1.111   .     S
C1130  N1166   1.448   .     S
C1130  H1146   1.111   .     S
C1130  H1145   1.111   .     S
C1130  H1144   1.111   .     S
C1131  N1167   1.450   .     S
C1131  H1148   1.109   .     S
C1131  H1149   1.110   .     S
C1131  H1150   1.110   .     S
C1132  O1171   1.292   .     A
C1132  O1170   1.286   .     A
C1133  N1168   1.450   .     S
C1133  H1153   1.110   .     S
C1133  H1152   1.109   .     S
C1133  H1155   1.110   .     S
C1134  O1176   1.287   .     A
C1134  O1173   1.288   .     A
C1134  C1136   1.407   .     S
C1135  C1137   1.407   .     S
C1135  O1174   1.288   .     A
C1135  O1175   1.287   .     A
C1137  C128    1.189   1_556 S
C1138  N1165   1.428   .     S
C1139  N1166   1.428   .     S
C1139  C1010   1.403   1_655 S
C1140  N1167   1.427   .     S
C1140  C1026   1.403   1_655 S
Cu1141 O1169   1.960   .     S
Cu1141 N1163   2.014   .     S
Cu1141 O1173   1.932   .     S
Cu1141 O1171   1.954   .     S
Cu1141 O1175   1.931   .     S
Cu1141 Cu1142  2.681   .     S
Cu1142 O1170   1.960   .     S
Cu1142 O1174   1.932   .     S
Cu1142 O1172   1.954   .     S
Cu1142 O1176   1.931   .     S
Cu1142 N1164   2.014   .     S
H1147  N1167   1.031   .     S
H1151  N1168   1.031   .     S
H1158  N1165   1.029   .     S
H1162  N1166   1.029   .     S
C1177  C1180   1.446   .     S
C1177  O1228   1.292   .     A
C1177  O1225   1.286   .     A
C1178  C1180   1.409   .     A
C1178  N1224   1.427   .     S
C1178  C1307   1.403   1_455 S
C1179  C1196   1.409   .     A
C1179  C1195   1.407   .     A
C1179  C1188   1.446   .     S
C1180  C1194   1.407   .     A
C1181  H1199   1.082   .     S
C1181  N1220   1.368   .     A
C1182  N1219   1.368   .     A
C1182  H1210   1.082   .     S
C1182  C1351   1.417   .     S
C1183  H1212   1.082   .     S
C1183  N1220   1.367   .     A
C1184  N1219   1.367   .     A
C1184  H1213   1.082   .     S
C1184  C1349   1.417   .     S
C1185  H1217   1.110   .     S
C1185  N1221   1.447   .     S
C1185  H1216   1.110   .     S
C1185  H1215   1.111   .     S
C1186  N1222   1.448   .     S
C1186  H1202   1.111   .     S
C1186  H1201   1.111   .     S
C1186  H1200   1.111   .     S
C1187  N1223   1.450   .     S
C1187  H1204   1.109   .     S
C1187  H1205   1.110   .     S
C1187  H1206   1.110   .     S
C1188  O1227   1.292   .     A
C1188  O1226   1.286   .     A
C1189  N1224   1.450   .     S
C1189  H1209   1.110   .     S
C1189  H1208   1.109   .     S
C1189  H1211   1.110   .     S
C1190  O1232   1.287   .     A
C1190  O1229   1.288   .     A
C1190  C1192   1.407   .     S
C1191  C1193   1.407   .     S
C1191  O1230   1.288   .     A
C1191  O1231   1.287   .     A
C1193  C184    1.189   1_556 S
C1194  N1221   1.428   .     S
C1194  C1308   1.403   1_455 S
C1195  N1222   1.428   .     S
C1195  C1234   1.403   .     S
C1196  N1223   1.427   .     S
C1196  C1250   1.403   .     S
Cu1197 O1225   1.960   .     S
Cu1197 N1219   2.014   .     S
Cu1197 O1229   1.932   .     S
Cu1197 O1227   1.954   .     S
Cu1197 O1231   1.931   .     S
Cu1197 Cu1198  2.681   .     S
Cu1198 O1226   1.960   .     S
Cu1198 O1230   1.932   .     S
Cu1198 O1228   1.954   .     S
Cu1198 O1232   1.931   .     S
Cu1198 N1220   2.014   .     S
H1203  N1223   1.031   .     S
H1207  N1224   1.031   .     S
H1214  N1221   1.029   .     S
H1218  N1222   1.029   .     S
C1233  C1236   1.446   .     S
C1233  O1284   1.292   .     A
C1233  O1281   1.286   .     A
C1234  C1236   1.409   .     A
C1234  N1280   1.427   .     S
C1235  C1252   1.409   .     A
C1235  C1251   1.407   .     A
C1235  C1244   1.446   .     S
C1236  C1250   1.407   .     A
C1237  H1255   1.082   .     S
C1237  N1276   1.368   .     A
C1238  N1275   1.368   .     A
C1238  H1266   1.082   .     S
C1238  C1407   1.417   .     S
C1239  H1268   1.082   .     S
C1239  N1276   1.367   .     A
C1240  N1275   1.367   .     A
C1240  H1269   1.082   .     S
C1240  C1405   1.417   .     S
C1241  H1273   1.110   .     S
C1241  N1277   1.447   .     S
C1241  H1272   1.110   .     S
C1241  H1271   1.111   .     S
C1242  N1278   1.448   .     S
C1242  H1258   1.111   .     S
C1242  H1257   1.111   .     S
C1242  H1256   1.111   .     S
C1243  N1279   1.450   .     S
C1243  H1260   1.109   .     S
C1243  H1261   1.110   .     S
C1243  H1262   1.110   .     S
C1244  O1283   1.292   .     A
C1244  O1282   1.286   .     A
C1245  N1280   1.450   .     S
C1245  H1265   1.110   .     S
C1245  H1264   1.109   .     S
C1245  H1267   1.110   .     S
C1246  O1288   1.287   .     A
C1246  O1285   1.288   .     A
C1246  C1248   1.407   .     S
C1247  C1249   1.407   .     S
C1247  O1286   1.288   .     A
C1247  O1287   1.287   .     A
C1249  C240    1.189   1_556 S
C1250  N1277   1.428   .     S
C1251  N1278   1.428   .     S
C1251  C1290   1.403   .     S
C1252  N1279   1.427   .     S
C1252  C1306   1.403   .     S
Cu1253 O1281   1.960   .     S
Cu1253 N1275   2.014   .     S
Cu1253 O1285   1.932   .     S
Cu1253 O1283   1.954   .     S
Cu1253 O1287   1.931   .     S
Cu1253 Cu1254  2.681   .     S
Cu1254 O1282   1.960   .     S
Cu1254 O1286   1.932   .     S
Cu1254 O1284   1.954   .     S
Cu1254 O1288   1.931   .     S
Cu1254 N1276   2.014   .     S
H1259  N1279   1.031   .     S
H1263  N1280   1.031   .     S
H1270  N1277   1.029   .     S
H1274  N1278   1.029   .     S
C1289  C1292   1.446   .     S
C1289  O1340   1.292   .     A
C1289  O1337   1.286   .     A
C1290  C1292   1.409   .     A
C1290  N1336   1.427   .     S
C1291  C1308   1.409   .     A
C1291  C1307   1.407   .     A
C1291  C1300   1.446   .     S
C1292  C1306   1.407   .     A
C1293  H1311   1.082   .     S
C1293  N1332   1.368   .     A
C1294  N1331   1.368   .     A
C1294  H1322   1.082   .     S
C1294  C1463   1.417   .     S
C1295  H1324   1.082   .     S
C1295  N1332   1.367   .     A
C1296  N1331   1.367   .     A
C1296  H1325   1.082   .     S
C1296  C1461   1.417   .     S
C1297  H1329   1.110   .     S
C1297  N1333   1.447   .     S
C1297  H1328   1.110   .     S
C1297  H1327   1.111   .     S
C1298  N1334   1.448   .     S
C1298  H1314   1.111   .     S
C1298  H1313   1.111   .     S
C1298  H1312   1.111   .     S
C1299  N1335   1.450   .     S
C1299  H1316   1.109   .     S
C1299  H1317   1.110   .     S
C1299  H1318   1.110   .     S
C1300  O1339   1.292   .     A
C1300  O1338   1.286   .     A
C1301  N1336   1.450   .     S
C1301  H1321   1.110   .     S
C1301  H1320   1.109   .     S
C1301  H1323   1.110   .     S
C1302  O1344   1.287   .     A
C1302  O1341   1.288   .     A
C1302  C1304   1.407   .     S
C1303  C1305   1.407   .     S
C1303  O1342   1.288   .     A
C1303  O1343   1.287   .     A
C1305  C296    1.189   1_556 S
C1306  N1333   1.428   .     S
C1307  N1334   1.428   .     S
C1307  C1178   1.403   1_655 S
C1308  N1335   1.427   .     S
C1308  C1194   1.403   1_655 S
Cu1309 O1337   1.960   .     S
Cu1309 N1331   2.014   .     S
Cu1309 O1341   1.932   .     S
Cu1309 O1339   1.954   .     S
Cu1309 O1343   1.931   .     S
Cu1309 Cu1310  2.681   .     S
Cu1310 O1338   1.960   .     S
Cu1310 O1342   1.932   .     S
Cu1310 O1340   1.954   .     S
Cu1310 O1344   1.931   .     S
Cu1310 N1332   2.014   .     S
H1315  N1335   1.031   .     S
H1319  N1336   1.031   .     S
H1326  N1333   1.029   .     S
H1330  N1334   1.029   .     S
C1345  C1348   1.446   .     S
C1345  O1396   1.292   .     A
C1345  O1393   1.286   .     A
C1346  C1348   1.409   .     A
C1346  N1392   1.427   .     S
C1346  C1475   1.403   1_455 S
C1347  C1364   1.409   .     A
C1347  C1363   1.407   .     A
C1347  C1356   1.446   .     S
C1348  C1362   1.407   .     A
C1349  H1367   1.082   .     S
C1349  N1388   1.368   .     A
C1350  N1387   1.368   .     A
C1350  H1378   1.082   .     S
C1350  C1015   1.417   1_565 S
C1351  H1380   1.082   .     S
C1351  N1388   1.367   .     A
C1352  N1387   1.367   .     A
C1352  H1381   1.082   .     S
C1352  C1013   1.417   1_565 S
C1353  H1385   1.110   .     S
C1353  N1389   1.447   .     S
C1353  H1384   1.110   .     S
C1353  H1383   1.111   .     S
C1354  N1390   1.448   .     S
C1354  H1370   1.111   .     S
C1354  H1369   1.111   .     S
C1354  H1368   1.111   .     S
C1355  N1391   1.450   .     S
C1355  H1372   1.109   .     S
C1355  H1373   1.110   .     S
C1355  H1374   1.110   .     S
C1356  O1395   1.292   .     A
C1356  O1394   1.286   .     A
C1357  N1392   1.450   .     S
C1357  H1377   1.110   .     S
C1357  H1376   1.109   .     S
C1357  H1379   1.110   .     S
C1358  O1400   1.287   .     A
C1358  O1397   1.288   .     A
C1358  C1360   1.407   .     S
C1359  C1361   1.407   .     S
C1359  O1398   1.288   .     A
C1359  O1399   1.287   .     A
C1361  C352    1.189   1_556 S
C1362  N1389   1.428   .     S
C1362  C1476   1.403   1_455 S
C1363  N1390   1.428   .     S
C1363  C1402   1.403   .     S
C1364  N1391   1.427   .     S
C1364  C1418   1.403   .     S
Cu1365 O1393   1.960   .     S
Cu1365 N1387   2.014   .     S
Cu1365 O1397   1.932   .     S
Cu1365 O1395   1.954   .     S
Cu1365 O1399   1.931   .     S
Cu1365 Cu1366  2.681   .     S
Cu1366 O1394   1.960   .     S
Cu1366 O1398   1.932   .     S
Cu1366 O1396   1.954   .     S
Cu1366 O1400   1.931   .     S
Cu1366 N1388   2.014   .     S
H1371  N1391   1.031   .     S
H1375  N1392   1.031   .     S
H1382  N1389   1.029   .     S
H1386  N1390   1.029   .     S
C1401  C1404   1.446   .     S
C1401  O1452   1.292   .     A
C1401  O1449   1.286   .     A
C1402  C1404   1.409   .     A
C1402  N1448   1.427   .     S
C1403  C1420   1.409   .     A
C1403  C1419   1.407   .     A
C1403  C1412   1.446   .     S
C1404  C1418   1.407   .     A
C1405  H1423   1.082   .     S
C1405  N1444   1.368   .     A
C1406  N1443   1.368   .     A
C1406  H1434   1.082   .     S
C1406  C1071   1.417   1_565 S
C1407  H1436   1.082   .     S
C1407  N1444   1.367   .     A
C1408  N1443   1.367   .     A
C1408  H1437   1.082   .     S
C1408  C1069   1.417   1_565 S
C1409  H1441   1.110   .     S
C1409  N1445   1.447   .     S
C1409  H1440   1.110   .     S
C1409  H1439   1.111   .     S
C1410  N1446   1.448   .     S
C1410  H1426   1.111   .     S
C1410  H1425   1.111   .     S
C1410  H1424   1.111   .     S
C1411  N1447   1.450   .     S
C1411  H1428   1.109   .     S
C1411  H1429   1.110   .     S
C1411  H1430   1.110   .     S
C1412  O1451   1.292   .     A
C1412  O1450   1.286   .     A
C1413  N1448   1.450   .     S
C1413  H1433   1.110   .     S
C1413  H1432   1.109   .     S
C1413  H1435   1.110   .     S
C1414  O1456   1.287   .     A
C1414  O1453   1.288   .     A
C1414  C1416   1.407   .     S
C1415  C1417   1.407   .     S
C1415  O1454   1.288   .     A
C1415  O1455   1.287   .     A
C1417  C408    1.189   1_556 S
C1418  N1445   1.428   .     S
C1419  N1446   1.428   .     S
C1419  C1458   1.403   .     S
C1420  N1447   1.427   .     S
C1420  C1474   1.403   .     S
Cu1421 O1449   1.960   .     S
Cu1421 N1443   2.014   .     S
Cu1421 O1453   1.932   .     S
Cu1421 O1451   1.954   .     S
Cu1421 O1455   1.931   .     S
Cu1421 Cu1422  2.681   .     S
Cu1422 O1450   1.960   .     S
Cu1422 O1454   1.932   .     S
Cu1422 O1452   1.954   .     S
Cu1422 O1456   1.931   .     S
Cu1422 N1444   2.014   .     S
H1427  N1447   1.031   .     S
H1431  N1448   1.031   .     S
H1438  N1445   1.029   .     S
H1442  N1446   1.029   .     S
C1457  C1460   1.446   .     S
C1457  O1508   1.292   .     A
C1457  O1505   1.286   .     A
C1458  C1460   1.409   .     A
C1458  N1504   1.427   .     S
C1459  C1476   1.409   .     A
C1459  C1475   1.407   .     A
C1459  C1468   1.446   .     S
C1460  C1474   1.407   .     A
C1461  H1479   1.082   .     S
C1461  N1500   1.368   .     A
C1462  N1499   1.368   .     A
C1462  H1490   1.082   .     S
C1462  C1127   1.417   1_565 S
C1463  H1492   1.082   .     S
C1463  N1500   1.367   .     A
C1464  N1499   1.367   .     A
C1464  H1493   1.082   .     S
C1464  C1125   1.417   1_565 S
C1465  H1497   1.110   .     S
C1465  N1501   1.447   .     S
C1465  H1496   1.110   .     S
C1465  H1495   1.111   .     S
C1466  N1502   1.448   .     S
C1466  H1482   1.111   .     S
C1466  H1481   1.111   .     S
C1466  H1480   1.111   .     S
C1467  N1503   1.450   .     S
C1467  H1484   1.109   .     S
C1467  H1485   1.110   .     S
C1467  H1486   1.110   .     S
C1468  O1507   1.292   .     A
C1468  O1506   1.286   .     A
C1469  N1504   1.450   .     S
C1469  H1489   1.110   .     S
C1469  H1488   1.109   .     S
C1469  H1491   1.110   .     S
C1470  O1512   1.287   .     A
C1470  O1509   1.288   .     A
C1470  C1472   1.407   .     S
C1471  C1473   1.407   .     S
C1471  O1510   1.288   .     A
C1471  O1511   1.287   .     A
C1473  C464    1.189   1_556 S
C1474  N1501   1.428   .     S
C1475  N1502   1.428   .     S
C1475  C1346   1.403   1_655 S
C1476  N1503   1.427   .     S
C1476  C1362   1.403   1_655 S
Cu1477 O1505   1.960   .     S
Cu1477 N1499   2.014   .     S
Cu1477 O1509   1.932   .     S
Cu1477 O1507   1.954   .     S
Cu1477 O1511   1.931   .     S
Cu1477 Cu1478  2.681   .     S
Cu1478 O1506   1.960   .     S
Cu1478 O1510   1.932   .     S
Cu1478 O1508   1.954   .     S
Cu1478 O1512   1.931   .     S
Cu1478 N1500   2.014   .     S
H1483  N1503   1.031   .     S
H1487  N1504   1.031   .     S
H1494  N1501   1.029   .     S
H1498  N1502   1.029   .     S
