data_str_m2_o10_o18_pcu_sym.50
_audit_creation_date              2020-01-03
_audit_creation_method            'Materials Studio'
_symmetry_space_group_name_H-M    'P1'
_symmetry_Int_Tables_number       1
_symmetry_cell_setting            triclinic
loop_
_symmetry_equiv_pos_as_xyz
  x,y,z
_cell_length_a                    22.4129
_cell_length_b                    26.0797
_cell_length_c                    31.6377
_cell_angle_alpha                 93.7463
_cell_angle_beta                  76.6425
_cell_angle_gamma                 102.8608
loop_
_atom_site_label
_atom_site_type_symbol
_atom_site_fract_x
_atom_site_fract_y
_atom_site_fract_z
_atom_site_U_iso_or_equiv
_atom_site_adp_type
_atom_site_occupancy
C1     C     0.18178   0.26667   0.25097   0.00000  Uiso   1.00
C2     C     0.20461   0.17299   0.16728   0.00000  Uiso   1.00
C3     C     0.10701   0.16920   0.38046   0.00000  Uiso   1.00
C4     C     0.22579   0.18672   0.12113   0.00000  Uiso   1.00
C5     C     0.02134   0.15432   0.44333   0.00000  Uiso   1.00
C6     C     0.30206   0.23013   0.06020   0.00000  Uiso   1.00
C7     C     0.04402   0.17039   0.40005   0.00000  Uiso   1.00
C8     C     0.28675   0.21486   0.10345   0.00000  Uiso   1.00
C9     C     0.14934   0.17207   0.40722   0.00000  Uiso   1.00
C10    C     0.18110   0.17547   0.09546   0.00000  Uiso   1.00
C11    C     0.12864   0.17245   0.45268   0.00000  Uiso   1.00
C12    C     0.15238   0.06674   0.24752   0.00000  Uiso   1.00
C13    C     0.19503   0.19169   0.05224   0.00000  Uiso   1.00
C14    C     0.06372   0.15547   0.47035   0.00000  Uiso   1.00
C15    C     0.25684   0.22011   0.03475   0.00000  Uiso   1.00
C16    C     0.17074   0.18859   0.48054   0.00000  Uiso   1.00
C17    C     0.15028   0.17846   0.02541   0.00000  Uiso   1.00
C18    C     0.30124   0.08816   0.06717   0.00000  Uiso   1.00
C19    C     0.23632   0.05149   0.07426   0.00000  Uiso   1.00
C20    C     0.21875   0.02670   0.11914   0.00000  Uiso   1.00
C21    C     0.00745   0.31654   0.48223   0.00000  Uiso   1.00
C22    C     0.07595   0.01124   0.46561   0.00000  Uiso   1.00
C23    C     0.08618   0.15537   0.04170   0.00000  Uiso   1.00
C24    C     0.12044   0.32583   0.48816   0.00000  Uiso   1.00
C25    C     0.00267   0.27189   0.14908   0.00000  Uiso   1.00
C26    C     0.04301   0.31679   0.11952   0.00000  Uiso   1.00
C27    C     0.05696   0.03458   0.14513   0.00000  Uiso   1.00
C28    C     0.03419   0.24284   0.36595   0.00000  Uiso   1.00
C29    C     0.31842   0.27356   0.36087   0.00000  Uiso   1.00
C30    C     0.01167   0.31635   0.32682   0.00000  Uiso   1.00
C31    C     0.23134   0.21865   0.46487   0.00000  Uiso   1.00
C32    C     0.04262   0.14228   0.01451   0.00000  Uiso   1.00
C33    C     0.27331   0.23641   0.49151   0.00000  Uiso   1.00
C34    C     0.19019   0.32260   0.25187   0.00000  Uiso   1.00
C35    C     0.14571   0.01097   0.24405   0.00000  Uiso   1.00
C36    C     0.12916   0.16595   0.33297   0.00000  Uiso   1.00
Cu37   Cu    0.10737   0.16108   0.24517   0.00000  Uiso   1.00
Cu38   Cu    0.22596   0.17225   0.25484   0.00000  Uiso   1.00
H39    H     0.13589   0.15233   0.10985   0.00000  Uiso   1.00
H40    H     0.33178   0.12840   0.21553   0.00000  Uiso   1.00
H41    H     0.30227   0.11430   0.09619   0.00000  Uiso   1.00
H42    H     0.00360   0.06382   0.06431   0.00000  Uiso   1.00
H43    H     0.20051   0.07375   0.07166   0.00000  Uiso   1.00
H44    H     0.23602   0.02005   0.04887   0.00000  Uiso   1.00
H45    H     0.25745   0.01043   0.12510   0.00000  Uiso   1.00
H46    H     0.17759   0.32709   0.12163   0.00000  Uiso   1.00
H47    H     0.20793   0.05653   0.14480   0.00000  Uiso   1.00
H48    H     0.32777   0.32418   0.01773   0.00000  Uiso   1.00
H49    H     0.31070   0.00029   0.46601   0.00000  Uiso   1.00
H50    H     0.19820   0.17354   0.39243   0.00000  Uiso   1.00
H51    H     0.09038   0.00510   0.43001   0.00000  Uiso   1.00
H52    H     0.08031   0.05404   0.47168   0.00000  Uiso   1.00
H53    H     0.10848   0.00091   0.02359   0.00000  Uiso   1.00
H54    H     0.16945   0.01357   0.47487   0.00000  Uiso   1.00
H55    H     0.11763   0.28300   0.48261   0.00000  Uiso   1.00
H56    H     0.02483   0.26989   0.17676   0.00000  Uiso   1.00
H57    H     0.28858   0.27994   0.16349   0.00000  Uiso   1.00
H58    H     0.08732   0.30565   0.10227   0.00000  Uiso   1.00
H59    H     0.01851   0.32334   0.09443   0.00000  Uiso   1.00
H60    H     0.01268   0.04642   0.16188   0.00000  Uiso   1.00
H61    H     0.30464   0.14587   0.45663   0.00000  Uiso   1.00
H62    H     0.08547   0.06597   0.12244   0.00000  Uiso   1.00
H63    H     0.08372   0.02993   0.16954   0.00000  Uiso   1.00
H64    H     0.06825   0.24314   0.33444   0.00000  Uiso   1.00
H65    H     0.06063   0.26490   0.38959   0.00000  Uiso   1.00
H66    H     0.27745   0.24646   0.35171   0.00000  Uiso   1.00
H67    H     0.30235   0.29376   0.39197   0.00000  Uiso   1.00
H68    H     0.05525   0.00885   0.33343   0.00000  Uiso   1.00
H69    H     0.30998   0.00742   0.32755   0.00000  Uiso   1.00
H70    H     0.02161   0.29819   0.29404   0.00000  Uiso   1.00
H71    H     0.01691   0.24878   0.04635   0.00000  Uiso   1.00
H72    H     0.06836   0.15037   0.07593   0.00000  Uiso   1.00
H73    H     0.24640   0.22965   0.43170   0.00000  Uiso   1.00
H74    H     0.23292   0.01267   0.25979   0.00000  Uiso   1.00
H75    H     0.10374   0.32091   0.23519   0.00000  Uiso   1.00
H76    H     0.00161   0.20469   0.28442   0.00000  Uiso   1.00
N77    N     0.31506   0.18068   0.26212   0.00000  Uiso   1.00
N78    N     0.01827   0.15265   0.23788   0.00000  Uiso   1.00
O79    O     0.12815   0.23809   0.24686   0.00000  Uiso   1.00
O80    O     0.00050   0.26219   0.47276   0.00000  Uiso   1.00
O81    O     0.00010   0.22301   0.12664   0.00000  Uiso   1.00
O82    O     0.00557   0.18990   0.37905   0.00000  Uiso   1.00
O83    O     0.20518   0.09524   0.25314   0.00000  Uiso   1.00
O84    O     0.22829   0.24753   0.25503   0.00000  Uiso   1.00
O85    O     0.10504   0.08580   0.24498   0.00000  Uiso   1.00
O86    O     0.08851   0.15930   0.30855   0.00000  Uiso   1.00
O87    O     0.24482   0.17403   0.19146   0.00000  Uiso   1.00
O88    O     0.18866   0.16874   0.31671   0.00000  Uiso   1.00
O89    O     0.14468   0.16460   0.18329   0.00000  Uiso   1.00
O90    O     0.31249   0.11857   0.02954   0.00000  Uiso   1.00
C91    C     0.51511   0.26667   0.25097   0.00000  Uiso   1.00
C92    C     0.53794   0.17299   0.16728   0.00000  Uiso   1.00
C93    C     0.44034   0.16920   0.38046   0.00000  Uiso   1.00
C94    C     0.55912   0.18672   0.12113   0.00000  Uiso   1.00
C95    C     0.35467   0.15432   0.44333   0.00000  Uiso   1.00
C96    C     0.63539   0.23013   0.06020   0.00000  Uiso   1.00
C97    C     0.37735   0.17039   0.40005   0.00000  Uiso   1.00
C98    C     0.62008   0.21486   0.10345   0.00000  Uiso   1.00
C99    C     0.48267   0.17207   0.40722   0.00000  Uiso   1.00
C100   C     0.51443   0.17547   0.09546   0.00000  Uiso   1.00
C101   C     0.46197   0.17245   0.45268   0.00000  Uiso   1.00
C102   C     0.48571   0.06674   0.24752   0.00000  Uiso   1.00
C103   C     0.52836   0.19169   0.05224   0.00000  Uiso   1.00
C104   C     0.39705   0.15547   0.47035   0.00000  Uiso   1.00
C105   C     0.59017   0.22011   0.03475   0.00000  Uiso   1.00
C106   C     0.50407   0.18859   0.48054   0.00000  Uiso   1.00
C107   C     0.48361   0.17846   0.02541   0.00000  Uiso   1.00
C108   C     0.63458   0.08816   0.06717   0.00000  Uiso   1.00
C109   C     0.56966   0.05149   0.07426   0.00000  Uiso   1.00
C110   C     0.55209   0.02670   0.11914   0.00000  Uiso   1.00
C111   C     0.34079   0.31654   0.48223   0.00000  Uiso   1.00
C112   C     0.40928   0.01124   0.46561   0.00000  Uiso   1.00
C113   C     0.41951   0.15537   0.04170   0.00000  Uiso   1.00
C114   C     0.45377   0.32583   0.48816   0.00000  Uiso   1.00
C115   C     0.33601   0.27189   0.14908   0.00000  Uiso   1.00
C116   C     0.37635   0.31679   0.11952   0.00000  Uiso   1.00
C117   C     0.39029   0.03458   0.14513   0.00000  Uiso   1.00
C118   C     0.36752   0.24284   0.36595   0.00000  Uiso   1.00
C119   C     0.65175   0.27356   0.36087   0.00000  Uiso   1.00
C120   C     0.34500   0.31635   0.32682   0.00000  Uiso   1.00
C121   C     0.56468   0.21865   0.46487   0.00000  Uiso   1.00
C122   C     0.37595   0.14228   0.01451   0.00000  Uiso   1.00
C123   C     0.60664   0.23641   0.49151   0.00000  Uiso   1.00
C124   C     0.52352   0.32260   0.25187   0.00000  Uiso   1.00
C125   C     0.47904   0.01097   0.24405   0.00000  Uiso   1.00
C126   C     0.46249   0.16595   0.33297   0.00000  Uiso   1.00
Cu127  Cu    0.44071   0.16108   0.24517   0.00000  Uiso   1.00
Cu128  Cu    0.55929   0.17225   0.25484   0.00000  Uiso   1.00
H129   H     0.46922   0.15233   0.10985   0.00000  Uiso   1.00
H130   H     0.66511   0.12840   0.21553   0.00000  Uiso   1.00
H131   H     0.63560   0.11430   0.09619   0.00000  Uiso   1.00
H132   H     0.33693   0.06382   0.06431   0.00000  Uiso   1.00
H133   H     0.53384   0.07375   0.07166   0.00000  Uiso   1.00
H134   H     0.56935   0.02005   0.04887   0.00000  Uiso   1.00
H135   H     0.59079   0.01043   0.12510   0.00000  Uiso   1.00
H136   H     0.51092   0.32709   0.12163   0.00000  Uiso   1.00
H137   H     0.54127   0.05653   0.14480   0.00000  Uiso   1.00
H138   H     0.66110   0.32418   0.01773   0.00000  Uiso   1.00
H139   H     0.64403   0.00029   0.46601   0.00000  Uiso   1.00
H140   H     0.53154   0.17354   0.39243   0.00000  Uiso   1.00
H141   H     0.42371   0.00510   0.43001   0.00000  Uiso   1.00
H142   H     0.41365   0.05404   0.47168   0.00000  Uiso   1.00
H143   H     0.44181   0.00091   0.02359   0.00000  Uiso   1.00
H144   H     0.50278   0.01357   0.47487   0.00000  Uiso   1.00
H145   H     0.45096   0.28300   0.48261   0.00000  Uiso   1.00
H146   H     0.35817   0.26989   0.17676   0.00000  Uiso   1.00
H147   H     0.62191   0.27994   0.16349   0.00000  Uiso   1.00
H148   H     0.42065   0.30565   0.10227   0.00000  Uiso   1.00
H149   H     0.35184   0.32334   0.09443   0.00000  Uiso   1.00
H150   H     0.34601   0.04642   0.16188   0.00000  Uiso   1.00
H151   H     0.63797   0.14587   0.45663   0.00000  Uiso   1.00
H152   H     0.41880   0.06597   0.12244   0.00000  Uiso   1.00
H153   H     0.41706   0.02993   0.16954   0.00000  Uiso   1.00
H154   H     0.40158   0.24314   0.33444   0.00000  Uiso   1.00
H155   H     0.39396   0.26490   0.38959   0.00000  Uiso   1.00
H156   H     0.61078   0.24646   0.35171   0.00000  Uiso   1.00
H157   H     0.63568   0.29376   0.39197   0.00000  Uiso   1.00
H158   H     0.38859   0.00885   0.33343   0.00000  Uiso   1.00
H159   H     0.64331   0.00742   0.32755   0.00000  Uiso   1.00
H160   H     0.35494   0.29819   0.29404   0.00000  Uiso   1.00
H161   H     0.35025   0.24878   0.04635   0.00000  Uiso   1.00
H162   H     0.40169   0.15037   0.07593   0.00000  Uiso   1.00
H163   H     0.57973   0.22965   0.43170   0.00000  Uiso   1.00
H164   H     0.56625   0.01267   0.25979   0.00000  Uiso   1.00
H165   H     0.43707   0.32091   0.23519   0.00000  Uiso   1.00
H166   H     0.33495   0.20469   0.28442   0.00000  Uiso   1.00
N167   N     0.64839   0.18068   0.26212   0.00000  Uiso   1.00
N168   N     0.35161   0.15265   0.23788   0.00000  Uiso   1.00
O169   O     0.46148   0.23809   0.24686   0.00000  Uiso   1.00
O170   O     0.33383   0.26219   0.47276   0.00000  Uiso   1.00
O171   O     0.33343   0.22301   0.12664   0.00000  Uiso   1.00
O172   O     0.33891   0.18990   0.37905   0.00000  Uiso   1.00
O173   O     0.53852   0.09524   0.25314   0.00000  Uiso   1.00
O174   O     0.56163   0.24753   0.25503   0.00000  Uiso   1.00
O175   O     0.43837   0.08580   0.24498   0.00000  Uiso   1.00
O176   O     0.42185   0.15930   0.30855   0.00000  Uiso   1.00
O177   O     0.57815   0.17403   0.19146   0.00000  Uiso   1.00
O178   O     0.52199   0.16874   0.31671   0.00000  Uiso   1.00
O179   O     0.47801   0.16460   0.18329   0.00000  Uiso   1.00
O180   O     0.64583   0.11857   0.02954   0.00000  Uiso   1.00
C181   C     0.84845   0.26667   0.25097   0.00000  Uiso   1.00
C182   C     0.87128   0.17299   0.16728   0.00000  Uiso   1.00
C183   C     0.77368   0.16920   0.38046   0.00000  Uiso   1.00
C184   C     0.89245   0.18672   0.12113   0.00000  Uiso   1.00
C185   C     0.68801   0.15432   0.44333   0.00000  Uiso   1.00
C186   C     0.96872   0.23013   0.06020   0.00000  Uiso   1.00
C187   C     0.71068   0.17039   0.40005   0.00000  Uiso   1.00
C188   C     0.95341   0.21486   0.10345   0.00000  Uiso   1.00
C189   C     0.81600   0.17207   0.40722   0.00000  Uiso   1.00
C190   C     0.84777   0.17547   0.09546   0.00000  Uiso   1.00
C191   C     0.79530   0.17245   0.45268   0.00000  Uiso   1.00
C192   C     0.81904   0.06674   0.24752   0.00000  Uiso   1.00
C193   C     0.86170   0.19169   0.05224   0.00000  Uiso   1.00
C194   C     0.73039   0.15547   0.47035   0.00000  Uiso   1.00
C195   C     0.92351   0.22011   0.03475   0.00000  Uiso   1.00
C196   C     0.83740   0.18859   0.48054   0.00000  Uiso   1.00
C197   C     0.81694   0.17846   0.02541   0.00000  Uiso   1.00
C198   C     0.96791   0.08816   0.06717   0.00000  Uiso   1.00
C199   C     0.90299   0.05149   0.07426   0.00000  Uiso   1.00
C200   C     0.88542   0.02670   0.11914   0.00000  Uiso   1.00
C201   C     0.67412   0.31654   0.48223   0.00000  Uiso   1.00
C202   C     0.74262   0.01124   0.46561   0.00000  Uiso   1.00
C203   C     0.75285   0.15537   0.04170   0.00000  Uiso   1.00
C204   C     0.78711   0.32583   0.48816   0.00000  Uiso   1.00
C205   C     0.66934   0.27189   0.14908   0.00000  Uiso   1.00
C206   C     0.70968   0.31679   0.11952   0.00000  Uiso   1.00
C207   C     0.72363   0.03458   0.14513   0.00000  Uiso   1.00
C208   C     0.70086   0.24284   0.36595   0.00000  Uiso   1.00
C209   C     0.98508   0.27356   0.36087   0.00000  Uiso   1.00
C210   C     0.67834   0.31635   0.32682   0.00000  Uiso   1.00
C211   C     0.89801   0.21865   0.46487   0.00000  Uiso   1.00
C212   C     0.70929   0.14228   0.01451   0.00000  Uiso   1.00
C213   C     0.93998   0.23641   0.49151   0.00000  Uiso   1.00
C214   C     0.85685   0.32260   0.25187   0.00000  Uiso   1.00
C215   C     0.81238   0.01097   0.24405   0.00000  Uiso   1.00
C216   C     0.79583   0.16595   0.33297   0.00000  Uiso   1.00
Cu217  Cu    0.77404   0.16108   0.24517   0.00000  Uiso   1.00
Cu218  Cu    0.89263   0.17225   0.25484   0.00000  Uiso   1.00
H219   H     0.80255   0.15233   0.10985   0.00000  Uiso   1.00
H220   H     0.99845   0.12840   0.21553   0.00000  Uiso   1.00
H221   H     0.96893   0.11430   0.09619   0.00000  Uiso   1.00
H222   H     0.67027   0.06382   0.06431   0.00000  Uiso   1.00
H223   H     0.86717   0.07375   0.07166   0.00000  Uiso   1.00
H224   H     0.90268   0.02005   0.04887   0.00000  Uiso   1.00
H225   H     0.92412   0.01043   0.12510   0.00000  Uiso   1.00
H226   H     0.84425   0.32709   0.12163   0.00000  Uiso   1.00
H227   H     0.87460   0.05653   0.14480   0.00000  Uiso   1.00
H228   H     0.99443   0.32418   0.01773   0.00000  Uiso   1.00
H229   H     0.97736   0.00029   0.46601   0.00000  Uiso   1.00
H230   H     0.86487   0.17354   0.39243   0.00000  Uiso   1.00
H231   H     0.75705   0.00510   0.43001   0.00000  Uiso   1.00
H232   H     0.74698   0.05404   0.47168   0.00000  Uiso   1.00
H233   H     0.77515   0.00091   0.02359   0.00000  Uiso   1.00
H234   H     0.83612   0.01357   0.47487   0.00000  Uiso   1.00
H235   H     0.78429   0.28300   0.48261   0.00000  Uiso   1.00
H236   H     0.69150   0.26989   0.17676   0.00000  Uiso   1.00
H237   H     0.95524   0.27994   0.16349   0.00000  Uiso   1.00
H238   H     0.75398   0.30565   0.10227   0.00000  Uiso   1.00
H239   H     0.68518   0.32334   0.09443   0.00000  Uiso   1.00
H240   H     0.67934   0.04642   0.16188   0.00000  Uiso   1.00
H241   H     0.97130   0.14587   0.45663   0.00000  Uiso   1.00
H242   H     0.75213   0.06597   0.12244   0.00000  Uiso   1.00
H243   H     0.75039   0.02993   0.16954   0.00000  Uiso   1.00
H244   H     0.73492   0.24314   0.33444   0.00000  Uiso   1.00
H245   H     0.72730   0.26490   0.38959   0.00000  Uiso   1.00
H246   H     0.94412   0.24646   0.35171   0.00000  Uiso   1.00
H247   H     0.96901   0.29376   0.39197   0.00000  Uiso   1.00
H248   H     0.72192   0.00885   0.33343   0.00000  Uiso   1.00
H249   H     0.97665   0.00742   0.32755   0.00000  Uiso   1.00
H250   H     0.68828   0.29819   0.29404   0.00000  Uiso   1.00
H251   H     0.68358   0.24878   0.04635   0.00000  Uiso   1.00
H252   H     0.73503   0.15037   0.07593   0.00000  Uiso   1.00
H253   H     0.91306   0.22965   0.43170   0.00000  Uiso   1.00
H254   H     0.89959   0.01267   0.25979   0.00000  Uiso   1.00
H255   H     0.77041   0.32091   0.23519   0.00000  Uiso   1.00
H256   H     0.66828   0.20469   0.28442   0.00000  Uiso   1.00
N257   N     0.98173   0.18068   0.26212   0.00000  Uiso   1.00
N258   N     0.68494   0.15265   0.23788   0.00000  Uiso   1.00
O259   O     0.79482   0.23809   0.24686   0.00000  Uiso   1.00
O260   O     0.66716   0.26219   0.47276   0.00000  Uiso   1.00
O261   O     0.66677   0.22301   0.12664   0.00000  Uiso   1.00
O262   O     0.67224   0.18990   0.37905   0.00000  Uiso   1.00
O263   O     0.87185   0.09524   0.25314   0.00000  Uiso   1.00
O264   O     0.89496   0.24753   0.25503   0.00000  Uiso   1.00
O265   O     0.77171   0.08580   0.24498   0.00000  Uiso   1.00
O266   O     0.75518   0.15930   0.30855   0.00000  Uiso   1.00
O267   O     0.91149   0.17403   0.19146   0.00000  Uiso   1.00
O268   O     0.85532   0.16874   0.31671   0.00000  Uiso   1.00
O269   O     0.81134   0.16460   0.18329   0.00000  Uiso   1.00
O270   O     0.97916   0.11857   0.02954   0.00000  Uiso   1.00
C271   C     0.18178   0.60000   0.25097   0.00000  Uiso   1.00
C272   C     0.20461   0.50632   0.16728   0.00000  Uiso   1.00
C273   C     0.10701   0.50253   0.38046   0.00000  Uiso   1.00
C274   C     0.22579   0.52006   0.12113   0.00000  Uiso   1.00
C275   C     0.02134   0.48765   0.44333   0.00000  Uiso   1.00
C276   C     0.30206   0.56347   0.06020   0.00000  Uiso   1.00
C277   C     0.04402   0.50372   0.40005   0.00000  Uiso   1.00
C278   C     0.28675   0.54819   0.10345   0.00000  Uiso   1.00
C279   C     0.14934   0.50540   0.40722   0.00000  Uiso   1.00
C280   C     0.18110   0.50880   0.09546   0.00000  Uiso   1.00
C281   C     0.12864   0.50578   0.45268   0.00000  Uiso   1.00
C282   C     0.15238   0.40007   0.24752   0.00000  Uiso   1.00
C283   C     0.19503   0.52503   0.05224   0.00000  Uiso   1.00
C284   C     0.06372   0.48880   0.47035   0.00000  Uiso   1.00
C285   C     0.25684   0.55344   0.03475   0.00000  Uiso   1.00
C286   C     0.17074   0.52192   0.48054   0.00000  Uiso   1.00
C287   C     0.15028   0.51179   0.02541   0.00000  Uiso   1.00
C288   C     0.30124   0.42149   0.06717   0.00000  Uiso   1.00
C289   C     0.23632   0.38483   0.07426   0.00000  Uiso   1.00
C290   C     0.21875   0.36003   0.11914   0.00000  Uiso   1.00
C291   C     0.00745   0.64988   0.48223   0.00000  Uiso   1.00
C292   C     0.07595   0.34458   0.46561   0.00000  Uiso   1.00
C293   C     0.08618   0.48871   0.04170   0.00000  Uiso   1.00
C294   C     0.12044   0.65917   0.48816   0.00000  Uiso   1.00
C295   C     0.00267   0.60523   0.14908   0.00000  Uiso   1.00
C296   C     0.04301   0.65012   0.11952   0.00000  Uiso   1.00
C297   C     0.05696   0.36791   0.14513   0.00000  Uiso   1.00
C298   C     0.03419   0.57618   0.36595   0.00000  Uiso   1.00
C299   C     0.31842   0.60689   0.36087   0.00000  Uiso   1.00
C300   C     0.01167   0.64969   0.32682   0.00000  Uiso   1.00
C301   C     0.23134   0.55199   0.46487   0.00000  Uiso   1.00
C302   C     0.04262   0.47561   0.01451   0.00000  Uiso   1.00
C303   C     0.27331   0.56974   0.49151   0.00000  Uiso   1.00
C304   C     0.19019   0.65593   0.25187   0.00000  Uiso   1.00
C305   C     0.14571   0.34430   0.24405   0.00000  Uiso   1.00
C306   C     0.12916   0.49928   0.33297   0.00000  Uiso   1.00
Cu307  Cu    0.10737   0.49441   0.24517   0.00000  Uiso   1.00
Cu308  Cu    0.22596   0.50559   0.25484   0.00000  Uiso   1.00
H309   H     0.13589   0.48566   0.10985   0.00000  Uiso   1.00
H310   H     0.33178   0.46173   0.21553   0.00000  Uiso   1.00
H311   H     0.30227   0.44763   0.09619   0.00000  Uiso   1.00
H312   H     0.00360   0.39716   0.06431   0.00000  Uiso   1.00
H313   H     0.20051   0.40708   0.07166   0.00000  Uiso   1.00
H314   H     0.23602   0.35338   0.04887   0.00000  Uiso   1.00
H315   H     0.25745   0.34377   0.12510   0.00000  Uiso   1.00
H316   H     0.17759   0.66043   0.12163   0.00000  Uiso   1.00
H317   H     0.20793   0.38986   0.14480   0.00000  Uiso   1.00
H318   H     0.32777   0.65752   0.01773   0.00000  Uiso   1.00
H319   H     0.31070   0.33363   0.46601   0.00000  Uiso   1.00
H320   H     0.19820   0.50687   0.39243   0.00000  Uiso   1.00
H321   H     0.09038   0.33843   0.43001   0.00000  Uiso   1.00
H322   H     0.08031   0.38737   0.47168   0.00000  Uiso   1.00
H323   H     0.10848   0.33424   0.02359   0.00000  Uiso   1.00
H324   H     0.16945   0.34691   0.47487   0.00000  Uiso   1.00
H325   H     0.11763   0.61633   0.48261   0.00000  Uiso   1.00
H326   H     0.02483   0.60322   0.17676   0.00000  Uiso   1.00
H327   H     0.28858   0.61327   0.16349   0.00000  Uiso   1.00
H328   H     0.08732   0.63899   0.10227   0.00000  Uiso   1.00
H329   H     0.01851   0.65667   0.09443   0.00000  Uiso   1.00
H330   H     0.01268   0.37975   0.16188   0.00000  Uiso   1.00
H331   H     0.30464   0.47920   0.45663   0.00000  Uiso   1.00
H332   H     0.08547   0.39930   0.12244   0.00000  Uiso   1.00
H333   H     0.08372   0.36326   0.16954   0.00000  Uiso   1.00
H334   H     0.06825   0.57647   0.33444   0.00000  Uiso   1.00
H335   H     0.06063   0.59824   0.38959   0.00000  Uiso   1.00
H336   H     0.27745   0.57979   0.35171   0.00000  Uiso   1.00
H337   H     0.30235   0.62710   0.39197   0.00000  Uiso   1.00
H338   H     0.05525   0.34218   0.33343   0.00000  Uiso   1.00
H339   H     0.30998   0.34075   0.32755   0.00000  Uiso   1.00
H340   H     0.02161   0.63153   0.29404   0.00000  Uiso   1.00
H341   H     0.01691   0.58211   0.04635   0.00000  Uiso   1.00
H342   H     0.06836   0.48370   0.07593   0.00000  Uiso   1.00
H343   H     0.24640   0.56299   0.43170   0.00000  Uiso   1.00
H344   H     0.23292   0.34600   0.25979   0.00000  Uiso   1.00
H345   H     0.10374   0.65424   0.23519   0.00000  Uiso   1.00
H346   H     0.00161   0.53803   0.28442   0.00000  Uiso   1.00
N347   N     0.31506   0.51401   0.26212   0.00000  Uiso   1.00
N348   N     0.01827   0.48599   0.23788   0.00000  Uiso   1.00
O349   O     0.12815   0.57142   0.24686   0.00000  Uiso   1.00
O350   O     0.00050   0.59552   0.47276   0.00000  Uiso   1.00
O351   O     0.00010   0.55634   0.12664   0.00000  Uiso   1.00
O352   O     0.00557   0.52324   0.37905   0.00000  Uiso   1.00
O353   O     0.20518   0.42858   0.25314   0.00000  Uiso   1.00
O354   O     0.22829   0.58086   0.25503   0.00000  Uiso   1.00
O355   O     0.10504   0.41914   0.24498   0.00000  Uiso   1.00
O356   O     0.08851   0.49263   0.30855   0.00000  Uiso   1.00
O357   O     0.24482   0.50737   0.19146   0.00000  Uiso   1.00
O358   O     0.18866   0.50207   0.31671   0.00000  Uiso   1.00
O359   O     0.14468   0.49793   0.18329   0.00000  Uiso   1.00
O360   O     0.31249   0.45191   0.02954   0.00000  Uiso   1.00
C361   C     0.51511   0.60000   0.25097   0.00000  Uiso   1.00
C362   C     0.53794   0.50632   0.16728   0.00000  Uiso   1.00
C363   C     0.44034   0.50253   0.38046   0.00000  Uiso   1.00
C364   C     0.55912   0.52006   0.12113   0.00000  Uiso   1.00
C365   C     0.35467   0.48765   0.44333   0.00000  Uiso   1.00
C366   C     0.63539   0.56347   0.06020   0.00000  Uiso   1.00
C367   C     0.37735   0.50372   0.40005   0.00000  Uiso   1.00
C368   C     0.62008   0.54819   0.10345   0.00000  Uiso   1.00
C369   C     0.48267   0.50540   0.40722   0.00000  Uiso   1.00
C370   C     0.51443   0.50880   0.09546   0.00000  Uiso   1.00
C371   C     0.46197   0.50578   0.45268   0.00000  Uiso   1.00
C372   C     0.48571   0.40007   0.24752   0.00000  Uiso   1.00
C373   C     0.52836   0.52503   0.05224   0.00000  Uiso   1.00
C374   C     0.39705   0.48880   0.47035   0.00000  Uiso   1.00
C375   C     0.59017   0.55344   0.03475   0.00000  Uiso   1.00
C376   C     0.50407   0.52192   0.48054   0.00000  Uiso   1.00
C377   C     0.48361   0.51179   0.02541   0.00000  Uiso   1.00
C378   C     0.63458   0.42149   0.06717   0.00000  Uiso   1.00
C379   C     0.56966   0.38483   0.07426   0.00000  Uiso   1.00
C380   C     0.55209   0.36003   0.11914   0.00000  Uiso   1.00
C381   C     0.34079   0.64988   0.48223   0.00000  Uiso   1.00
C382   C     0.40928   0.34458   0.46561   0.00000  Uiso   1.00
C383   C     0.41951   0.48871   0.04170   0.00000  Uiso   1.00
C384   C     0.45377   0.65917   0.48816   0.00000  Uiso   1.00
C385   C     0.33601   0.60523   0.14908   0.00000  Uiso   1.00
C386   C     0.37635   0.65012   0.11952   0.00000  Uiso   1.00
C387   C     0.39029   0.36791   0.14513   0.00000  Uiso   1.00
C388   C     0.36752   0.57618   0.36595   0.00000  Uiso   1.00
C389   C     0.65175   0.60689   0.36087   0.00000  Uiso   1.00
C390   C     0.34500   0.64969   0.32682   0.00000  Uiso   1.00
C391   C     0.56468   0.55199   0.46487   0.00000  Uiso   1.00
C392   C     0.37595   0.47561   0.01451   0.00000  Uiso   1.00
C393   C     0.60664   0.56974   0.49151   0.00000  Uiso   1.00
C394   C     0.52352   0.65593   0.25187   0.00000  Uiso   1.00
C395   C     0.47904   0.34430   0.24405   0.00000  Uiso   1.00
C396   C     0.46249   0.49928   0.33297   0.00000  Uiso   1.00
Cu397  Cu    0.44071   0.49441   0.24517   0.00000  Uiso   1.00
Cu398  Cu    0.55929   0.50559   0.25484   0.00000  Uiso   1.00
H399   H     0.46922   0.48566   0.10985   0.00000  Uiso   1.00
H400   H     0.66511   0.46173   0.21553   0.00000  Uiso   1.00
H401   H     0.63560   0.44763   0.09619   0.00000  Uiso   1.00
H402   H     0.33693   0.39716   0.06431   0.00000  Uiso   1.00
H403   H     0.53384   0.40708   0.07166   0.00000  Uiso   1.00
H404   H     0.56935   0.35338   0.04887   0.00000  Uiso   1.00
H405   H     0.59079   0.34377   0.12510   0.00000  Uiso   1.00
H406   H     0.51092   0.66043   0.12163   0.00000  Uiso   1.00
H407   H     0.54127   0.38986   0.14480   0.00000  Uiso   1.00
H408   H     0.66110   0.65752   0.01773   0.00000  Uiso   1.00
H409   H     0.64403   0.33363   0.46601   0.00000  Uiso   1.00
H410   H     0.53154   0.50687   0.39243   0.00000  Uiso   1.00
H411   H     0.42371   0.33843   0.43001   0.00000  Uiso   1.00
H412   H     0.41365   0.38737   0.47168   0.00000  Uiso   1.00
H413   H     0.44181   0.33424   0.02359   0.00000  Uiso   1.00
H414   H     0.50278   0.34691   0.47487   0.00000  Uiso   1.00
H415   H     0.45096   0.61633   0.48261   0.00000  Uiso   1.00
H416   H     0.35817   0.60322   0.17676   0.00000  Uiso   1.00
H417   H     0.62191   0.61327   0.16349   0.00000  Uiso   1.00
H418   H     0.42065   0.63899   0.10227   0.00000  Uiso   1.00
H419   H     0.35184   0.65667   0.09443   0.00000  Uiso   1.00
H420   H     0.34601   0.37975   0.16188   0.00000  Uiso   1.00
H421   H     0.63797   0.47920   0.45663   0.00000  Uiso   1.00
H422   H     0.41880   0.39930   0.12244   0.00000  Uiso   1.00
H423   H     0.41706   0.36326   0.16954   0.00000  Uiso   1.00
H424   H     0.40158   0.57647   0.33444   0.00000  Uiso   1.00
H425   H     0.39396   0.59824   0.38959   0.00000  Uiso   1.00
H426   H     0.61078   0.57979   0.35171   0.00000  Uiso   1.00
H427   H     0.63568   0.62710   0.39197   0.00000  Uiso   1.00
H428   H     0.38859   0.34218   0.33343   0.00000  Uiso   1.00
H429   H     0.64331   0.34075   0.32755   0.00000  Uiso   1.00
H430   H     0.35494   0.63153   0.29404   0.00000  Uiso   1.00
H431   H     0.35025   0.58211   0.04635   0.00000  Uiso   1.00
H432   H     0.40169   0.48370   0.07593   0.00000  Uiso   1.00
H433   H     0.57973   0.56299   0.43170   0.00000  Uiso   1.00
H434   H     0.56625   0.34600   0.25979   0.00000  Uiso   1.00
H435   H     0.43707   0.65424   0.23519   0.00000  Uiso   1.00
H436   H     0.33495   0.53803   0.28442   0.00000  Uiso   1.00
N437   N     0.64839   0.51401   0.26212   0.00000  Uiso   1.00
N438   N     0.35161   0.48599   0.23788   0.00000  Uiso   1.00
O439   O     0.46148   0.57142   0.24686   0.00000  Uiso   1.00
O440   O     0.33383   0.59552   0.47276   0.00000  Uiso   1.00
O441   O     0.33343   0.55634   0.12664   0.00000  Uiso   1.00
O442   O     0.33891   0.52324   0.37905   0.00000  Uiso   1.00
O443   O     0.53852   0.42858   0.25314   0.00000  Uiso   1.00
O444   O     0.56163   0.58086   0.25503   0.00000  Uiso   1.00
O445   O     0.43837   0.41914   0.24498   0.00000  Uiso   1.00
O446   O     0.42185   0.49263   0.30855   0.00000  Uiso   1.00
O447   O     0.57815   0.50737   0.19146   0.00000  Uiso   1.00
O448   O     0.52199   0.50207   0.31671   0.00000  Uiso   1.00
O449   O     0.47801   0.49793   0.18329   0.00000  Uiso   1.00
O450   O     0.64583   0.45191   0.02954   0.00000  Uiso   1.00
C451   C     0.84845   0.60000   0.25097   0.00000  Uiso   1.00
C452   C     0.87128   0.50632   0.16728   0.00000  Uiso   1.00
C453   C     0.77368   0.50253   0.38046   0.00000  Uiso   1.00
C454   C     0.89245   0.52006   0.12113   0.00000  Uiso   1.00
C455   C     0.68801   0.48765   0.44333   0.00000  Uiso   1.00
C456   C     0.96872   0.56347   0.06020   0.00000  Uiso   1.00
C457   C     0.71068   0.50372   0.40005   0.00000  Uiso   1.00
C458   C     0.95341   0.54819   0.10345   0.00000  Uiso   1.00
C459   C     0.81600   0.50540   0.40722   0.00000  Uiso   1.00
C460   C     0.84777   0.50880   0.09546   0.00000  Uiso   1.00
C461   C     0.79530   0.50578   0.45268   0.00000  Uiso   1.00
C462   C     0.81904   0.40007   0.24752   0.00000  Uiso   1.00
C463   C     0.86170   0.52503   0.05224   0.00000  Uiso   1.00
C464   C     0.73039   0.48880   0.47035   0.00000  Uiso   1.00
C465   C     0.92351   0.55344   0.03475   0.00000  Uiso   1.00
C466   C     0.83740   0.52192   0.48054   0.00000  Uiso   1.00
C467   C     0.81694   0.51179   0.02541   0.00000  Uiso   1.00
C468   C     0.96791   0.42149   0.06717   0.00000  Uiso   1.00
C469   C     0.90299   0.38483   0.07426   0.00000  Uiso   1.00
C470   C     0.88542   0.36003   0.11914   0.00000  Uiso   1.00
C471   C     0.67412   0.64988   0.48223   0.00000  Uiso   1.00
C472   C     0.74262   0.34458   0.46561   0.00000  Uiso   1.00
C473   C     0.75285   0.48871   0.04170   0.00000  Uiso   1.00
C474   C     0.78711   0.65917   0.48816   0.00000  Uiso   1.00
C475   C     0.66934   0.60523   0.14908   0.00000  Uiso   1.00
C476   C     0.70968   0.65012   0.11952   0.00000  Uiso   1.00
C477   C     0.72363   0.36791   0.14513   0.00000  Uiso   1.00
C478   C     0.70086   0.57618   0.36595   0.00000  Uiso   1.00
C479   C     0.98508   0.60689   0.36087   0.00000  Uiso   1.00
C480   C     0.67834   0.64969   0.32682   0.00000  Uiso   1.00
C481   C     0.89801   0.55199   0.46487   0.00000  Uiso   1.00
C482   C     0.70929   0.47561   0.01451   0.00000  Uiso   1.00
C483   C     0.93998   0.56974   0.49151   0.00000  Uiso   1.00
C484   C     0.85685   0.65593   0.25187   0.00000  Uiso   1.00
C485   C     0.81238   0.34430   0.24405   0.00000  Uiso   1.00
C486   C     0.79583   0.49928   0.33297   0.00000  Uiso   1.00
Cu487  Cu    0.77404   0.49441   0.24517   0.00000  Uiso   1.00
Cu488  Cu    0.89263   0.50559   0.25484   0.00000  Uiso   1.00
H489   H     0.80255   0.48566   0.10985   0.00000  Uiso   1.00
H490   H     0.99845   0.46173   0.21553   0.00000  Uiso   1.00
H491   H     0.96893   0.44763   0.09619   0.00000  Uiso   1.00
H492   H     0.67027   0.39716   0.06431   0.00000  Uiso   1.00
H493   H     0.86717   0.40708   0.07166   0.00000  Uiso   1.00
H494   H     0.90268   0.35338   0.04887   0.00000  Uiso   1.00
H495   H     0.92412   0.34377   0.12510   0.00000  Uiso   1.00
H496   H     0.84425   0.66043   0.12163   0.00000  Uiso   1.00
H497   H     0.87460   0.38986   0.14480   0.00000  Uiso   1.00
H498   H     0.99443   0.65752   0.01773   0.00000  Uiso   1.00
H499   H     0.97736   0.33363   0.46601   0.00000  Uiso   1.00
H500   H     0.86487   0.50687   0.39243   0.00000  Uiso   1.00
H501   H     0.75705   0.33843   0.43001   0.00000  Uiso   1.00
H502   H     0.74698   0.38737   0.47168   0.00000  Uiso   1.00
H503   H     0.77515   0.33424   0.02359   0.00000  Uiso   1.00
H504   H     0.83612   0.34691   0.47487   0.00000  Uiso   1.00
H505   H     0.78429   0.61633   0.48261   0.00000  Uiso   1.00
H506   H     0.69150   0.60322   0.17676   0.00000  Uiso   1.00
H507   H     0.95524   0.61327   0.16349   0.00000  Uiso   1.00
H508   H     0.75398   0.63899   0.10227   0.00000  Uiso   1.00
H509   H     0.68518   0.65667   0.09443   0.00000  Uiso   1.00
H510   H     0.67934   0.37975   0.16188   0.00000  Uiso   1.00
H511   H     0.97130   0.47920   0.45663   0.00000  Uiso   1.00
H512   H     0.75213   0.39930   0.12244   0.00000  Uiso   1.00
H513   H     0.75039   0.36326   0.16954   0.00000  Uiso   1.00
H514   H     0.73492   0.57647   0.33444   0.00000  Uiso   1.00
H515   H     0.72730   0.59824   0.38959   0.00000  Uiso   1.00
H516   H     0.94412   0.57979   0.35171   0.00000  Uiso   1.00
H517   H     0.96901   0.62710   0.39197   0.00000  Uiso   1.00
H518   H     0.72192   0.34218   0.33343   0.00000  Uiso   1.00
H519   H     0.97665   0.34075   0.32755   0.00000  Uiso   1.00
H520   H     0.68828   0.63153   0.29404   0.00000  Uiso   1.00
H521   H     0.68358   0.58211   0.04635   0.00000  Uiso   1.00
H522   H     0.73503   0.48370   0.07593   0.00000  Uiso   1.00
H523   H     0.91306   0.56299   0.43170   0.00000  Uiso   1.00
H524   H     0.89959   0.34600   0.25979   0.00000  Uiso   1.00
H525   H     0.77041   0.65424   0.23519   0.00000  Uiso   1.00
H526   H     0.66828   0.53803   0.28442   0.00000  Uiso   1.00
N527   N     0.98173   0.51401   0.26212   0.00000  Uiso   1.00
N528   N     0.68494   0.48599   0.23788   0.00000  Uiso   1.00
O529   O     0.79482   0.57142   0.24686   0.00000  Uiso   1.00
O530   O     0.66716   0.59552   0.47276   0.00000  Uiso   1.00
O531   O     0.66677   0.55634   0.12664   0.00000  Uiso   1.00
O532   O     0.67224   0.52324   0.37905   0.00000  Uiso   1.00
O533   O     0.87185   0.42858   0.25314   0.00000  Uiso   1.00
O534   O     0.89496   0.58086   0.25503   0.00000  Uiso   1.00
O535   O     0.77171   0.41914   0.24498   0.00000  Uiso   1.00
O536   O     0.75518   0.49263   0.30855   0.00000  Uiso   1.00
O537   O     0.91149   0.50737   0.19146   0.00000  Uiso   1.00
O538   O     0.85532   0.50207   0.31671   0.00000  Uiso   1.00
O539   O     0.81134   0.49793   0.18329   0.00000  Uiso   1.00
O540   O     0.97916   0.45191   0.02954   0.00000  Uiso   1.00
C541   C     0.18178   0.93334   0.25097   0.00000  Uiso   1.00
C542   C     0.20461   0.83965   0.16728   0.00000  Uiso   1.00
C543   C     0.10701   0.83587   0.38046   0.00000  Uiso   1.00
C544   C     0.22579   0.85339   0.12113   0.00000  Uiso   1.00
C545   C     0.02134   0.82099   0.44333   0.00000  Uiso   1.00
C546   C     0.30206   0.89680   0.06020   0.00000  Uiso   1.00
C547   C     0.04402   0.83706   0.40005   0.00000  Uiso   1.00
C548   C     0.28675   0.88153   0.10345   0.00000  Uiso   1.00
C549   C     0.14934   0.83874   0.40722   0.00000  Uiso   1.00
C550   C     0.18110   0.84213   0.09546   0.00000  Uiso   1.00
C551   C     0.12864   0.83911   0.45268   0.00000  Uiso   1.00
C552   C     0.15238   0.73340   0.24752   0.00000  Uiso   1.00
C553   C     0.19503   0.85836   0.05224   0.00000  Uiso   1.00
C554   C     0.06372   0.82214   0.47035   0.00000  Uiso   1.00
C555   C     0.25684   0.88677   0.03475   0.00000  Uiso   1.00
C556   C     0.17074   0.85526   0.48054   0.00000  Uiso   1.00
C557   C     0.15028   0.84513   0.02541   0.00000  Uiso   1.00
C558   C     0.30124   0.75482   0.06717   0.00000  Uiso   1.00
C559   C     0.23632   0.71816   0.07426   0.00000  Uiso   1.00
C560   C     0.21875   0.69337   0.11914   0.00000  Uiso   1.00
C561   C     0.00745   0.98321   0.48223   0.00000  Uiso   1.00
C562   C     0.07595   0.67791   0.46561   0.00000  Uiso   1.00
C563   C     0.08618   0.82204   0.04170   0.00000  Uiso   1.00
C564   C     0.12044   0.99250   0.48816   0.00000  Uiso   1.00
C565   C     0.00267   0.93856   0.14908   0.00000  Uiso   1.00
C566   C     0.04301   0.98346   0.11952   0.00000  Uiso   1.00
C567   C     0.05696   0.70124   0.14513   0.00000  Uiso   1.00
C568   C     0.03419   0.90951   0.36595   0.00000  Uiso   1.00
C569   C     0.31842   0.94022   0.36087   0.00000  Uiso   1.00
C570   C     0.01167   0.98302   0.32682   0.00000  Uiso   1.00
C571   C     0.23134   0.88532   0.46487   0.00000  Uiso   1.00
C572   C     0.04262   0.80894   0.01451   0.00000  Uiso   1.00
C573   C     0.27331   0.90307   0.49151   0.00000  Uiso   1.00
C574   C     0.19019   0.98926   0.25187   0.00000  Uiso   1.00
C575   C     0.14571   0.67763   0.24405   0.00000  Uiso   1.00
C576   C     0.12916   0.83262   0.33297   0.00000  Uiso   1.00
Cu577  Cu    0.10737   0.82775   0.24517   0.00000  Uiso   1.00
Cu578  Cu    0.22596   0.83892   0.25484   0.00000  Uiso   1.00
H579   H     0.13589   0.81899   0.10985   0.00000  Uiso   1.00
H580   H     0.33178   0.79507   0.21553   0.00000  Uiso   1.00
H581   H     0.30227   0.78097   0.09619   0.00000  Uiso   1.00
H582   H     0.00360   0.73049   0.06431   0.00000  Uiso   1.00
H583   H     0.20051   0.74042   0.07166   0.00000  Uiso   1.00
H584   H     0.23602   0.68672   0.04887   0.00000  Uiso   1.00
H585   H     0.25745   0.67710   0.12510   0.00000  Uiso   1.00
H586   H     0.17759   0.99376   0.12163   0.00000  Uiso   1.00
H587   H     0.20793   0.72320   0.14480   0.00000  Uiso   1.00
H588   H     0.32777   0.99085   0.01773   0.00000  Uiso   1.00
H589   H     0.31070   0.66696   0.46601   0.00000  Uiso   1.00
H590   H     0.19820   0.84021   0.39243   0.00000  Uiso   1.00
H591   H     0.09038   0.67176   0.43001   0.00000  Uiso   1.00
H592   H     0.08031   0.72070   0.47168   0.00000  Uiso   1.00
H593   H     0.10848   0.66757   0.02359   0.00000  Uiso   1.00
H594   H     0.16945   0.68024   0.47487   0.00000  Uiso   1.00
H595   H     0.11763   0.94967   0.48261   0.00000  Uiso   1.00
H596   H     0.02483   0.93656   0.17676   0.00000  Uiso   1.00
H597   H     0.28858   0.94661   0.16349   0.00000  Uiso   1.00
H598   H     0.08732   0.97232   0.10227   0.00000  Uiso   1.00
H599   H     0.01851   0.99001   0.09443   0.00000  Uiso   1.00
H600   H     0.01268   0.71308   0.16188   0.00000  Uiso   1.00
H601   H     0.30464   0.81254   0.45663   0.00000  Uiso   1.00
H602   H     0.08547   0.73263   0.12244   0.00000  Uiso   1.00
H603   H     0.08372   0.69660   0.16954   0.00000  Uiso   1.00
H604   H     0.06825   0.90980   0.33444   0.00000  Uiso   1.00
H605   H     0.06063   0.93157   0.38959   0.00000  Uiso   1.00
H606   H     0.27745   0.91312   0.35171   0.00000  Uiso   1.00
H607   H     0.30235   0.96043   0.39197   0.00000  Uiso   1.00
H608   H     0.05525   0.67551   0.33343   0.00000  Uiso   1.00
H609   H     0.30998   0.67408   0.32755   0.00000  Uiso   1.00
H610   H     0.02161   0.96486   0.29404   0.00000  Uiso   1.00
H611   H     0.01691   0.91545   0.04635   0.00000  Uiso   1.00
H612   H     0.06836   0.81704   0.07593   0.00000  Uiso   1.00
H613   H     0.24640   0.89632   0.43170   0.00000  Uiso   1.00
H614   H     0.23292   0.67934   0.25979   0.00000  Uiso   1.00
H615   H     0.10374   0.98757   0.23519   0.00000  Uiso   1.00
H616   H     0.00161   0.87136   0.28442   0.00000  Uiso   1.00
N617   N     0.31506   0.84735   0.26212   0.00000  Uiso   1.00
N618   N     0.01827   0.81932   0.23788   0.00000  Uiso   1.00
O619   O     0.12815   0.90476   0.24686   0.00000  Uiso   1.00
O620   O     0.00050   0.92886   0.47276   0.00000  Uiso   1.00
O621   O     0.00010   0.88967   0.12664   0.00000  Uiso   1.00
O622   O     0.00557   0.85657   0.37905   0.00000  Uiso   1.00
O623   O     0.20518   0.76191   0.25314   0.00000  Uiso   1.00
O624   O     0.22829   0.91420   0.25503   0.00000  Uiso   1.00
O625   O     0.10504   0.75247   0.24498   0.00000  Uiso   1.00
O626   O     0.08851   0.82597   0.30855   0.00000  Uiso   1.00
O627   O     0.24482   0.84070   0.19146   0.00000  Uiso   1.00
O628   O     0.18866   0.83540   0.31671   0.00000  Uiso   1.00
O629   O     0.14468   0.83126   0.18329   0.00000  Uiso   1.00
O630   O     0.31249   0.78524   0.02954   0.00000  Uiso   1.00
C631   C     0.51511   0.93334   0.25097   0.00000  Uiso   1.00
C632   C     0.53794   0.83965   0.16728   0.00000  Uiso   1.00
C633   C     0.44034   0.83587   0.38046   0.00000  Uiso   1.00
C634   C     0.55912   0.85339   0.12113   0.00000  Uiso   1.00
C635   C     0.35467   0.82099   0.44333   0.00000  Uiso   1.00
C636   C     0.63539   0.89680   0.06020   0.00000  Uiso   1.00
C637   C     0.37735   0.83706   0.40005   0.00000  Uiso   1.00
C638   C     0.62008   0.88153   0.10345   0.00000  Uiso   1.00
C639   C     0.48267   0.83874   0.40722   0.00000  Uiso   1.00
C640   C     0.51443   0.84213   0.09546   0.00000  Uiso   1.00
C641   C     0.46197   0.83911   0.45268   0.00000  Uiso   1.00
C642   C     0.48571   0.73340   0.24752   0.00000  Uiso   1.00
C643   C     0.52836   0.85836   0.05224   0.00000  Uiso   1.00
C644   C     0.39705   0.82214   0.47035   0.00000  Uiso   1.00
C645   C     0.59017   0.88677   0.03475   0.00000  Uiso   1.00
C646   C     0.50407   0.85526   0.48054   0.00000  Uiso   1.00
C647   C     0.48361   0.84513   0.02541   0.00000  Uiso   1.00
C648   C     0.63458   0.75482   0.06717   0.00000  Uiso   1.00
C649   C     0.56966   0.71816   0.07426   0.00000  Uiso   1.00
C650   C     0.55209   0.69337   0.11914   0.00000  Uiso   1.00
C651   C     0.34079   0.98321   0.48223   0.00000  Uiso   1.00
C652   C     0.40928   0.67791   0.46561   0.00000  Uiso   1.00
C653   C     0.41951   0.82204   0.04170   0.00000  Uiso   1.00
C654   C     0.45377   0.99250   0.48816   0.00000  Uiso   1.00
C655   C     0.33601   0.93856   0.14908   0.00000  Uiso   1.00
C656   C     0.37635   0.98346   0.11952   0.00000  Uiso   1.00
C657   C     0.39029   0.70124   0.14513   0.00000  Uiso   1.00
C658   C     0.36752   0.90951   0.36595   0.00000  Uiso   1.00
C659   C     0.65175   0.94022   0.36087   0.00000  Uiso   1.00
C660   C     0.34500   0.98302   0.32682   0.00000  Uiso   1.00
C661   C     0.56468   0.88532   0.46487   0.00000  Uiso   1.00
C662   C     0.37595   0.80894   0.01451   0.00000  Uiso   1.00
C663   C     0.60664   0.90307   0.49151   0.00000  Uiso   1.00
C664   C     0.52352   0.98926   0.25187   0.00000  Uiso   1.00
C665   C     0.47904   0.67763   0.24405   0.00000  Uiso   1.00
C666   C     0.46249   0.83262   0.33297   0.00000  Uiso   1.00
Cu667  Cu    0.44071   0.82775   0.24517   0.00000  Uiso   1.00
Cu668  Cu    0.55929   0.83892   0.25484   0.00000  Uiso   1.00
H669   H     0.46922   0.81899   0.10985   0.00000  Uiso   1.00
H670   H     0.66511   0.79507   0.21553   0.00000  Uiso   1.00
H671   H     0.63560   0.78097   0.09619   0.00000  Uiso   1.00
H672   H     0.33693   0.73049   0.06431   0.00000  Uiso   1.00
H673   H     0.53384   0.74042   0.07166   0.00000  Uiso   1.00
H674   H     0.56935   0.68672   0.04887   0.00000  Uiso   1.00
H675   H     0.59079   0.67710   0.12510   0.00000  Uiso   1.00
H676   H     0.51092   0.99376   0.12163   0.00000  Uiso   1.00
H677   H     0.54127   0.72320   0.14480   0.00000  Uiso   1.00
H678   H     0.66110   0.99085   0.01773   0.00000  Uiso   1.00
H679   H     0.64403   0.66696   0.46601   0.00000  Uiso   1.00
H680   H     0.53154   0.84021   0.39243   0.00000  Uiso   1.00
H681   H     0.42371   0.67176   0.43001   0.00000  Uiso   1.00
H682   H     0.41365   0.72070   0.47168   0.00000  Uiso   1.00
H683   H     0.44181   0.66757   0.02359   0.00000  Uiso   1.00
H684   H     0.50278   0.68024   0.47487   0.00000  Uiso   1.00
H685   H     0.45096   0.94967   0.48261   0.00000  Uiso   1.00
H686   H     0.35817   0.93656   0.17676   0.00000  Uiso   1.00
H687   H     0.62191   0.94661   0.16349   0.00000  Uiso   1.00
H688   H     0.42065   0.97232   0.10227   0.00000  Uiso   1.00
H689   H     0.35184   0.99001   0.09443   0.00000  Uiso   1.00
H690   H     0.34601   0.71308   0.16188   0.00000  Uiso   1.00
H691   H     0.63797   0.81254   0.45663   0.00000  Uiso   1.00
H692   H     0.41880   0.73263   0.12244   0.00000  Uiso   1.00
H693   H     0.41706   0.69660   0.16954   0.00000  Uiso   1.00
H694   H     0.40158   0.90980   0.33444   0.00000  Uiso   1.00
H695   H     0.39396   0.93157   0.38959   0.00000  Uiso   1.00
H696   H     0.61078   0.91312   0.35171   0.00000  Uiso   1.00
H697   H     0.63568   0.96043   0.39197   0.00000  Uiso   1.00
H698   H     0.38859   0.67551   0.33343   0.00000  Uiso   1.00
H699   H     0.64331   0.67408   0.32755   0.00000  Uiso   1.00
H700   H     0.35494   0.96486   0.29404   0.00000  Uiso   1.00
H701   H     0.35025   0.91545   0.04635   0.00000  Uiso   1.00
H702   H     0.40169   0.81704   0.07593   0.00000  Uiso   1.00
H703   H     0.57973   0.89632   0.43170   0.00000  Uiso   1.00
H704   H     0.56625   0.67934   0.25979   0.00000  Uiso   1.00
H705   H     0.43707   0.98757   0.23519   0.00000  Uiso   1.00
H706   H     0.33495   0.87136   0.28442   0.00000  Uiso   1.00
N707   N     0.64839   0.84735   0.26212   0.00000  Uiso   1.00
N708   N     0.35161   0.81932   0.23788   0.00000  Uiso   1.00
O709   O     0.46148   0.90476   0.24686   0.00000  Uiso   1.00
O710   O     0.33383   0.92886   0.47276   0.00000  Uiso   1.00
O711   O     0.33343   0.88967   0.12664   0.00000  Uiso   1.00
O712   O     0.33891   0.85657   0.37905   0.00000  Uiso   1.00
O713   O     0.53852   0.76191   0.25314   0.00000  Uiso   1.00
O714   O     0.56163   0.91420   0.25503   0.00000  Uiso   1.00
O715   O     0.43837   0.75247   0.24498   0.00000  Uiso   1.00
O716   O     0.42185   0.82597   0.30855   0.00000  Uiso   1.00
O717   O     0.57815   0.84070   0.19146   0.00000  Uiso   1.00
O718   O     0.52199   0.83540   0.31671   0.00000  Uiso   1.00
O719   O     0.47801   0.83126   0.18329   0.00000  Uiso   1.00
O720   O     0.64583   0.78524   0.02954   0.00000  Uiso   1.00
C721   C     0.84845   0.93334   0.25097   0.00000  Uiso   1.00
C722   C     0.87128   0.83965   0.16728   0.00000  Uiso   1.00
C723   C     0.77368   0.83587   0.38046   0.00000  Uiso   1.00
C724   C     0.89245   0.85339   0.12113   0.00000  Uiso   1.00
C725   C     0.68801   0.82099   0.44333   0.00000  Uiso   1.00
C726   C     0.96872   0.89680   0.06020   0.00000  Uiso   1.00
C727   C     0.71068   0.83706   0.40005   0.00000  Uiso   1.00
C728   C     0.95341   0.88153   0.10345   0.00000  Uiso   1.00
C729   C     0.81600   0.83874   0.40722   0.00000  Uiso   1.00
C730   C     0.84777   0.84213   0.09546   0.00000  Uiso   1.00
C731   C     0.79530   0.83911   0.45268   0.00000  Uiso   1.00
C732   C     0.81904   0.73340   0.24752   0.00000  Uiso   1.00
C733   C     0.86170   0.85836   0.05224   0.00000  Uiso   1.00
C734   C     0.73039   0.82214   0.47035   0.00000  Uiso   1.00
C735   C     0.92351   0.88677   0.03475   0.00000  Uiso   1.00
C736   C     0.83740   0.85526   0.48054   0.00000  Uiso   1.00
C737   C     0.81694   0.84513   0.02541   0.00000  Uiso   1.00
C738   C     0.96791   0.75482   0.06717   0.00000  Uiso   1.00
C739   C     0.90299   0.71816   0.07426   0.00000  Uiso   1.00
C740   C     0.88542   0.69337   0.11914   0.00000  Uiso   1.00
C741   C     0.67412   0.98321   0.48223   0.00000  Uiso   1.00
C742   C     0.74262   0.67791   0.46561   0.00000  Uiso   1.00
C743   C     0.75285   0.82204   0.04170   0.00000  Uiso   1.00
C744   C     0.78711   0.99250   0.48816   0.00000  Uiso   1.00
C745   C     0.66934   0.93856   0.14908   0.00000  Uiso   1.00
C746   C     0.70968   0.98346   0.11952   0.00000  Uiso   1.00
C747   C     0.72363   0.70124   0.14513   0.00000  Uiso   1.00
C748   C     0.70086   0.90951   0.36595   0.00000  Uiso   1.00
C749   C     0.98508   0.94022   0.36087   0.00000  Uiso   1.00
C750   C     0.67834   0.98302   0.32682   0.00000  Uiso   1.00
C751   C     0.89801   0.88532   0.46487   0.00000  Uiso   1.00
C752   C     0.70929   0.80894   0.01451   0.00000  Uiso   1.00
C753   C     0.93998   0.90307   0.49151   0.00000  Uiso   1.00
C754   C     0.85685   0.98926   0.25187   0.00000  Uiso   1.00
C755   C     0.81238   0.67763   0.24405   0.00000  Uiso   1.00
C756   C     0.79583   0.83262   0.33297   0.00000  Uiso   1.00
Cu757  Cu    0.77404   0.82775   0.24517   0.00000  Uiso   1.00
Cu758  Cu    0.89263   0.83892   0.25484   0.00000  Uiso   1.00
H759   H     0.80255   0.81899   0.10985   0.00000  Uiso   1.00
H760   H     0.99845   0.79507   0.21553   0.00000  Uiso   1.00
H761   H     0.96893   0.78097   0.09619   0.00000  Uiso   1.00
H762   H     0.67027   0.73049   0.06431   0.00000  Uiso   1.00
H763   H     0.86717   0.74042   0.07166   0.00000  Uiso   1.00
H764   H     0.90268   0.68672   0.04887   0.00000  Uiso   1.00
H765   H     0.92412   0.67710   0.12510   0.00000  Uiso   1.00
H766   H     0.84425   0.99376   0.12163   0.00000  Uiso   1.00
H767   H     0.87460   0.72320   0.14480   0.00000  Uiso   1.00
H768   H     0.99443   0.99085   0.01773   0.00000  Uiso   1.00
H769   H     0.97736   0.66696   0.46601   0.00000  Uiso   1.00
H770   H     0.86487   0.84021   0.39243   0.00000  Uiso   1.00
H771   H     0.75705   0.67176   0.43001   0.00000  Uiso   1.00
H772   H     0.74698   0.72070   0.47168   0.00000  Uiso   1.00
H773   H     0.77515   0.66757   0.02359   0.00000  Uiso   1.00
H774   H     0.83612   0.68024   0.47487   0.00000  Uiso   1.00
H775   H     0.78429   0.94967   0.48261   0.00000  Uiso   1.00
H776   H     0.69150   0.93656   0.17676   0.00000  Uiso   1.00
H777   H     0.95524   0.94661   0.16349   0.00000  Uiso   1.00
H778   H     0.75398   0.97232   0.10227   0.00000  Uiso   1.00
H779   H     0.68518   0.99001   0.09443   0.00000  Uiso   1.00
H780   H     0.67934   0.71308   0.16188   0.00000  Uiso   1.00
H781   H     0.97130   0.81254   0.45663   0.00000  Uiso   1.00
H782   H     0.75213   0.73263   0.12244   0.00000  Uiso   1.00
H783   H     0.75039   0.69660   0.16954   0.00000  Uiso   1.00
H784   H     0.73492   0.90980   0.33444   0.00000  Uiso   1.00
H785   H     0.72730   0.93157   0.38959   0.00000  Uiso   1.00
H786   H     0.94412   0.91312   0.35171   0.00000  Uiso   1.00
H787   H     0.96901   0.96043   0.39197   0.00000  Uiso   1.00
H788   H     0.72192   0.67551   0.33343   0.00000  Uiso   1.00
H789   H     0.97665   0.67408   0.32755   0.00000  Uiso   1.00
H790   H     0.68828   0.96486   0.29404   0.00000  Uiso   1.00
H791   H     0.68358   0.91545   0.04635   0.00000  Uiso   1.00
H792   H     0.73503   0.81704   0.07593   0.00000  Uiso   1.00
H793   H     0.91306   0.89632   0.43170   0.00000  Uiso   1.00
H794   H     0.89959   0.67934   0.25979   0.00000  Uiso   1.00
H795   H     0.77041   0.98757   0.23519   0.00000  Uiso   1.00
H796   H     0.66828   0.87136   0.28442   0.00000  Uiso   1.00
N797   N     0.98173   0.84735   0.26212   0.00000  Uiso   1.00
N798   N     0.68494   0.81932   0.23788   0.00000  Uiso   1.00
O799   O     0.79482   0.90476   0.24686   0.00000  Uiso   1.00
O800   O     0.66716   0.92886   0.47276   0.00000  Uiso   1.00
O801   O     0.66677   0.88967   0.12664   0.00000  Uiso   1.00
O802   O     0.67224   0.85657   0.37905   0.00000  Uiso   1.00
O803   O     0.87185   0.76191   0.25314   0.00000  Uiso   1.00
O804   O     0.89496   0.91420   0.25503   0.00000  Uiso   1.00
O805   O     0.77171   0.75247   0.24498   0.00000  Uiso   1.00
O806   O     0.75518   0.82597   0.30855   0.00000  Uiso   1.00
O807   O     0.91149   0.84070   0.19146   0.00000  Uiso   1.00
O808   O     0.85532   0.83540   0.31671   0.00000  Uiso   1.00
O809   O     0.81134   0.83126   0.18329   0.00000  Uiso   1.00
O810   O     0.97916   0.78524   0.02954   0.00000  Uiso   1.00
C811   C     0.18178   0.26667   0.75097   0.00000  Uiso   1.00
C812   C     0.20461   0.17299   0.66728   0.00000  Uiso   1.00
C813   C     0.10701   0.16920   0.88046   0.00000  Uiso   1.00
C814   C     0.22579   0.18672   0.62113   0.00000  Uiso   1.00
C815   C     0.02134   0.15432   0.94333   0.00000  Uiso   1.00
C816   C     0.30206   0.23013   0.56020   0.00000  Uiso   1.00
C817   C     0.04402   0.17039   0.90005   0.00000  Uiso   1.00
C818   C     0.28675   0.21486   0.60345   0.00000  Uiso   1.00
C819   C     0.14934   0.17207   0.90722   0.00000  Uiso   1.00
C820   C     0.18110   0.17547   0.59546   0.00000  Uiso   1.00
C821   C     0.12864   0.17245   0.95268   0.00000  Uiso   1.00
C822   C     0.15238   0.06674   0.74752   0.00000  Uiso   1.00
C823   C     0.19503   0.19169   0.55224   0.00000  Uiso   1.00
C824   C     0.06372   0.15547   0.97035   0.00000  Uiso   1.00
C825   C     0.25684   0.22011   0.53475   0.00000  Uiso   1.00
C826   C     0.17074   0.18859   0.98054   0.00000  Uiso   1.00
C827   C     0.15028   0.17846   0.52541   0.00000  Uiso   1.00
C828   C     0.30124   0.08816   0.56717   0.00000  Uiso   1.00
C829   C     0.23632   0.05149   0.57426   0.00000  Uiso   1.00
C830   C     0.21875   0.02670   0.61914   0.00000  Uiso   1.00
C831   C     0.00745   0.31654   0.98223   0.00000  Uiso   1.00
C832   C     0.07595   0.01124   0.96561   0.00000  Uiso   1.00
C833   C     0.08618   0.15537   0.54170   0.00000  Uiso   1.00
C834   C     0.12044   0.32583   0.98816   0.00000  Uiso   1.00
C835   C     0.00267   0.27189   0.64908   0.00000  Uiso   1.00
C836   C     0.04301   0.31679   0.61952   0.00000  Uiso   1.00
C837   C     0.05696   0.03458   0.64513   0.00000  Uiso   1.00
C838   C     0.03419   0.24284   0.86595   0.00000  Uiso   1.00
C839   C     0.31842   0.27356   0.86087   0.00000  Uiso   1.00
C840   C     0.01167   0.31635   0.82682   0.00000  Uiso   1.00
C841   C     0.23134   0.21865   0.96487   0.00000  Uiso   1.00
C842   C     0.04262   0.14228   0.51451   0.00000  Uiso   1.00
C843   C     0.27331   0.23641   0.99151   0.00000  Uiso   1.00
C844   C     0.19019   0.32260   0.75187   0.00000  Uiso   1.00
C845   C     0.14571   0.01097   0.74405   0.00000  Uiso   1.00
C846   C     0.12916   0.16595   0.83297   0.00000  Uiso   1.00
Cu847  Cu    0.10737   0.16108   0.74517   0.00000  Uiso   1.00
Cu848  Cu    0.22596   0.17225   0.75484   0.00000  Uiso   1.00
H849   H     0.13589   0.15233   0.60985   0.00000  Uiso   1.00
H850   H     0.33178   0.12840   0.71553   0.00000  Uiso   1.00
H851   H     0.30227   0.11430   0.59619   0.00000  Uiso   1.00
H852   H     0.00360   0.06382   0.56431   0.00000  Uiso   1.00
H853   H     0.20051   0.07375   0.57166   0.00000  Uiso   1.00
H854   H     0.23602   0.02005   0.54887   0.00000  Uiso   1.00
H855   H     0.25745   0.01043   0.62510   0.00000  Uiso   1.00
H856   H     0.17759   0.32709   0.62163   0.00000  Uiso   1.00
H857   H     0.20793   0.05653   0.64480   0.00000  Uiso   1.00
H858   H     0.32777   0.32418   0.51773   0.00000  Uiso   1.00
H859   H     0.31070   0.00029   0.96601   0.00000  Uiso   1.00
H860   H     0.19820   0.17354   0.89243   0.00000  Uiso   1.00
H861   H     0.09038   0.00510   0.93001   0.00000  Uiso   1.00
H862   H     0.08031   0.05404   0.97168   0.00000  Uiso   1.00
H863   H     0.10848   0.00091   0.52359   0.00000  Uiso   1.00
H864   H     0.16945   0.01357   0.97487   0.00000  Uiso   1.00
H865   H     0.11763   0.28300   0.98261   0.00000  Uiso   1.00
H866   H     0.02483   0.26989   0.67676   0.00000  Uiso   1.00
H867   H     0.28858   0.27994   0.66349   0.00000  Uiso   1.00
H868   H     0.08732   0.30565   0.60227   0.00000  Uiso   1.00
H869   H     0.01851   0.32334   0.59443   0.00000  Uiso   1.00
H870   H     0.01268   0.04642   0.66188   0.00000  Uiso   1.00
H871   H     0.30464   0.14587   0.95663   0.00000  Uiso   1.00
H872   H     0.08547   0.06597   0.62244   0.00000  Uiso   1.00
H873   H     0.08372   0.02993   0.66954   0.00000  Uiso   1.00
H874   H     0.06825   0.24314   0.83444   0.00000  Uiso   1.00
H875   H     0.06063   0.26490   0.88959   0.00000  Uiso   1.00
H876   H     0.27745   0.24646   0.85171   0.00000  Uiso   1.00
H877   H     0.30235   0.29376   0.89197   0.00000  Uiso   1.00
H878   H     0.05525   0.00885   0.83343   0.00000  Uiso   1.00
H879   H     0.30998   0.00742   0.82755   0.00000  Uiso   1.00
H880   H     0.02161   0.29819   0.79404   0.00000  Uiso   1.00
H881   H     0.01691   0.24878   0.54635   0.00000  Uiso   1.00
H882   H     0.06836   0.15037   0.57593   0.00000  Uiso   1.00
H883   H     0.24640   0.22965   0.93170   0.00000  Uiso   1.00
H884   H     0.23292   0.01267   0.75979   0.00000  Uiso   1.00
H885   H     0.10374   0.32091   0.73519   0.00000  Uiso   1.00
H886   H     0.00161   0.20469   0.78442   0.00000  Uiso   1.00
N887   N     0.31506   0.18068   0.76212   0.00000  Uiso   1.00
N888   N     0.01827   0.15265   0.73788   0.00000  Uiso   1.00
O889   O     0.12815   0.23809   0.74686   0.00000  Uiso   1.00
O890   O     0.00050   0.26219   0.97276   0.00000  Uiso   1.00
O891   O     0.00010   0.22301   0.62664   0.00000  Uiso   1.00
O892   O     0.00557   0.18990   0.87905   0.00000  Uiso   1.00
O893   O     0.20518   0.09524   0.75314   0.00000  Uiso   1.00
O894   O     0.22829   0.24753   0.75503   0.00000  Uiso   1.00
O895   O     0.10504   0.08580   0.74498   0.00000  Uiso   1.00
O896   O     0.08851   0.15930   0.80855   0.00000  Uiso   1.00
O897   O     0.24482   0.17403   0.69146   0.00000  Uiso   1.00
O898   O     0.18866   0.16874   0.81671   0.00000  Uiso   1.00
O899   O     0.14468   0.16460   0.68329   0.00000  Uiso   1.00
O900   O     0.31249   0.11857   0.52954   0.00000  Uiso   1.00
C901   C     0.51511   0.26667   0.75097   0.00000  Uiso   1.00
C902   C     0.53794   0.17299   0.66728   0.00000  Uiso   1.00
C903   C     0.44034   0.16920   0.88046   0.00000  Uiso   1.00
C904   C     0.55912   0.18672   0.62113   0.00000  Uiso   1.00
C905   C     0.35467   0.15432   0.94333   0.00000  Uiso   1.00
C906   C     0.63539   0.23013   0.56020   0.00000  Uiso   1.00
C907   C     0.37735   0.17039   0.90005   0.00000  Uiso   1.00
C908   C     0.62008   0.21486   0.60345   0.00000  Uiso   1.00
C909   C     0.48267   0.17207   0.90722   0.00000  Uiso   1.00
C910   C     0.51443   0.17547   0.59546   0.00000  Uiso   1.00
C911   C     0.46197   0.17245   0.95268   0.00000  Uiso   1.00
C912   C     0.48571   0.06674   0.74752   0.00000  Uiso   1.00
C913   C     0.52836   0.19169   0.55224   0.00000  Uiso   1.00
C914   C     0.39705   0.15547   0.97035   0.00000  Uiso   1.00
C915   C     0.59017   0.22011   0.53475   0.00000  Uiso   1.00
C916   C     0.50407   0.18859   0.98054   0.00000  Uiso   1.00
C917   C     0.48361   0.17846   0.52541   0.00000  Uiso   1.00
C918   C     0.63458   0.08816   0.56717   0.00000  Uiso   1.00
C919   C     0.56966   0.05149   0.57426   0.00000  Uiso   1.00
C920   C     0.55209   0.02670   0.61914   0.00000  Uiso   1.00
C921   C     0.34079   0.31654   0.98223   0.00000  Uiso   1.00
C922   C     0.40928   0.01124   0.96561   0.00000  Uiso   1.00
C923   C     0.41951   0.15537   0.54170   0.00000  Uiso   1.00
C924   C     0.45377   0.32583   0.98816   0.00000  Uiso   1.00
C925   C     0.33601   0.27189   0.64908   0.00000  Uiso   1.00
C926   C     0.37635   0.31679   0.61952   0.00000  Uiso   1.00
C927   C     0.39029   0.03458   0.64513   0.00000  Uiso   1.00
C928   C     0.36752   0.24284   0.86595   0.00000  Uiso   1.00
C929   C     0.65175   0.27356   0.86087   0.00000  Uiso   1.00
C930   C     0.34500   0.31635   0.82682   0.00000  Uiso   1.00
C931   C     0.56468   0.21865   0.96487   0.00000  Uiso   1.00
C932   C     0.37595   0.14228   0.51451   0.00000  Uiso   1.00
C933   C     0.60664   0.23641   0.99151   0.00000  Uiso   1.00
C934   C     0.52352   0.32260   0.75187   0.00000  Uiso   1.00
C935   C     0.47904   0.01097   0.74405   0.00000  Uiso   1.00
C936   C     0.46249   0.16595   0.83297   0.00000  Uiso   1.00
Cu937  Cu    0.44071   0.16108   0.74517   0.00000  Uiso   1.00
Cu938  Cu    0.55929   0.17225   0.75484   0.00000  Uiso   1.00
H939   H     0.46922   0.15233   0.60985   0.00000  Uiso   1.00
H940   H     0.66511   0.12840   0.71553   0.00000  Uiso   1.00
H941   H     0.63560   0.11430   0.59619   0.00000  Uiso   1.00
H942   H     0.33693   0.06382   0.56431   0.00000  Uiso   1.00
H943   H     0.53384   0.07375   0.57166   0.00000  Uiso   1.00
H944   H     0.56935   0.02005   0.54887   0.00000  Uiso   1.00
H945   H     0.59079   0.01043   0.62510   0.00000  Uiso   1.00
H946   H     0.51092   0.32709   0.62163   0.00000  Uiso   1.00
H947   H     0.54127   0.05653   0.64480   0.00000  Uiso   1.00
H948   H     0.66110   0.32418   0.51773   0.00000  Uiso   1.00
H949   H     0.64403   0.00029   0.96601   0.00000  Uiso   1.00
H950   H     0.53154   0.17354   0.89243   0.00000  Uiso   1.00
H951   H     0.42371   0.00510   0.93001   0.00000  Uiso   1.00
H952   H     0.41365   0.05404   0.97168   0.00000  Uiso   1.00
H953   H     0.44181   0.00091   0.52359   0.00000  Uiso   1.00
H954   H     0.50278   0.01357   0.97487   0.00000  Uiso   1.00
H955   H     0.45096   0.28300   0.98261   0.00000  Uiso   1.00
H956   H     0.35817   0.26989   0.67676   0.00000  Uiso   1.00
H957   H     0.62191   0.27994   0.66349   0.00000  Uiso   1.00
H958   H     0.42065   0.30565   0.60227   0.00000  Uiso   1.00
H959   H     0.35184   0.32334   0.59443   0.00000  Uiso   1.00
H960   H     0.34601   0.04642   0.66188   0.00000  Uiso   1.00
H961   H     0.63797   0.14587   0.95663   0.00000  Uiso   1.00
H962   H     0.41880   0.06597   0.62244   0.00000  Uiso   1.00
H963   H     0.41706   0.02993   0.66954   0.00000  Uiso   1.00
H964   H     0.40158   0.24314   0.83444   0.00000  Uiso   1.00
H965   H     0.39396   0.26490   0.88959   0.00000  Uiso   1.00
H966   H     0.61078   0.24646   0.85171   0.00000  Uiso   1.00
H967   H     0.63568   0.29376   0.89197   0.00000  Uiso   1.00
H968   H     0.38859   0.00885   0.83343   0.00000  Uiso   1.00
H969   H     0.64331   0.00742   0.82755   0.00000  Uiso   1.00
H970   H     0.35494   0.29819   0.79404   0.00000  Uiso   1.00
H971   H     0.35025   0.24878   0.54635   0.00000  Uiso   1.00
H972   H     0.40169   0.15037   0.57593   0.00000  Uiso   1.00
H973   H     0.57973   0.22965   0.93170   0.00000  Uiso   1.00
H974   H     0.56625   0.01267   0.75979   0.00000  Uiso   1.00
H975   H     0.43707   0.32091   0.73519   0.00000  Uiso   1.00
H976   H     0.33495   0.20469   0.78442   0.00000  Uiso   1.00
N977   N     0.64839   0.18068   0.76212   0.00000  Uiso   1.00
N978   N     0.35161   0.15265   0.73788   0.00000  Uiso   1.00
O979   O     0.46148   0.23809   0.74686   0.00000  Uiso   1.00
O980   O     0.33383   0.26219   0.97276   0.00000  Uiso   1.00
O981   O     0.33343   0.22301   0.62664   0.00000  Uiso   1.00
O982   O     0.33891   0.18990   0.87905   0.00000  Uiso   1.00
O983   O     0.53852   0.09524   0.75314   0.00000  Uiso   1.00
O984   O     0.56163   0.24753   0.75503   0.00000  Uiso   1.00
O985   O     0.43837   0.08580   0.74498   0.00000  Uiso   1.00
O986   O     0.42185   0.15930   0.80855   0.00000  Uiso   1.00
O987   O     0.57815   0.17403   0.69146   0.00000  Uiso   1.00
O988   O     0.52199   0.16874   0.81671   0.00000  Uiso   1.00
O989   O     0.47801   0.16460   0.68329   0.00000  Uiso   1.00
O990   O     0.64583   0.11857   0.52954   0.00000  Uiso   1.00
C991   C     0.84845   0.26667   0.75097   0.00000  Uiso   1.00
C992   C     0.87128   0.17299   0.66728   0.00000  Uiso   1.00
C993   C     0.77368   0.16920   0.88046   0.00000  Uiso   1.00
C994   C     0.89245   0.18672   0.62113   0.00000  Uiso   1.00
C995   C     0.68801   0.15432   0.94333   0.00000  Uiso   1.00
C996   C     0.96872   0.23013   0.56020   0.00000  Uiso   1.00
C997   C     0.71068   0.17039   0.90005   0.00000  Uiso   1.00
C998   C     0.95341   0.21486   0.60345   0.00000  Uiso   1.00
C999   C     0.81600   0.17207   0.90722   0.00000  Uiso   1.00
C1000  C     0.84777   0.17547   0.59546   0.00000  Uiso   1.00
C1001  C     0.79530   0.17245   0.95268   0.00000  Uiso   1.00
C1002  C     0.81904   0.06674   0.74752   0.00000  Uiso   1.00
C1003  C     0.86170   0.19169   0.55224   0.00000  Uiso   1.00
C1004  C     0.73039   0.15547   0.97035   0.00000  Uiso   1.00
C1005  C     0.92351   0.22011   0.53475   0.00000  Uiso   1.00
C1006  C     0.83740   0.18859   0.98054   0.00000  Uiso   1.00
C1007  C     0.81694   0.17846   0.52541   0.00000  Uiso   1.00
C1008  C     0.96791   0.08816   0.56717   0.00000  Uiso   1.00
C1009  C     0.90299   0.05149   0.57426   0.00000  Uiso   1.00
C1010  C     0.88542   0.02670   0.61914   0.00000  Uiso   1.00
C1011  C     0.67412   0.31654   0.98223   0.00000  Uiso   1.00
C1012  C     0.74262   0.01124   0.96561   0.00000  Uiso   1.00
C1013  C     0.75285   0.15537   0.54170   0.00000  Uiso   1.00
C1014  C     0.78711   0.32583   0.98816   0.00000  Uiso   1.00
C1015  C     0.66934   0.27189   0.64908   0.00000  Uiso   1.00
C1016  C     0.70968   0.31679   0.61952   0.00000  Uiso   1.00
C1017  C     0.72363   0.03458   0.64513   0.00000  Uiso   1.00
C1018  C     0.70086   0.24284   0.86595   0.00000  Uiso   1.00
C1019  C     0.98508   0.27356   0.86087   0.00000  Uiso   1.00
C1020  C     0.67834   0.31635   0.82682   0.00000  Uiso   1.00
C1021  C     0.89801   0.21865   0.96487   0.00000  Uiso   1.00
C1022  C     0.70929   0.14228   0.51451   0.00000  Uiso   1.00
C1023  C     0.93998   0.23641   0.99151   0.00000  Uiso   1.00
C1024  C     0.85685   0.32260   0.75187   0.00000  Uiso   1.00
C1025  C     0.81238   0.01097   0.74405   0.00000  Uiso   1.00
C1026  C     0.79583   0.16595   0.83297   0.00000  Uiso   1.00
Cu1027 Cu    0.77404   0.16108   0.74517   0.00000  Uiso   1.00
Cu1028 Cu    0.89263   0.17225   0.75484   0.00000  Uiso   1.00
H1029  H     0.80255   0.15233   0.60985   0.00000  Uiso   1.00
H1030  H     0.99845   0.12840   0.71553   0.00000  Uiso   1.00
H1031  H     0.96893   0.11430   0.59619   0.00000  Uiso   1.00
H1032  H     0.67027   0.06382   0.56431   0.00000  Uiso   1.00
H1033  H     0.86717   0.07375   0.57166   0.00000  Uiso   1.00
H1034  H     0.90268   0.02005   0.54887   0.00000  Uiso   1.00
H1035  H     0.92412   0.01043   0.62510   0.00000  Uiso   1.00
H1036  H     0.84425   0.32709   0.62163   0.00000  Uiso   1.00
H1037  H     0.87460   0.05653   0.64480   0.00000  Uiso   1.00
H1038  H     0.99443   0.32418   0.51773   0.00000  Uiso   1.00
H1039  H     0.97736   0.00029   0.96601   0.00000  Uiso   1.00
H1040  H     0.86487   0.17354   0.89243   0.00000  Uiso   1.00
H1041  H     0.75705   0.00510   0.93001   0.00000  Uiso   1.00
H1042  H     0.74698   0.05404   0.97168   0.00000  Uiso   1.00
H1043  H     0.77515   0.00091   0.52359   0.00000  Uiso   1.00
H1044  H     0.83612   0.01357   0.97487   0.00000  Uiso   1.00
H1045  H     0.78429   0.28300   0.98261   0.00000  Uiso   1.00
H1046  H     0.69150   0.26989   0.67676   0.00000  Uiso   1.00
H1047  H     0.95524   0.27994   0.66349   0.00000  Uiso   1.00
H1048  H     0.75398   0.30565   0.60227   0.00000  Uiso   1.00
H1049  H     0.68518   0.32334   0.59443   0.00000  Uiso   1.00
H1050  H     0.67934   0.04642   0.66188   0.00000  Uiso   1.00
H1051  H     0.97130   0.14587   0.95663   0.00000  Uiso   1.00
H1052  H     0.75213   0.06597   0.62244   0.00000  Uiso   1.00
H1053  H     0.75039   0.02993   0.66954   0.00000  Uiso   1.00
H1054  H     0.73492   0.24314   0.83444   0.00000  Uiso   1.00
H1055  H     0.72730   0.26490   0.88959   0.00000  Uiso   1.00
H1056  H     0.94412   0.24646   0.85171   0.00000  Uiso   1.00
H1057  H     0.96901   0.29376   0.89197   0.00000  Uiso   1.00
H1058  H     0.72192   0.00885   0.83343   0.00000  Uiso   1.00
H1059  H     0.97665   0.00742   0.82755   0.00000  Uiso   1.00
H1060  H     0.68828   0.29819   0.79404   0.00000  Uiso   1.00
H1061  H     0.68358   0.24878   0.54635   0.00000  Uiso   1.00
H1062  H     0.73503   0.15037   0.57593   0.00000  Uiso   1.00
H1063  H     0.91306   0.22965   0.93170   0.00000  Uiso   1.00
H1064  H     0.89959   0.01267   0.75979   0.00000  Uiso   1.00
H1065  H     0.77041   0.32091   0.73519   0.00000  Uiso   1.00
H1066  H     0.66828   0.20469   0.78442   0.00000  Uiso   1.00
N1067  N     0.98173   0.18068   0.76212   0.00000  Uiso   1.00
N1068  N     0.68494   0.15265   0.73788   0.00000  Uiso   1.00
O1069  O     0.79482   0.23809   0.74686   0.00000  Uiso   1.00
O1070  O     0.66716   0.26219   0.97276   0.00000  Uiso   1.00
O1071  O     0.66677   0.22301   0.62664   0.00000  Uiso   1.00
O1072  O     0.67224   0.18990   0.87905   0.00000  Uiso   1.00
O1073  O     0.87185   0.09524   0.75314   0.00000  Uiso   1.00
O1074  O     0.89496   0.24753   0.75503   0.00000  Uiso   1.00
O1075  O     0.77171   0.08580   0.74498   0.00000  Uiso   1.00
O1076  O     0.75518   0.15930   0.80855   0.00000  Uiso   1.00
O1077  O     0.91149   0.17403   0.69146   0.00000  Uiso   1.00
O1078  O     0.85532   0.16874   0.81671   0.00000  Uiso   1.00
O1079  O     0.81134   0.16460   0.68329   0.00000  Uiso   1.00
O1080  O     0.97916   0.11857   0.52954   0.00000  Uiso   1.00
C1081  C     0.18178   0.60000   0.75097   0.00000  Uiso   1.00
C1082  C     0.20461   0.50632   0.66728   0.00000  Uiso   1.00
C1083  C     0.10701   0.50253   0.88046   0.00000  Uiso   1.00
C1084  C     0.22579   0.52006   0.62113   0.00000  Uiso   1.00
C1085  C     0.02134   0.48765   0.94333   0.00000  Uiso   1.00
C1086  C     0.30206   0.56347   0.56020   0.00000  Uiso   1.00
C1087  C     0.04402   0.50372   0.90005   0.00000  Uiso   1.00
C1088  C     0.28675   0.54819   0.60345   0.00000  Uiso   1.00
C1089  C     0.14934   0.50540   0.90722   0.00000  Uiso   1.00
C1090  C     0.18110   0.50880   0.59546   0.00000  Uiso   1.00
C1091  C     0.12864   0.50578   0.95268   0.00000  Uiso   1.00
C1092  C     0.15238   0.40007   0.74752   0.00000  Uiso   1.00
C1093  C     0.19503   0.52503   0.55224   0.00000  Uiso   1.00
C1094  C     0.06372   0.48880   0.97035   0.00000  Uiso   1.00
C1095  C     0.25684   0.55344   0.53475   0.00000  Uiso   1.00
C1096  C     0.17074   0.52192   0.98054   0.00000  Uiso   1.00
C1097  C     0.15028   0.51179   0.52541   0.00000  Uiso   1.00
C1098  C     0.30124   0.42149   0.56717   0.00000  Uiso   1.00
C1099  C     0.23632   0.38483   0.57426   0.00000  Uiso   1.00
C1100  C     0.21875   0.36003   0.61914   0.00000  Uiso   1.00
C1101  C     0.00745   0.64988   0.98223   0.00000  Uiso   1.00
C1102  C     0.07595   0.34458   0.96561   0.00000  Uiso   1.00
C1103  C     0.08618   0.48871   0.54170   0.00000  Uiso   1.00
C1104  C     0.12044   0.65917   0.98816   0.00000  Uiso   1.00
C1105  C     0.00267   0.60523   0.64908   0.00000  Uiso   1.00
C1106  C     0.04301   0.65012   0.61952   0.00000  Uiso   1.00
C1107  C     0.05696   0.36791   0.64513   0.00000  Uiso   1.00
C1108  C     0.03419   0.57618   0.86595   0.00000  Uiso   1.00
C1109  C     0.31842   0.60689   0.86087   0.00000  Uiso   1.00
C1110  C     0.01167   0.64969   0.82682   0.00000  Uiso   1.00
C1111  C     0.23134   0.55199   0.96487   0.00000  Uiso   1.00
C1112  C     0.04262   0.47561   0.51451   0.00000  Uiso   1.00
C1113  C     0.27331   0.56974   0.99151   0.00000  Uiso   1.00
C1114  C     0.19019   0.65593   0.75187   0.00000  Uiso   1.00
C1115  C     0.14571   0.34430   0.74405   0.00000  Uiso   1.00
C1116  C     0.12916   0.49928   0.83297   0.00000  Uiso   1.00
Cu1117 Cu    0.10737   0.49441   0.74517   0.00000  Uiso   1.00
Cu1118 Cu    0.22596   0.50559   0.75484   0.00000  Uiso   1.00
H1119  H     0.13589   0.48566   0.60985   0.00000  Uiso   1.00
H1120  H     0.33178   0.46173   0.71553   0.00000  Uiso   1.00
H1121  H     0.30227   0.44763   0.59619   0.00000  Uiso   1.00
H1122  H     0.00360   0.39716   0.56431   0.00000  Uiso   1.00
H1123  H     0.20051   0.40708   0.57166   0.00000  Uiso   1.00
H1124  H     0.23602   0.35338   0.54887   0.00000  Uiso   1.00
H1125  H     0.25745   0.34377   0.62510   0.00000  Uiso   1.00
H1126  H     0.17759   0.66043   0.62163   0.00000  Uiso   1.00
H1127  H     0.20793   0.38986   0.64480   0.00000  Uiso   1.00
H1128  H     0.32777   0.65752   0.51773   0.00000  Uiso   1.00
H1129  H     0.31070   0.33363   0.96601   0.00000  Uiso   1.00
H1130  H     0.19820   0.50687   0.89243   0.00000  Uiso   1.00
H1131  H     0.09038   0.33843   0.93001   0.00000  Uiso   1.00
H1132  H     0.08031   0.38737   0.97168   0.00000  Uiso   1.00
H1133  H     0.10848   0.33424   0.52359   0.00000  Uiso   1.00
H1134  H     0.16945   0.34691   0.97487   0.00000  Uiso   1.00
H1135  H     0.11763   0.61633   0.98261   0.00000  Uiso   1.00
H1136  H     0.02483   0.60322   0.67676   0.00000  Uiso   1.00
H1137  H     0.28858   0.61327   0.66349   0.00000  Uiso   1.00
H1138  H     0.08732   0.63899   0.60227   0.00000  Uiso   1.00
H1139  H     0.01851   0.65667   0.59443   0.00000  Uiso   1.00
H1140  H     0.01268   0.37975   0.66188   0.00000  Uiso   1.00
H1141  H     0.30464   0.47920   0.95663   0.00000  Uiso   1.00
H1142  H     0.08547   0.39930   0.62244   0.00000  Uiso   1.00
H1143  H     0.08372   0.36326   0.66954   0.00000  Uiso   1.00
H1144  H     0.06825   0.57647   0.83444   0.00000  Uiso   1.00
H1145  H     0.06063   0.59824   0.88959   0.00000  Uiso   1.00
H1146  H     0.27745   0.57979   0.85171   0.00000  Uiso   1.00
H1147  H     0.30235   0.62710   0.89197   0.00000  Uiso   1.00
H1148  H     0.05525   0.34218   0.83343   0.00000  Uiso   1.00
H1149  H     0.30998   0.34075   0.82755   0.00000  Uiso   1.00
H1150  H     0.02161   0.63153   0.79404   0.00000  Uiso   1.00
H1151  H     0.01691   0.58211   0.54635   0.00000  Uiso   1.00
H1152  H     0.06836   0.48370   0.57593   0.00000  Uiso   1.00
H1153  H     0.24640   0.56299   0.93170   0.00000  Uiso   1.00
H1154  H     0.23292   0.34600   0.75979   0.00000  Uiso   1.00
H1155  H     0.10374   0.65424   0.73519   0.00000  Uiso   1.00
H1156  H     0.00161   0.53803   0.78442   0.00000  Uiso   1.00
N1157  N     0.31506   0.51401   0.76212   0.00000  Uiso   1.00
N1158  N     0.01827   0.48599   0.73788   0.00000  Uiso   1.00
O1159  O     0.12815   0.57142   0.74686   0.00000  Uiso   1.00
O1160  O     0.00050   0.59552   0.97276   0.00000  Uiso   1.00
O1161  O     0.00010   0.55634   0.62664   0.00000  Uiso   1.00
O1162  O     0.00557   0.52324   0.87905   0.00000  Uiso   1.00
O1163  O     0.20518   0.42858   0.75314   0.00000  Uiso   1.00
O1164  O     0.22829   0.58086   0.75503   0.00000  Uiso   1.00
O1165  O     0.10504   0.41914   0.74498   0.00000  Uiso   1.00
O1166  O     0.08851   0.49263   0.80855   0.00000  Uiso   1.00
O1167  O     0.24482   0.50737   0.69146   0.00000  Uiso   1.00
O1168  O     0.18866   0.50207   0.81671   0.00000  Uiso   1.00
O1169  O     0.14468   0.49793   0.68329   0.00000  Uiso   1.00
O1170  O     0.31249   0.45191   0.52954   0.00000  Uiso   1.00
C1171  C     0.51511   0.60000   0.75097   0.00000  Uiso   1.00
C1172  C     0.53794   0.50632   0.66728   0.00000  Uiso   1.00
C1173  C     0.44034   0.50253   0.88046   0.00000  Uiso   1.00
C1174  C     0.55912   0.52006   0.62113   0.00000  Uiso   1.00
C1175  C     0.35467   0.48765   0.94333   0.00000  Uiso   1.00
C1176  C     0.63539   0.56347   0.56020   0.00000  Uiso   1.00
C1177  C     0.37735   0.50372   0.90005   0.00000  Uiso   1.00
C1178  C     0.62008   0.54819   0.60345   0.00000  Uiso   1.00
C1179  C     0.48267   0.50540   0.90722   0.00000  Uiso   1.00
C1180  C     0.51443   0.50880   0.59546   0.00000  Uiso   1.00
C1181  C     0.46197   0.50578   0.95268   0.00000  Uiso   1.00
C1182  C     0.48571   0.40007   0.74752   0.00000  Uiso   1.00
C1183  C     0.52836   0.52503   0.55224   0.00000  Uiso   1.00
C1184  C     0.39705   0.48880   0.97035   0.00000  Uiso   1.00
C1185  C     0.59017   0.55344   0.53475   0.00000  Uiso   1.00
C1186  C     0.50407   0.52192   0.98054   0.00000  Uiso   1.00
C1187  C     0.48361   0.51179   0.52541   0.00000  Uiso   1.00
C1188  C     0.63458   0.42149   0.56717   0.00000  Uiso   1.00
C1189  C     0.56966   0.38483   0.57426   0.00000  Uiso   1.00
C1190  C     0.55209   0.36003   0.61914   0.00000  Uiso   1.00
C1191  C     0.34079   0.64988   0.98223   0.00000  Uiso   1.00
C1192  C     0.40928   0.34458   0.96561   0.00000  Uiso   1.00
C1193  C     0.41951   0.48871   0.54170   0.00000  Uiso   1.00
C1194  C     0.45377   0.65917   0.98816   0.00000  Uiso   1.00
C1195  C     0.33601   0.60523   0.64908   0.00000  Uiso   1.00
C1196  C     0.37635   0.65012   0.61952   0.00000  Uiso   1.00
C1197  C     0.39029   0.36791   0.64513   0.00000  Uiso   1.00
C1198  C     0.36752   0.57618   0.86595   0.00000  Uiso   1.00
C1199  C     0.65175   0.60689   0.86087   0.00000  Uiso   1.00
C1200  C     0.34500   0.64969   0.82682   0.00000  Uiso   1.00
C1201  C     0.56468   0.55199   0.96487   0.00000  Uiso   1.00
C1202  C     0.37595   0.47561   0.51451   0.00000  Uiso   1.00
C1203  C     0.60664   0.56974   0.99151   0.00000  Uiso   1.00
C1204  C     0.52352   0.65593   0.75187   0.00000  Uiso   1.00
C1205  C     0.47904   0.34430   0.74405   0.00000  Uiso   1.00
C1206  C     0.46249   0.49928   0.83297   0.00000  Uiso   1.00
Cu1207 Cu    0.44071   0.49441   0.74517   0.00000  Uiso   1.00
Cu1208 Cu    0.55929   0.50559   0.75484   0.00000  Uiso   1.00
H1209  H     0.46922   0.48566   0.60985   0.00000  Uiso   1.00
H1210  H     0.66511   0.46173   0.71553   0.00000  Uiso   1.00
H1211  H     0.63560   0.44763   0.59619   0.00000  Uiso   1.00
H1212  H     0.33693   0.39716   0.56431   0.00000  Uiso   1.00
H1213  H     0.53384   0.40708   0.57166   0.00000  Uiso   1.00
H1214  H     0.56935   0.35338   0.54887   0.00000  Uiso   1.00
H1215  H     0.59079   0.34377   0.62510   0.00000  Uiso   1.00
H1216  H     0.51092   0.66043   0.62163   0.00000  Uiso   1.00
H1217  H     0.54127   0.38986   0.64480   0.00000  Uiso   1.00
H1218  H     0.66110   0.65752   0.51773   0.00000  Uiso   1.00
H1219  H     0.64403   0.33363   0.96601   0.00000  Uiso   1.00
H1220  H     0.53154   0.50687   0.89243   0.00000  Uiso   1.00
H1221  H     0.42371   0.33843   0.93001   0.00000  Uiso   1.00
H1222  H     0.41365   0.38737   0.97168   0.00000  Uiso   1.00
H1223  H     0.44181   0.33424   0.52359   0.00000  Uiso   1.00
H1224  H     0.50278   0.34691   0.97487   0.00000  Uiso   1.00
H1225  H     0.45096   0.61633   0.98261   0.00000  Uiso   1.00
H1226  H     0.35817   0.60322   0.67676   0.00000  Uiso   1.00
H1227  H     0.62191   0.61327   0.66349   0.00000  Uiso   1.00
H1228  H     0.42065   0.63899   0.60227   0.00000  Uiso   1.00
H1229  H     0.35184   0.65667   0.59443   0.00000  Uiso   1.00
H1230  H     0.34601   0.37975   0.66188   0.00000  Uiso   1.00
H1231  H     0.63797   0.47920   0.95663   0.00000  Uiso   1.00
H1232  H     0.41880   0.39930   0.62244   0.00000  Uiso   1.00
H1233  H     0.41706   0.36326   0.66954   0.00000  Uiso   1.00
H1234  H     0.40158   0.57647   0.83444   0.00000  Uiso   1.00
H1235  H     0.39396   0.59824   0.88959   0.00000  Uiso   1.00
H1236  H     0.61078   0.57979   0.85171   0.00000  Uiso   1.00
H1237  H     0.63568   0.62710   0.89197   0.00000  Uiso   1.00
H1238  H     0.38859   0.34218   0.83343   0.00000  Uiso   1.00
H1239  H     0.64331   0.34075   0.82755   0.00000  Uiso   1.00
H1240  H     0.35494   0.63153   0.79404   0.00000  Uiso   1.00
H1241  H     0.35025   0.58211   0.54635   0.00000  Uiso   1.00
H1242  H     0.40169   0.48370   0.57593   0.00000  Uiso   1.00
H1243  H     0.57973   0.56299   0.93170   0.00000  Uiso   1.00
H1244  H     0.56625   0.34600   0.75979   0.00000  Uiso   1.00
H1245  H     0.43707   0.65424   0.73519   0.00000  Uiso   1.00
H1246  H     0.33495   0.53803   0.78442   0.00000  Uiso   1.00
N1247  N     0.64839   0.51401   0.76212   0.00000  Uiso   1.00
N1248  N     0.35161   0.48599   0.73788   0.00000  Uiso   1.00
O1249  O     0.46148   0.57142   0.74686   0.00000  Uiso   1.00
O1250  O     0.33383   0.59552   0.97276   0.00000  Uiso   1.00
O1251  O     0.33343   0.55634   0.62664   0.00000  Uiso   1.00
O1252  O     0.33891   0.52324   0.87905   0.00000  Uiso   1.00
O1253  O     0.53852   0.42858   0.75314   0.00000  Uiso   1.00
O1254  O     0.56163   0.58086   0.75503   0.00000  Uiso   1.00
O1255  O     0.43837   0.41914   0.74498   0.00000  Uiso   1.00
O1256  O     0.42185   0.49263   0.80855   0.00000  Uiso   1.00
O1257  O     0.57815   0.50737   0.69146   0.00000  Uiso   1.00
O1258  O     0.52199   0.50207   0.81671   0.00000  Uiso   1.00
O1259  O     0.47801   0.49793   0.68329   0.00000  Uiso   1.00
O1260  O     0.64583   0.45191   0.52954   0.00000  Uiso   1.00
C1261  C     0.84845   0.60000   0.75097   0.00000  Uiso   1.00
C1262  C     0.87128   0.50632   0.66728   0.00000  Uiso   1.00
C1263  C     0.77368   0.50253   0.88046   0.00000  Uiso   1.00
C1264  C     0.89245   0.52006   0.62113   0.00000  Uiso   1.00
C1265  C     0.68801   0.48765   0.94333   0.00000  Uiso   1.00
C1266  C     0.96872   0.56347   0.56020   0.00000  Uiso   1.00
C1267  C     0.71068   0.50372   0.90005   0.00000  Uiso   1.00
C1268  C     0.95341   0.54819   0.60345   0.00000  Uiso   1.00
C1269  C     0.81600   0.50540   0.90722   0.00000  Uiso   1.00
C1270  C     0.84777   0.50880   0.59546   0.00000  Uiso   1.00
C1271  C     0.79530   0.50578   0.95268   0.00000  Uiso   1.00
C1272  C     0.81904   0.40007   0.74752   0.00000  Uiso   1.00
C1273  C     0.86170   0.52503   0.55224   0.00000  Uiso   1.00
C1274  C     0.73039   0.48880   0.97035   0.00000  Uiso   1.00
C1275  C     0.92351   0.55344   0.53475   0.00000  Uiso   1.00
C1276  C     0.83740   0.52192   0.98054   0.00000  Uiso   1.00
C1277  C     0.81694   0.51179   0.52541   0.00000  Uiso   1.00
C1278  C     0.96791   0.42149   0.56717   0.00000  Uiso   1.00
C1279  C     0.90299   0.38483   0.57426   0.00000  Uiso   1.00
C1280  C     0.88542   0.36003   0.61914   0.00000  Uiso   1.00
C1281  C     0.67412   0.64988   0.98223   0.00000  Uiso   1.00
C1282  C     0.74262   0.34458   0.96561   0.00000  Uiso   1.00
C1283  C     0.75285   0.48871   0.54170   0.00000  Uiso   1.00
C1284  C     0.78711   0.65917   0.98816   0.00000  Uiso   1.00
C1285  C     0.66934   0.60523   0.64908   0.00000  Uiso   1.00
C1286  C     0.70968   0.65012   0.61952   0.00000  Uiso   1.00
C1287  C     0.72363   0.36791   0.64513   0.00000  Uiso   1.00
C1288  C     0.70086   0.57618   0.86595   0.00000  Uiso   1.00
C1289  C     0.98508   0.60689   0.86087   0.00000  Uiso   1.00
C1290  C     0.67834   0.64969   0.82682   0.00000  Uiso   1.00
C1291  C     0.89801   0.55199   0.96487   0.00000  Uiso   1.00
C1292  C     0.70929   0.47561   0.51451   0.00000  Uiso   1.00
C1293  C     0.93998   0.56974   0.99151   0.00000  Uiso   1.00
C1294  C     0.85685   0.65593   0.75187   0.00000  Uiso   1.00
C1295  C     0.81238   0.34430   0.74405   0.00000  Uiso   1.00
C1296  C     0.79583   0.49928   0.83297   0.00000  Uiso   1.00
Cu1297 Cu    0.77404   0.49441   0.74517   0.00000  Uiso   1.00
Cu1298 Cu    0.89263   0.50559   0.75484   0.00000  Uiso   1.00
H1299  H     0.80255   0.48566   0.60985   0.00000  Uiso   1.00
H1300  H     0.99845   0.46173   0.71553   0.00000  Uiso   1.00
H1301  H     0.96893   0.44763   0.59619   0.00000  Uiso   1.00
H1302  H     0.67027   0.39716   0.56431   0.00000  Uiso   1.00
H1303  H     0.86717   0.40708   0.57166   0.00000  Uiso   1.00
H1304  H     0.90268   0.35338   0.54887   0.00000  Uiso   1.00
H1305  H     0.92412   0.34377   0.62510   0.00000  Uiso   1.00
H1306  H     0.84425   0.66043   0.62163   0.00000  Uiso   1.00
H1307  H     0.87460   0.38986   0.64480   0.00000  Uiso   1.00
H1308  H     0.99443   0.65752   0.51773   0.00000  Uiso   1.00
H1309  H     0.97736   0.33363   0.96601   0.00000  Uiso   1.00
H1310  H     0.86487   0.50687   0.89243   0.00000  Uiso   1.00
H1311  H     0.75705   0.33843   0.93001   0.00000  Uiso   1.00
H1312  H     0.74698   0.38737   0.97168   0.00000  Uiso   1.00
H1313  H     0.77515   0.33424   0.52359   0.00000  Uiso   1.00
H1314  H     0.83612   0.34691   0.97487   0.00000  Uiso   1.00
H1315  H     0.78429   0.61633   0.98261   0.00000  Uiso   1.00
H1316  H     0.69150   0.60322   0.67676   0.00000  Uiso   1.00
H1317  H     0.95524   0.61327   0.66349   0.00000  Uiso   1.00
H1318  H     0.75398   0.63899   0.60227   0.00000  Uiso   1.00
H1319  H     0.68518   0.65667   0.59443   0.00000  Uiso   1.00
H1320  H     0.67934   0.37975   0.66188   0.00000  Uiso   1.00
H1321  H     0.97130   0.47920   0.95663   0.00000  Uiso   1.00
H1322  H     0.75213   0.39930   0.62244   0.00000  Uiso   1.00
H1323  H     0.75039   0.36326   0.66954   0.00000  Uiso   1.00
H1324  H     0.73492   0.57647   0.83444   0.00000  Uiso   1.00
H1325  H     0.72730   0.59824   0.88959   0.00000  Uiso   1.00
H1326  H     0.94412   0.57979   0.85171   0.00000  Uiso   1.00
H1327  H     0.96901   0.62710   0.89197   0.00000  Uiso   1.00
H1328  H     0.72192   0.34218   0.83343   0.00000  Uiso   1.00
H1329  H     0.97665   0.34075   0.82755   0.00000  Uiso   1.00
H1330  H     0.68828   0.63153   0.79404   0.00000  Uiso   1.00
H1331  H     0.68358   0.58211   0.54635   0.00000  Uiso   1.00
H1332  H     0.73503   0.48370   0.57593   0.00000  Uiso   1.00
H1333  H     0.91306   0.56299   0.93170   0.00000  Uiso   1.00
H1334  H     0.89959   0.34600   0.75979   0.00000  Uiso   1.00
H1335  H     0.77041   0.65424   0.73519   0.00000  Uiso   1.00
H1336  H     0.66828   0.53803   0.78442   0.00000  Uiso   1.00
N1337  N     0.98173   0.51401   0.76212   0.00000  Uiso   1.00
N1338  N     0.68494   0.48599   0.73788   0.00000  Uiso   1.00
O1339  O     0.79482   0.57142   0.74686   0.00000  Uiso   1.00
O1340  O     0.66716   0.59552   0.97276   0.00000  Uiso   1.00
O1341  O     0.66677   0.55634   0.62664   0.00000  Uiso   1.00
O1342  O     0.67224   0.52324   0.87905   0.00000  Uiso   1.00
O1343  O     0.87185   0.42858   0.75314   0.00000  Uiso   1.00
O1344  O     0.89496   0.58086   0.75503   0.00000  Uiso   1.00
O1345  O     0.77171   0.41914   0.74498   0.00000  Uiso   1.00
O1346  O     0.75518   0.49263   0.80855   0.00000  Uiso   1.00
O1347  O     0.91149   0.50737   0.69146   0.00000  Uiso   1.00
O1348  O     0.85532   0.50207   0.81671   0.00000  Uiso   1.00
O1349  O     0.81134   0.49793   0.68329   0.00000  Uiso   1.00
O1350  O     0.97916   0.45191   0.52954   0.00000  Uiso   1.00
C1351  C     0.18178   0.93334   0.75097   0.00000  Uiso   1.00
C1352  C     0.20461   0.83965   0.66728   0.00000  Uiso   1.00
C1353  C     0.10701   0.83587   0.88046   0.00000  Uiso   1.00
C1354  C     0.22579   0.85339   0.62113   0.00000  Uiso   1.00
C1355  C     0.02134   0.82099   0.94333   0.00000  Uiso   1.00
C1356  C     0.30206   0.89680   0.56020   0.00000  Uiso   1.00
C1357  C     0.04402   0.83706   0.90005   0.00000  Uiso   1.00
C1358  C     0.28675   0.88153   0.60345   0.00000  Uiso   1.00
C1359  C     0.14934   0.83874   0.90722   0.00000  Uiso   1.00
C1360  C     0.18110   0.84213   0.59546   0.00000  Uiso   1.00
C1361  C     0.12864   0.83911   0.95268   0.00000  Uiso   1.00
C1362  C     0.15238   0.73340   0.74752   0.00000  Uiso   1.00
C1363  C     0.19503   0.85836   0.55224   0.00000  Uiso   1.00
C1364  C     0.06372   0.82214   0.97035   0.00000  Uiso   1.00
C1365  C     0.25684   0.88677   0.53475   0.00000  Uiso   1.00
C1366  C     0.17074   0.85526   0.98054   0.00000  Uiso   1.00
C1367  C     0.15028   0.84513   0.52541   0.00000  Uiso   1.00
C1368  C     0.30124   0.75482   0.56717   0.00000  Uiso   1.00
C1369  C     0.23632   0.71816   0.57426   0.00000  Uiso   1.00
C1370  C     0.21875   0.69337   0.61914   0.00000  Uiso   1.00
C1371  C     0.00745   0.98321   0.98223   0.00000  Uiso   1.00
C1372  C     0.07595   0.67791   0.96561   0.00000  Uiso   1.00
C1373  C     0.08618   0.82204   0.54170   0.00000  Uiso   1.00
C1374  C     0.12044   0.99250   0.98816   0.00000  Uiso   1.00
C1375  C     0.00267   0.93856   0.64908   0.00000  Uiso   1.00
C1376  C     0.04301   0.98346   0.61952   0.00000  Uiso   1.00
C1377  C     0.05696   0.70124   0.64513   0.00000  Uiso   1.00
C1378  C     0.03419   0.90951   0.86595   0.00000  Uiso   1.00
C1379  C     0.31842   0.94022   0.86087   0.00000  Uiso   1.00
C1380  C     0.01167   0.98302   0.82682   0.00000  Uiso   1.00
C1381  C     0.23134   0.88532   0.96487   0.00000  Uiso   1.00
C1382  C     0.04262   0.80894   0.51451   0.00000  Uiso   1.00
C1383  C     0.27331   0.90307   0.99151   0.00000  Uiso   1.00
C1384  C     0.19019   0.98926   0.75187   0.00000  Uiso   1.00
C1385  C     0.14571   0.67763   0.74405   0.00000  Uiso   1.00
C1386  C     0.12916   0.83262   0.83297   0.00000  Uiso   1.00
Cu1387 Cu    0.10737   0.82775   0.74517   0.00000  Uiso   1.00
Cu1388 Cu    0.22596   0.83892   0.75484   0.00000  Uiso   1.00
H1389  H     0.13589   0.81899   0.60985   0.00000  Uiso   1.00
H1390  H     0.33178   0.79507   0.71553   0.00000  Uiso   1.00
H1391  H     0.30227   0.78097   0.59619   0.00000  Uiso   1.00
H1392  H     0.00360   0.73049   0.56431   0.00000  Uiso   1.00
H1393  H     0.20051   0.74042   0.57166   0.00000  Uiso   1.00
H1394  H     0.23602   0.68672   0.54887   0.00000  Uiso   1.00
H1395  H     0.25745   0.67710   0.62510   0.00000  Uiso   1.00
H1396  H     0.17759   0.99376   0.62163   0.00000  Uiso   1.00
H1397  H     0.20793   0.72320   0.64480   0.00000  Uiso   1.00
H1398  H     0.32777   0.99085   0.51773   0.00000  Uiso   1.00
H1399  H     0.31070   0.66696   0.96601   0.00000  Uiso   1.00
H1400  H     0.19820   0.84021   0.89243   0.00000  Uiso   1.00
H1401  H     0.09038   0.67176   0.93001   0.00000  Uiso   1.00
H1402  H     0.08031   0.72070   0.97168   0.00000  Uiso   1.00
H1403  H     0.10848   0.66757   0.52359   0.00000  Uiso   1.00
H1404  H     0.16945   0.68024   0.97487   0.00000  Uiso   1.00
H1405  H     0.11763   0.94967   0.98261   0.00000  Uiso   1.00
H1406  H     0.02483   0.93656   0.67676   0.00000  Uiso   1.00
H1407  H     0.28858   0.94661   0.66349   0.00000  Uiso   1.00
H1408  H     0.08732   0.97232   0.60227   0.00000  Uiso   1.00
H1409  H     0.01851   0.99001   0.59443   0.00000  Uiso   1.00
H1410  H     0.01268   0.71308   0.66188   0.00000  Uiso   1.00
H1411  H     0.30464   0.81254   0.95663   0.00000  Uiso   1.00
H1412  H     0.08547   0.73263   0.62244   0.00000  Uiso   1.00
H1413  H     0.08372   0.69660   0.66954   0.00000  Uiso   1.00
H1414  H     0.06825   0.90980   0.83444   0.00000  Uiso   1.00
H1415  H     0.06063   0.93157   0.88959   0.00000  Uiso   1.00
H1416  H     0.27745   0.91312   0.85171   0.00000  Uiso   1.00
H1417  H     0.30235   0.96043   0.89197   0.00000  Uiso   1.00
H1418  H     0.05525   0.67551   0.83343   0.00000  Uiso   1.00
H1419  H     0.30998   0.67408   0.82755   0.00000  Uiso   1.00
H1420  H     0.02161   0.96486   0.79404   0.00000  Uiso   1.00
H1421  H     0.01691   0.91545   0.54635   0.00000  Uiso   1.00
H1422  H     0.06836   0.81704   0.57593   0.00000  Uiso   1.00
H1423  H     0.24640   0.89632   0.93170   0.00000  Uiso   1.00
H1424  H     0.23292   0.67934   0.75979   0.00000  Uiso   1.00
H1425  H     0.10374   0.98757   0.73519   0.00000  Uiso   1.00
H1426  H     0.00161   0.87136   0.78442   0.00000  Uiso   1.00
N1427  N     0.31506   0.84735   0.76212   0.00000  Uiso   1.00
N1428  N     0.01827   0.81932   0.73788   0.00000  Uiso   1.00
O1429  O     0.12815   0.90476   0.74686   0.00000  Uiso   1.00
O1430  O     0.00050   0.92886   0.97276   0.00000  Uiso   1.00
O1431  O     0.00010   0.88967   0.62664   0.00000  Uiso   1.00
O1432  O     0.00557   0.85657   0.87905   0.00000  Uiso   1.00
O1433  O     0.20518   0.76191   0.75314   0.00000  Uiso   1.00
O1434  O     0.22829   0.91420   0.75503   0.00000  Uiso   1.00
O1435  O     0.10504   0.75247   0.74498   0.00000  Uiso   1.00
O1436  O     0.08851   0.82597   0.80855   0.00000  Uiso   1.00
O1437  O     0.24482   0.84070   0.69146   0.00000  Uiso   1.00
O1438  O     0.18866   0.83540   0.81671   0.00000  Uiso   1.00
O1439  O     0.14468   0.83126   0.68329   0.00000  Uiso   1.00
O1440  O     0.31249   0.78524   0.52954   0.00000  Uiso   1.00
C1441  C     0.51511   0.93334   0.75097   0.00000  Uiso   1.00
C1442  C     0.53794   0.83965   0.66728   0.00000  Uiso   1.00
C1443  C     0.44034   0.83587   0.88046   0.00000  Uiso   1.00
C1444  C     0.55912   0.85339   0.62113   0.00000  Uiso   1.00
C1445  C     0.35467   0.82099   0.94333   0.00000  Uiso   1.00
C1446  C     0.63539   0.89680   0.56020   0.00000  Uiso   1.00
C1447  C     0.37735   0.83706   0.90005   0.00000  Uiso   1.00
C1448  C     0.62008   0.88153   0.60345   0.00000  Uiso   1.00
C1449  C     0.48267   0.83874   0.90722   0.00000  Uiso   1.00
C1450  C     0.51443   0.84213   0.59546   0.00000  Uiso   1.00
C1451  C     0.46197   0.83911   0.95268   0.00000  Uiso   1.00
C1452  C     0.48571   0.73340   0.74752   0.00000  Uiso   1.00
C1453  C     0.52836   0.85836   0.55224   0.00000  Uiso   1.00
C1454  C     0.39705   0.82214   0.97035   0.00000  Uiso   1.00
C1455  C     0.59017   0.88677   0.53475   0.00000  Uiso   1.00
C1456  C     0.50407   0.85526   0.98054   0.00000  Uiso   1.00
C1457  C     0.48361   0.84513   0.52541   0.00000  Uiso   1.00
C1458  C     0.63458   0.75482   0.56717   0.00000  Uiso   1.00
C1459  C     0.56966   0.71816   0.57426   0.00000  Uiso   1.00
C1460  C     0.55209   0.69337   0.61914   0.00000  Uiso   1.00
C1461  C     0.34079   0.98321   0.98223   0.00000  Uiso   1.00
C1462  C     0.40928   0.67791   0.96561   0.00000  Uiso   1.00
C1463  C     0.41951   0.82204   0.54170   0.00000  Uiso   1.00
C1464  C     0.45377   0.99250   0.98816   0.00000  Uiso   1.00
C1465  C     0.33601   0.93856   0.64908   0.00000  Uiso   1.00
C1466  C     0.37635   0.98346   0.61952   0.00000  Uiso   1.00
C1467  C     0.39029   0.70124   0.64513   0.00000  Uiso   1.00
C1468  C     0.36752   0.90951   0.86595   0.00000  Uiso   1.00
C1469  C     0.65175   0.94022   0.86087   0.00000  Uiso   1.00
C1470  C     0.34500   0.98302   0.82682   0.00000  Uiso   1.00
C1471  C     0.56468   0.88532   0.96487   0.00000  Uiso   1.00
C1472  C     0.37595   0.80894   0.51451   0.00000  Uiso   1.00
C1473  C     0.60664   0.90307   0.99151   0.00000  Uiso   1.00
C1474  C     0.52352   0.98926   0.75187   0.00000  Uiso   1.00
C1475  C     0.47904   0.67763   0.74405   0.00000  Uiso   1.00
C1476  C     0.46249   0.83262   0.83297   0.00000  Uiso   1.00
Cu1477 Cu    0.44071   0.82775   0.74517   0.00000  Uiso   1.00
Cu1478 Cu    0.55929   0.83892   0.75484   0.00000  Uiso   1.00
H1479  H     0.46922   0.81899   0.60985   0.00000  Uiso   1.00
H1480  H     0.66511   0.79507   0.71553   0.00000  Uiso   1.00
H1481  H     0.63560   0.78097   0.59619   0.00000  Uiso   1.00
H1482  H     0.33693   0.73049   0.56431   0.00000  Uiso   1.00
H1483  H     0.53384   0.74042   0.57166   0.00000  Uiso   1.00
H1484  H     0.56935   0.68672   0.54887   0.00000  Uiso   1.00
H1485  H     0.59079   0.67710   0.62510   0.00000  Uiso   1.00
H1486  H     0.51092   0.99376   0.62163   0.00000  Uiso   1.00
H1487  H     0.54127   0.72320   0.64480   0.00000  Uiso   1.00
H1488  H     0.66110   0.99085   0.51773   0.00000  Uiso   1.00
H1489  H     0.64403   0.66696   0.96601   0.00000  Uiso   1.00
H1490  H     0.53154   0.84021   0.89243   0.00000  Uiso   1.00
H1491  H     0.42371   0.67176   0.93001   0.00000  Uiso   1.00
H1492  H     0.41365   0.72070   0.97168   0.00000  Uiso   1.00
H1493  H     0.44181   0.66757   0.52359   0.00000  Uiso   1.00
H1494  H     0.50278   0.68024   0.97487   0.00000  Uiso   1.00
H1495  H     0.45096   0.94967   0.98261   0.00000  Uiso   1.00
H1496  H     0.35817   0.93656   0.67676   0.00000  Uiso   1.00
H1497  H     0.62191   0.94661   0.66349   0.00000  Uiso   1.00
H1498  H     0.42065   0.97232   0.60227   0.00000  Uiso   1.00
H1499  H     0.35184   0.99001   0.59443   0.00000  Uiso   1.00
H1500  H     0.34601   0.71308   0.66188   0.00000  Uiso   1.00
H1501  H     0.63797   0.81254   0.95663   0.00000  Uiso   1.00
H1502  H     0.41880   0.73263   0.62244   0.00000  Uiso   1.00
H1503  H     0.41706   0.69660   0.66954   0.00000  Uiso   1.00
H1504  H     0.40158   0.90980   0.83444   0.00000  Uiso   1.00
H1505  H     0.39396   0.93157   0.88959   0.00000  Uiso   1.00
H1506  H     0.61078   0.91312   0.85171   0.00000  Uiso   1.00
H1507  H     0.63568   0.96043   0.89197   0.00000  Uiso   1.00
H1508  H     0.38859   0.67551   0.83343   0.00000  Uiso   1.00
H1509  H     0.64331   0.67408   0.82755   0.00000  Uiso   1.00
H1510  H     0.35494   0.96486   0.79404   0.00000  Uiso   1.00
H1511  H     0.35025   0.91545   0.54635   0.00000  Uiso   1.00
H1512  H     0.40169   0.81704   0.57593   0.00000  Uiso   1.00
H1513  H     0.57973   0.89632   0.93170   0.00000  Uiso   1.00
H1514  H     0.56625   0.67934   0.75979   0.00000  Uiso   1.00
H1515  H     0.43707   0.98757   0.73519   0.00000  Uiso   1.00
H1516  H     0.33495   0.87136   0.78442   0.00000  Uiso   1.00
N1517  N     0.64839   0.84735   0.76212   0.00000  Uiso   1.00
N1518  N     0.35161   0.81932   0.73788   0.00000  Uiso   1.00
O1519  O     0.46148   0.90476   0.74686   0.00000  Uiso   1.00
O1520  O     0.33383   0.92886   0.97276   0.00000  Uiso   1.00
O1521  O     0.33343   0.88967   0.62664   0.00000  Uiso   1.00
O1522  O     0.33891   0.85657   0.87905   0.00000  Uiso   1.00
O1523  O     0.53852   0.76191   0.75314   0.00000  Uiso   1.00
O1524  O     0.56163   0.91420   0.75503   0.00000  Uiso   1.00
O1525  O     0.43837   0.75247   0.74498   0.00000  Uiso   1.00
O1526  O     0.42185   0.82597   0.80855   0.00000  Uiso   1.00
O1527  O     0.57815   0.84070   0.69146   0.00000  Uiso   1.00
O1528  O     0.52199   0.83540   0.81671   0.00000  Uiso   1.00
O1529  O     0.47801   0.83126   0.68329   0.00000  Uiso   1.00
O1530  O     0.64583   0.78524   0.52954   0.00000  Uiso   1.00
C1531  C     0.84845   0.93334   0.75097   0.00000  Uiso   1.00
C1532  C     0.87128   0.83965   0.66728   0.00000  Uiso   1.00
C1533  C     0.77368   0.83587   0.88046   0.00000  Uiso   1.00
C1534  C     0.89245   0.85339   0.62113   0.00000  Uiso   1.00
C1535  C     0.68801   0.82099   0.94333   0.00000  Uiso   1.00
C1536  C     0.96872   0.89680   0.56020   0.00000  Uiso   1.00
C1537  C     0.71068   0.83706   0.90005   0.00000  Uiso   1.00
C1538  C     0.95341   0.88153   0.60345   0.00000  Uiso   1.00
C1539  C     0.81600   0.83874   0.90722   0.00000  Uiso   1.00
C1540  C     0.84777   0.84213   0.59546   0.00000  Uiso   1.00
C1541  C     0.79530   0.83911   0.95268   0.00000  Uiso   1.00
C1542  C     0.81904   0.73340   0.74752   0.00000  Uiso   1.00
C1543  C     0.86170   0.85836   0.55224   0.00000  Uiso   1.00
C1544  C     0.73039   0.82214   0.97035   0.00000  Uiso   1.00
C1545  C     0.92351   0.88677   0.53475   0.00000  Uiso   1.00
C1546  C     0.83740   0.85526   0.98054   0.00000  Uiso   1.00
C1547  C     0.81694   0.84513   0.52541   0.00000  Uiso   1.00
C1548  C     0.96791   0.75482   0.56717   0.00000  Uiso   1.00
C1549  C     0.90299   0.71816   0.57426   0.00000  Uiso   1.00
C1550  C     0.88542   0.69337   0.61914   0.00000  Uiso   1.00
C1551  C     0.67412   0.98321   0.98223   0.00000  Uiso   1.00
C1552  C     0.74262   0.67791   0.96561   0.00000  Uiso   1.00
C1553  C     0.75285   0.82204   0.54170   0.00000  Uiso   1.00
C1554  C     0.78711   0.99250   0.98816   0.00000  Uiso   1.00
C1555  C     0.66934   0.93856   0.64908   0.00000  Uiso   1.00
C1556  C     0.70968   0.98346   0.61952   0.00000  Uiso   1.00
C1557  C     0.72363   0.70124   0.64513   0.00000  Uiso   1.00
C1558  C     0.70086   0.90951   0.86595   0.00000  Uiso   1.00
C1559  C     0.98508   0.94022   0.86087   0.00000  Uiso   1.00
C1560  C     0.67834   0.98302   0.82682   0.00000  Uiso   1.00
C1561  C     0.89801   0.88532   0.96487   0.00000  Uiso   1.00
C1562  C     0.70929   0.80894   0.51451   0.00000  Uiso   1.00
C1563  C     0.93998   0.90307   0.99151   0.00000  Uiso   1.00
C1564  C     0.85685   0.98926   0.75187   0.00000  Uiso   1.00
C1565  C     0.81238   0.67763   0.74405   0.00000  Uiso   1.00
C1566  C     0.79583   0.83262   0.83297   0.00000  Uiso   1.00
Cu1567 Cu    0.77404   0.82775   0.74517   0.00000  Uiso   1.00
Cu1568 Cu    0.89263   0.83892   0.75484   0.00000  Uiso   1.00
H1569  H     0.80255   0.81899   0.60985   0.00000  Uiso   1.00
H1570  H     0.99845   0.79507   0.71553   0.00000  Uiso   1.00
H1571  H     0.96893   0.78097   0.59619   0.00000  Uiso   1.00
H1572  H     0.67027   0.73049   0.56431   0.00000  Uiso   1.00
H1573  H     0.86717   0.74042   0.57166   0.00000  Uiso   1.00
H1574  H     0.90268   0.68672   0.54887   0.00000  Uiso   1.00
H1575  H     0.92412   0.67710   0.62510   0.00000  Uiso   1.00
H1576  H     0.84425   0.99376   0.62163   0.00000  Uiso   1.00
H1577  H     0.87460   0.72320   0.64480   0.00000  Uiso   1.00
H1578  H     0.99443   0.99085   0.51773   0.00000  Uiso   1.00
H1579  H     0.97736   0.66696   0.96601   0.00000  Uiso   1.00
H1580  H     0.86487   0.84021   0.89243   0.00000  Uiso   1.00
H1581  H     0.75705   0.67176   0.93001   0.00000  Uiso   1.00
H1582  H     0.74698   0.72070   0.97168   0.00000  Uiso   1.00
H1583  H     0.77515   0.66757   0.52359   0.00000  Uiso   1.00
H1584  H     0.83612   0.68024   0.97487   0.00000  Uiso   1.00
H1585  H     0.78429   0.94967   0.98261   0.00000  Uiso   1.00
H1586  H     0.69150   0.93656   0.67676   0.00000  Uiso   1.00
H1587  H     0.95524   0.94661   0.66349   0.00000  Uiso   1.00
H1588  H     0.75398   0.97232   0.60227   0.00000  Uiso   1.00
H1589  H     0.68518   0.99001   0.59443   0.00000  Uiso   1.00
H1590  H     0.67934   0.71308   0.66188   0.00000  Uiso   1.00
H1591  H     0.97130   0.81254   0.95663   0.00000  Uiso   1.00
H1592  H     0.75213   0.73263   0.62244   0.00000  Uiso   1.00
H1593  H     0.75039   0.69660   0.66954   0.00000  Uiso   1.00
H1594  H     0.73492   0.90980   0.83444   0.00000  Uiso   1.00
H1595  H     0.72730   0.93157   0.88959   0.00000  Uiso   1.00
H1596  H     0.94412   0.91312   0.85171   0.00000  Uiso   1.00
H1597  H     0.96901   0.96043   0.89197   0.00000  Uiso   1.00
H1598  H     0.72192   0.67551   0.83343   0.00000  Uiso   1.00
H1599  H     0.97665   0.67408   0.82755   0.00000  Uiso   1.00
H1600  H     0.68828   0.96486   0.79404   0.00000  Uiso   1.00
H1601  H     0.68358   0.91545   0.54635   0.00000  Uiso   1.00
H1602  H     0.73503   0.81704   0.57593   0.00000  Uiso   1.00
H1603  H     0.91306   0.89632   0.93170   0.00000  Uiso   1.00
H1604  H     0.89959   0.67934   0.75979   0.00000  Uiso   1.00
H1605  H     0.77041   0.98757   0.73519   0.00000  Uiso   1.00
H1606  H     0.66828   0.87136   0.78442   0.00000  Uiso   1.00
N1607  N     0.98173   0.84735   0.76212   0.00000  Uiso   1.00
N1608  N     0.68494   0.81932   0.73788   0.00000  Uiso   1.00
O1609  O     0.79482   0.90476   0.74686   0.00000  Uiso   1.00
O1610  O     0.66716   0.92886   0.97276   0.00000  Uiso   1.00
O1611  O     0.66677   0.88967   0.62664   0.00000  Uiso   1.00
O1612  O     0.67224   0.85657   0.87905   0.00000  Uiso   1.00
O1613  O     0.87185   0.76191   0.75314   0.00000  Uiso   1.00
O1614  O     0.89496   0.91420   0.75503   0.00000  Uiso   1.00
O1615  O     0.77171   0.75247   0.74498   0.00000  Uiso   1.00
O1616  O     0.75518   0.82597   0.80855   0.00000  Uiso   1.00
O1617  O     0.91149   0.84070   0.69146   0.00000  Uiso   1.00
O1618  O     0.85532   0.83540   0.81671   0.00000  Uiso   1.00
O1619  O     0.81134   0.83126   0.68329   0.00000  Uiso   1.00
O1620  O     0.97916   0.78524   0.52954   0.00000  Uiso   1.00
loop_
_geom_bond_atom_site_label_1
_geom_bond_atom_site_label_2
_geom_bond_distance
_geom_bond_site_symmetry_2
_ccdc_geom_bond_type
C1     C34     1.428   .     S
C1     O84     1.286   .     A
C1     O79     1.295   .     A
C2     O89     1.295   .     A
C2     C4      1.469   .     S
C2     O87     1.305   .     A
C3     C7      1.411   .     A
C3     C9      1.398   .     A
C3     C36     1.473   .     S
C4     C8      1.404   .     A
C4     C10     1.401   .     A
C5     C7      1.403   .     A
C5     C14     1.412   .     A
C5     H241    1.080   1_455 S
C6     C15     1.405   .     A
C6     C8      1.394   .     A
C6     H161    1.082   .     S
C7     O82     1.395   .     S
C8     O171    1.383   .     S
C9     C11     1.406   .     A
C9     H50     1.080   .     S
C10    H39     1.072   .     S
C10    C13     1.402   .     A
C11    C14     1.413   .     A
C11    C16     1.415   .     A
C12    O85     1.288   .     A
C12    O83     1.294   .     A
C12    C35     1.428   .     S
C13    C15     1.420   .     A
C13    C17     1.431   .     A
C14    C842    1.407   .     S
C15    C843    1.401   1_554 S
C16    C31     1.404   .     A
C16    C827    1.411   .     S
C17    C23     1.416   .     A
C17    C826    1.411   1_554 S
C18    C19     1.530   .     S
C18    O90     1.416   .     S
C18    H41     1.109   .     S
C18    H132    1.112   .     S
C19    C20     1.529   .     S
C19    H43     1.110   .     S
C19    H44     1.110   .     S
C20    H45     1.103   .     S
C20    H47     1.111   .     S
C20    H586    1.104   1_545 S
C21    O80     1.411   .     S
C21    C292    1.532   .     S
C21    H1038   1.110   1_455 S
C21    H499    1.114   1_455 S
C22    H52     1.106   .     S
C22    H51     1.109   .     S
C22    C561    1.532   1_545 S
C22    C564    1.528   1_545 S
C23    H72     1.070   .     S
C23    C32     1.418   .     A
C24    H55     1.109   .     S
C24    C292    1.528   .     S
C24    H1133   1.110   .     S
C24    H324    1.111   .     S
C25    H56     1.111   .     S
C25    O81     1.414   .     S
C25    C26     1.531   .     S
C25    H237    1.116   1_455 S
C26    H59     1.105   .     S
C26    H58     1.107   .     S
C26    C297    1.524   .     S
C27    H60     1.111   .     S
C27    H62     1.107   .     S
C27    H63     1.109   .     S
C27    C566    1.524   1_545 S
C28    O82     1.431   .     S
C28    H64     1.106   .     S
C28    H65     1.113   .     S
C28    C209    1.539   1_455 S
C29    H67     1.109   .     S
C29    H66     1.111   .     S
C29    C118    1.539   .     S
C29    C120    1.525   .     S
C30    H70     1.107   .     S
C30    C209    1.525   1_455 S
C30    H338    1.111   .     S
C30    H519    1.111   1_455 S
C31    H73     1.063   .     S
C31    C33     1.390   .     A
C32    C824    1.407   1_554 S
C32    O270    1.402   1_455 S
C33    C825    1.401   .     S
C33    O170    1.385   .     S
C34    C305    1.326   .     S
C34    H344    1.088   .     S
C35    C574    1.326   1_545 S
C35    H615    1.086   1_545 S
C36    O88     1.301   .     A
C36    O86     1.302   .     A
Cu37   O79     1.958   .     S
Cu37   O85     1.952   .     S
Cu37   O86     1.953   .     S
Cu37   Cu38    2.695   .     S
Cu37   N78     2.025   .     S
Cu37   O89     1.942   .     S
Cu38   O83     1.958   .     S
Cu38   O88     1.942   .     S
Cu38   O84     1.952   .     S
Cu38   N77     2.025   .     S
Cu38   O87     1.953   .     S
H40    N168    1.029   .     S
H42    C198    1.112   1_455 S
H46    C290    1.104   .     S
H48    C921    1.110   1_554 S
H49    C651    1.114   1_545 S
H53    C1374   1.110   1_544 S
H54    C564    1.111   1_545 S
H57    C115    1.116   .     S
H61    C95     1.080   .     S
H68    C570    1.111   1_545 S
H69    C660    1.111   1_545 S
H71    C186    1.082   1_455 S
H74    C574    1.088   1_545 S
H75    C305    1.086   .     S
H76    N257    1.026   1_455 S
N77    H166    1.026   .     S
N77    N168    1.302   .     S
N78    H220    1.029   1_455 S
N78    N257    1.302   1_455 S
O80    C213    1.385   1_455 S
O81    C188    1.383   1_455 S
O90    C122    1.402   .     S
C91    C124    1.428   .     S
C91    O174    1.286   .     A
C91    O169    1.295   .     A
C92    O179    1.295   .     A
C92    C94     1.469   .     S
C92    O177    1.305   .     A
C93    C97     1.411   .     A
C93    C99     1.398   .     A
C93    C126    1.473   .     S
C94    C98     1.404   .     A
C94    C100    1.401   .     A
C95    C97     1.403   .     A
C95    C104    1.412   .     A
C96    C105    1.405   .     A
C96    C98     1.394   .     A
C96    H251    1.082   .     S
C97    O172    1.395   .     S
C98    O261    1.383   .     S
C99    C101    1.406   .     A
C99    H140    1.080   .     S
C100   H129    1.072   .     S
C100   C103    1.402   .     A
C101   C104    1.413   .     A
C101   C106    1.415   .     A
C102   O175    1.288   .     A
C102   O173    1.294   .     A
C102   C125    1.428   .     S
C103   C105    1.420   .     A
C103   C107    1.431   .     A
C104   C932    1.407   .     S
C105   C933    1.401   1_554 S
C106   C121    1.404   .     A
C106   C917    1.411   .     S
C107   C113    1.416   .     A
C107   C916    1.411   1_554 S
C108   C109    1.530   .     S
C108   O180    1.416   .     S
C108   H131    1.109   .     S
C108   H222    1.112   .     S
C109   C110    1.529   .     S
C109   H133    1.110   .     S
C109   H134    1.110   .     S
C110   H135    1.103   .     S
C110   H137    1.111   .     S
C110   H676    1.104   1_545 S
C111   O170    1.411   .     S
C111   C382    1.532   .     S
C111   H858    1.110   .     S
C111   H319    1.114   .     S
C112   H142    1.106   .     S
C112   H141    1.109   .     S
C112   C651    1.532   1_545 S
C112   C654    1.528   1_545 S
C113   H162    1.070   .     S
C113   C122    1.418   .     A
C114   H145    1.109   .     S
C114   C382    1.528   .     S
C114   H1223   1.110   .     S
C114   H414    1.111   .     S
C115   H146    1.111   .     S
C115   O171    1.414   .     S
C115   C116    1.531   .     S
C116   H149    1.105   .     S
C116   H148    1.107   .     S
C116   C387    1.524   .     S
C117   H150    1.111   .     S
C117   H152    1.107   .     S
C117   H153    1.109   .     S
C117   C656    1.524   1_545 S
C118   O172    1.431   .     S
C118   H154    1.106   .     S
C118   H155    1.113   .     S
C119   H157    1.109   .     S
C119   H156    1.111   .     S
C119   C208    1.539   .     S
C119   C210    1.525   .     S
C120   H160    1.107   .     S
C120   H428    1.111   .     S
C120   H339    1.111   .     S
C121   H163    1.063   .     S
C121   C123    1.390   .     A
C122   C914    1.407   1_554 S
C123   C915    1.401   .     S
C123   O260    1.385   .     S
C124   C395    1.326   .     S
C124   H434    1.088   .     S
C125   C664    1.326   1_545 S
C125   H705    1.086   1_545 S
C126   O178    1.301   .     A
C126   O176    1.302   .     A
Cu127  O169    1.958   .     S
Cu127  O175    1.952   .     S
Cu127  O176    1.953   .     S
Cu127  Cu128   2.695   .     S
Cu127  N168    2.025   .     S
Cu127  O179    1.942   .     S
Cu128  O173    1.958   .     S
Cu128  O178    1.942   .     S
Cu128  O174    1.952   .     S
Cu128  N167    2.025   .     S
Cu128  O177    1.953   .     S
H130   N258    1.029   .     S
H136   C380    1.104   .     S
H138   C1011   1.110   1_554 S
H139   C741    1.114   1_545 S
H143   C1464   1.110   1_544 S
H144   C654    1.111   1_545 S
H147   C205    1.116   .     S
H151   C185    1.080   .     S
H158   C660    1.111   1_545 S
H159   C750    1.111   1_545 S
H164   C664    1.088   1_545 S
H165   C395    1.086   .     S
N167   H256    1.026   .     S
N167   N258    1.302   .     S
O180   C212    1.402   .     S
C181   C214    1.428   .     S
C181   O264    1.286   .     A
C181   O259    1.295   .     A
C182   O269    1.295   .     A
C182   C184    1.469   .     S
C182   O267    1.305   .     A
C183   C187    1.411   .     A
C183   C189    1.398   .     A
C183   C216    1.473   .     S
C184   C188    1.404   .     A
C184   C190    1.401   .     A
C185   C187    1.403   .     A
C185   C194    1.412   .     A
C186   C195    1.405   .     A
C186   C188    1.394   .     A
C186   H71     1.082   1_655 S
C187   O262    1.395   .     S
C188   O81     1.383   1_655 S
C189   C191    1.406   .     A
C189   H230    1.080   .     S
C190   H219    1.072   .     S
C190   C193    1.402   .     A
C191   C194    1.413   .     A
C191   C196    1.415   .     A
C192   O265    1.288   .     A
C192   O263    1.294   .     A
C192   C215    1.428   .     S
C193   C195    1.420   .     A
C193   C197    1.431   .     A
C194   C1022   1.407   .     S
C195   C1023   1.401   1_554 S
C196   C211    1.404   .     A
C196   C1007   1.411   .     S
C197   C203    1.416   .     A
C197   C1006   1.411   1_554 S
C198   C199    1.530   .     S
C198   O270    1.416   .     S
C198   H221    1.109   .     S
C198   H42     1.112   1_655 S
C199   C200    1.529   .     S
C199   H223    1.110   .     S
C199   H224    1.110   .     S
C200   H225    1.103   .     S
C200   H227    1.111   .     S
C200   H766    1.104   1_545 S
C201   O260    1.411   .     S
C201   C472    1.532   .     S
C201   H948    1.110   .     S
C201   H409    1.114   .     S
C202   H232    1.106   .     S
C202   H231    1.109   .     S
C202   C741    1.532   1_545 S
C202   C744    1.528   1_545 S
C203   H252    1.070   .     S
C203   C212    1.418   .     A
C204   H235    1.109   .     S
C204   C472    1.528   .     S
C204   H1313   1.110   .     S
C204   H504    1.111   .     S
C205   H236    1.111   .     S
C205   O261    1.414   .     S
C205   C206    1.531   .     S
C206   H239    1.105   .     S
C206   H238    1.107   .     S
C206   C477    1.524   .     S
C207   H240    1.111   .     S
C207   H242    1.107   .     S
C207   H243    1.109   .     S
C207   C746    1.524   1_545 S
C208   O262    1.431   .     S
C208   H244    1.106   .     S
C208   H245    1.113   .     S
C209   H247    1.109   .     S
C209   H246    1.111   .     S
C209   C28     1.539   1_655 S
C209   C30     1.525   1_655 S
C210   H250    1.107   .     S
C210   H518    1.111   .     S
C210   H429    1.111   .     S
C211   H253    1.063   .     S
C211   C213    1.390   .     A
C212   C1004   1.407   1_554 S
C213   C1005   1.401   .     S
C213   O80     1.385   1_655 S
C214   C485    1.326   .     S
C214   H524    1.088   .     S
C215   C754    1.326   1_545 S
C215   H795    1.086   1_545 S
C216   O268    1.301   .     A
C216   O266    1.302   .     A
Cu217  O259    1.958   .     S
Cu217  O265    1.952   .     S
Cu217  O266    1.953   .     S
Cu217  Cu218   2.695   .     S
Cu217  N258    2.025   .     S
Cu217  O269    1.942   .     S
Cu218  O263    1.958   .     S
Cu218  O268    1.942   .     S
Cu218  O264    1.952   .     S
Cu218  N257    2.025   .     S
Cu218  O267    1.953   .     S
H220   N78     1.029   1_655 S
H226   C470    1.104   .     S
H228   C831    1.110   1_654 S
H229   C561    1.114   1_645 S
H233   C1554   1.110   1_544 S
H234   C744    1.111   1_545 S
H237   C25     1.116   1_655 S
H241   C5      1.080   1_655 S
H248   C750    1.111   1_545 S
H249   C570    1.111   1_645 S
H254   C754    1.088   1_545 S
H255   C485    1.086   .     S
N257   H76     1.026   1_655 S
N257   N78     1.302   1_655 S
O270   C32     1.402   1_655 S
C271   C304    1.428   .     S
C271   O354    1.286   .     A
C271   O349    1.295   .     A
C272   O359    1.295   .     A
C272   C274    1.469   .     S
C272   O357    1.305   .     A
C273   C277    1.411   .     A
C273   C279    1.398   .     A
C273   C306    1.473   .     S
C274   C278    1.404   .     A
C274   C280    1.401   .     A
C275   C277    1.403   .     A
C275   C284    1.412   .     A
C275   H511    1.080   1_455 S
C276   C285    1.405   .     A
C276   C278    1.394   .     A
C276   H431    1.082   .     S
C277   O352    1.395   .     S
C278   O441    1.383   .     S
C279   C281    1.406   .     A
C279   H320    1.080   .     S
C280   H309    1.072   .     S
C280   C283    1.402   .     A
C281   C284    1.413   .     A
C281   C286    1.415   .     A
C282   O355    1.288   .     A
C282   O353    1.294   .     A
C282   C305    1.428   .     S
C283   C285    1.420   .     A
C283   C287    1.431   .     A
C284   C1112   1.407   .     S
C285   C1113   1.401   1_554 S
C286   C301    1.404   .     A
C286   C1097   1.411   .     S
C287   C293    1.416   .     A
C287   C1096   1.411   1_554 S
C288   C289    1.530   .     S
C288   O360    1.416   .     S
C288   H311    1.109   .     S
C288   H402    1.112   .     S
C289   C290    1.529   .     S
C289   H313    1.110   .     S
C289   H314    1.110   .     S
C290   H315    1.103   .     S
C290   H317    1.111   .     S
C291   O350    1.411   .     S
C291   C562    1.532   .     S
C291   H1308   1.110   1_455 S
C291   H769    1.114   1_455 S
C292   H322    1.106   .     S
C292   H321    1.109   .     S
C293   H342    1.070   .     S
C293   C302    1.418   .     A
C294   H325    1.109   .     S
C294   C562    1.528   .     S
C294   H1403   1.110   .     S
C294   H594    1.111   .     S
C295   H326    1.111   .     S
C295   O351    1.414   .     S
C295   C296    1.531   .     S
C295   H507    1.116   1_455 S
C296   H329    1.105   .     S
C296   H328    1.107   .     S
C296   C567    1.524   .     S
C297   H330    1.111   .     S
C297   H332    1.107   .     S
C297   H333    1.109   .     S
C298   O352    1.431   .     S
C298   H334    1.106   .     S
C298   H335    1.113   .     S
C298   C479    1.539   1_455 S
C299   H337    1.109   .     S
C299   H336    1.111   .     S
C299   C388    1.539   .     S
C299   C390    1.525   .     S
C300   H340    1.107   .     S
C300   C479    1.525   1_455 S
C300   H608    1.111   .     S
C300   H789    1.111   1_455 S
C301   H343    1.063   .     S
C301   C303    1.390   .     A
C302   C1094   1.407   1_554 S
C302   O540    1.402   1_455 S
C303   C1095   1.401   .     S
C303   O440    1.385   .     S
C304   C575    1.326   .     S
C304   H614    1.088   .     S
C306   O358    1.301   .     A
C306   O356    1.302   .     A
Cu307  O349    1.958   .     S
Cu307  O355    1.952   .     S
Cu307  O356    1.953   .     S
Cu307  Cu308   2.695   .     S
Cu307  N348    2.025   .     S
Cu307  O359    1.942   .     S
Cu308  O353    1.958   .     S
Cu308  O358    1.942   .     S
Cu308  O354    1.952   .     S
Cu308  N347    2.025   .     S
Cu308  O357    1.953   .     S
H310   N438    1.029   .     S
H312   C468    1.112   1_455 S
H316   C560    1.104   .     S
H318   C1191   1.110   1_554 S
H323   C834    1.110   1_554 S
H327   C385    1.116   .     S
H331   C365    1.080   .     S
H341   C456    1.082   1_455 S
H345   C575    1.086   .     S
H346   N527    1.026   1_455 S
N347   H436    1.026   .     S
N347   N438    1.302   .     S
N348   H490    1.029   1_455 S
N348   N527    1.302   1_455 S
O350   C483    1.385   1_455 S
O351   C458    1.383   1_455 S
O360   C392    1.402   .     S
C361   C394    1.428   .     S
C361   O444    1.286   .     A
C361   O439    1.295   .     A
C362   O449    1.295   .     A
C362   C364    1.469   .     S
C362   O447    1.305   .     A
C363   C367    1.411   .     A
C363   C369    1.398   .     A
C363   C396    1.473   .     S
C364   C368    1.404   .     A
C364   C370    1.401   .     A
C365   C367    1.403   .     A
C365   C374    1.412   .     A
C366   C375    1.405   .     A
C366   C368    1.394   .     A
C366   H521    1.082   .     S
C367   O442    1.395   .     S
C368   O531    1.383   .     S
C369   C371    1.406   .     A
C369   H410    1.080   .     S
C370   H399    1.072   .     S
C370   C373    1.402   .     A
C371   C374    1.413   .     A
C371   C376    1.415   .     A
C372   O445    1.288   .     A
C372   O443    1.294   .     A
C372   C395    1.428   .     S
C373   C375    1.420   .     A
C373   C377    1.431   .     A
C374   C1202   1.407   .     S
C375   C1203   1.401   1_554 S
C376   C391    1.404   .     A
C376   C1187   1.411   .     S
C377   C383    1.416   .     A
C377   C1186   1.411   1_554 S
C378   C379    1.530   .     S
C378   O450    1.416   .     S
C378   H401    1.109   .     S
C378   H492    1.112   .     S
C379   C380    1.529   .     S
C379   H403    1.110   .     S
C379   H404    1.110   .     S
C380   H405    1.103   .     S
C380   H407    1.111   .     S
C381   O440    1.411   .     S
C381   C652    1.532   .     S
C381   H1128   1.110   .     S
C381   H589    1.114   .     S
C382   H412    1.106   .     S
C382   H411    1.109   .     S
C383   H432    1.070   .     S
C383   C392    1.418   .     A
C384   H415    1.109   .     S
C384   C652    1.528   .     S
C384   H1493   1.110   .     S
C384   H684    1.111   .     S
C385   H416    1.111   .     S
C385   O441    1.414   .     S
C385   C386    1.531   .     S
C386   H419    1.105   .     S
C386   H418    1.107   .     S
C386   C657    1.524   .     S
C387   H420    1.111   .     S
C387   H422    1.107   .     S
C387   H423    1.109   .     S
C388   O442    1.431   .     S
C388   H424    1.106   .     S
C388   H425    1.113   .     S
C389   H427    1.109   .     S
C389   H426    1.111   .     S
C389   C478    1.539   .     S
C389   C480    1.525   .     S
C390   H430    1.107   .     S
C390   H698    1.111   .     S
C390   H609    1.111   .     S
C391   H433    1.063   .     S
C391   C393    1.390   .     A
C392   C1184   1.407   1_554 S
C393   C1185   1.401   .     S
C393   O530    1.385   .     S
C394   C665    1.326   .     S
C394   H704    1.088   .     S
C396   O448    1.301   .     A
C396   O446    1.302   .     A
Cu397  O439    1.958   .     S
Cu397  O445    1.952   .     S
Cu397  O446    1.953   .     S
Cu397  Cu398   2.695   .     S
Cu397  N438    2.025   .     S
Cu397  O449    1.942   .     S
Cu398  O443    1.958   .     S
Cu398  O448    1.942   .     S
Cu398  O444    1.952   .     S
Cu398  N437    2.025   .     S
Cu398  O447    1.953   .     S
H400   N528    1.029   .     S
H406   C650    1.104   .     S
H408   C1281   1.110   1_554 S
H413   C924    1.110   1_554 S
H417   C475    1.116   .     S
H421   C455    1.080   .     S
H435   C665    1.086   .     S
N437   H526    1.026   .     S
N437   N528    1.302   .     S
O450   C482    1.402   .     S
C451   C484    1.428   .     S
C451   O534    1.286   .     A
C451   O529    1.295   .     A
C452   O539    1.295   .     A
C452   C454    1.469   .     S
C452   O537    1.305   .     A
C453   C457    1.411   .     A
C453   C459    1.398   .     A
C453   C486    1.473   .     S
C454   C458    1.404   .     A
C454   C460    1.401   .     A
C455   C457    1.403   .     A
C455   C464    1.412   .     A
C456   C465    1.405   .     A
C456   C458    1.394   .     A
C456   H341    1.082   1_655 S
C457   O532    1.395   .     S
C458   O351    1.383   1_655 S
C459   C461    1.406   .     A
C459   H500    1.080   .     S
C460   H489    1.072   .     S
C460   C463    1.402   .     A
C461   C464    1.413   .     A
C461   C466    1.415   .     A
C462   O535    1.288   .     A
C462   O533    1.294   .     A
C462   C485    1.428   .     S
C463   C465    1.420   .     A
C463   C467    1.431   .     A
C464   C1292   1.407   .     S
C465   C1293   1.401   1_554 S
C466   C481    1.404   .     A
C466   C1277   1.411   .     S
C467   C473    1.416   .     A
C467   C1276   1.411   1_554 S
C468   C469    1.530   .     S
C468   O540    1.416   .     S
C468   H491    1.109   .     S
C468   H312    1.112   1_655 S
C469   C470    1.529   .     S
C469   H493    1.110   .     S
C469   H494    1.110   .     S
C470   H495    1.103   .     S
C470   H497    1.111   .     S
C471   O530    1.411   .     S
C471   C742    1.532   .     S
C471   H1218   1.110   .     S
C471   H679    1.114   .     S
C472   H502    1.106   .     S
C472   H501    1.109   .     S
C473   H522    1.070   .     S
C473   C482    1.418   .     A
C474   H505    1.109   .     S
C474   C742    1.528   .     S
C474   H1583   1.110   .     S
C474   H774    1.111   .     S
C475   H506    1.111   .     S
C475   O531    1.414   .     S
C475   C476    1.531   .     S
C476   H509    1.105   .     S
C476   H508    1.107   .     S
C476   C747    1.524   .     S
C477   H510    1.111   .     S
C477   H512    1.107   .     S
C477   H513    1.109   .     S
C478   O532    1.431   .     S
C478   H514    1.106   .     S
C478   H515    1.113   .     S
C479   H517    1.109   .     S
C479   H516    1.111   .     S
C479   C298    1.539   1_655 S
C479   C300    1.525   1_655 S
C480   H520    1.107   .     S
C480   H788    1.111   .     S
C480   H699    1.111   .     S
C481   H523    1.063   .     S
C481   C483    1.390   .     A
C482   C1274   1.407   1_554 S
C483   C1275   1.401   .     S
C483   O350    1.385   1_655 S
C484   C755    1.326   .     S
C484   H794    1.088   .     S
C486   O538    1.301   .     A
C486   O536    1.302   .     A
Cu487  O529    1.958   .     S
Cu487  O535    1.952   .     S
Cu487  O536    1.953   .     S
Cu487  Cu488   2.695   .     S
Cu487  N528    2.025   .     S
Cu487  O539    1.942   .     S
Cu488  O533    1.958   .     S
Cu488  O538    1.942   .     S
Cu488  O534    1.952   .     S
Cu488  N527    2.025   .     S
Cu488  O537    1.953   .     S
H490   N348    1.029   1_655 S
H496   C740    1.104   .     S
H498   C1101   1.110   1_654 S
H499   C21     1.114   1_655 S
H503   C1014   1.110   1_554 S
H507   C295    1.116   1_655 S
H511   C275    1.080   1_655 S
H519   C30     1.111   1_655 S
H525   C755    1.086   .     S
N527   H346    1.026   1_655 S
N527   N348    1.302   1_655 S
O540   C302    1.402   1_655 S
C541   C574    1.428   .     S
C541   O624    1.286   .     A
C541   O619    1.295   .     A
C542   O629    1.295   .     A
C542   C544    1.469   .     S
C542   O627    1.305   .     A
C543   C547    1.411   .     A
C543   C549    1.398   .     A
C543   C576    1.473   .     S
C544   C548    1.404   .     A
C544   C550    1.401   .     A
C545   C547    1.403   .     A
C545   C554    1.412   .     A
C545   H781    1.080   1_455 S
C546   C555    1.405   .     A
C546   C548    1.394   .     A
C546   H701    1.082   .     S
C547   O622    1.395   .     S
C548   O711    1.383   .     S
C549   C551    1.406   .     A
C549   H590    1.080   .     S
C550   H579    1.072   .     S
C550   C553    1.402   .     A
C551   C554    1.413   .     A
C551   C556    1.415   .     A
C552   O625    1.288   .     A
C552   O623    1.294   .     A
C552   C575    1.428   .     S
C553   C555    1.420   .     A
C553   C557    1.431   .     A
C554   C1382   1.407   .     S
C555   C1383   1.401   1_554 S
C556   C571    1.404   .     A
C556   C1367   1.411   .     S
C557   C563    1.416   .     A
C557   C1366   1.411   1_554 S
C558   C559    1.530   .     S
C558   O630    1.416   .     S
C558   H581    1.109   .     S
C558   H672    1.112   .     S
C559   C560    1.529   .     S
C559   H583    1.110   .     S
C559   H584    1.110   .     S
C560   H585    1.103   .     S
C560   H587    1.111   .     S
C561   O620    1.411   .     S
C561   C22     1.532   1_565 S
C561   H1578   1.110   1_455 S
C561   H229    1.114   1_465 S
C562   H592    1.106   .     S
C562   H591    1.109   .     S
C563   H612    1.070   .     S
C563   C572    1.418   .     A
C564   H595    1.109   .     S
C564   C22     1.528   1_565 S
C564   H863    1.110   1_565 S
C564   H54     1.111   1_565 S
C565   H596    1.111   .     S
C565   O621    1.414   .     S
C565   C566    1.531   .     S
C565   H777    1.116   1_455 S
C566   H599    1.105   .     S
C566   H598    1.107   .     S
C566   C27     1.524   1_565 S
C567   H600    1.111   .     S
C567   H602    1.107   .     S
C567   H603    1.109   .     S
C568   O622    1.431   .     S
C568   H604    1.106   .     S
C568   H605    1.113   .     S
C568   C749    1.539   1_455 S
C569   H607    1.109   .     S
C569   H606    1.111   .     S
C569   C658    1.539   .     S
C569   C660    1.525   .     S
C570   H610    1.107   .     S
C570   C749    1.525   1_455 S
C570   H68     1.111   1_565 S
C570   H249    1.111   1_465 S
C571   H613    1.063   .     S
C571   C573    1.390   .     A
C572   C1364   1.407   1_554 S
C572   O810    1.402   1_455 S
C573   C1365   1.401   .     S
C573   O710    1.385   .     S
C574   C35     1.326   1_565 S
C574   H74     1.088   1_565 S
C576   O628    1.301   .     A
C576   O626    1.302   .     A
Cu577  O619    1.958   .     S
Cu577  O625    1.952   .     S
Cu577  O626    1.953   .     S
Cu577  Cu578   2.695   .     S
Cu577  N618    2.025   .     S
Cu577  O629    1.942   .     S
Cu578  O623    1.958   .     S
Cu578  O628    1.942   .     S
Cu578  O624    1.952   .     S
Cu578  N617    2.025   .     S
Cu578  O627    1.953   .     S
H580   N708    1.029   .     S
H582   C738    1.112   1_455 S
H586   C20     1.104   1_565 S
H588   C1461   1.110   1_554 S
H593   C1104   1.110   1_554 S
H597   C655    1.116   .     S
H601   C635    1.080   .     S
H611   C726    1.082   1_455 S
H615   C35     1.086   1_565 S
H616   N797    1.026   1_455 S
N617   H706    1.026   .     S
N617   N708    1.302   .     S
N618   H760    1.029   1_455 S
N618   N797    1.302   1_455 S
O620   C753    1.385   1_455 S
O621   C728    1.383   1_455 S
O630   C662    1.402   .     S
C631   C664    1.428   .     S
C631   O714    1.286   .     A
C631   O709    1.295   .     A
C632   O719    1.295   .     A
C632   C634    1.469   .     S
C632   O717    1.305   .     A
C633   C637    1.411   .     A
C633   C639    1.398   .     A
C633   C666    1.473   .     S
C634   C638    1.404   .     A
C634   C640    1.401   .     A
C635   C637    1.403   .     A
C635   C644    1.412   .     A
C636   C645    1.405   .     A
C636   C638    1.394   .     A
C636   H791    1.082   .     S
C637   O712    1.395   .     S
C638   O801    1.383   .     S
C639   C641    1.406   .     A
C639   H680    1.080   .     S
C640   H669    1.072   .     S
C640   C643    1.402   .     A
C641   C644    1.413   .     A
C641   C646    1.415   .     A
C642   O715    1.288   .     A
C642   O713    1.294   .     A
C642   C665    1.428   .     S
C643   C645    1.420   .     A
C643   C647    1.431   .     A
C644   C1472   1.407   .     S
C645   C1473   1.401   1_554 S
C646   C661    1.404   .     A
C646   C1457   1.411   .     S
C647   C653    1.416   .     A
C647   C1456   1.411   1_554 S
C648   C649    1.530   .     S
C648   O720    1.416   .     S
C648   H671    1.109   .     S
C648   H762    1.112   .     S
C649   C650    1.529   .     S
C649   H673    1.110   .     S
C649   H674    1.110   .     S
C650   H675    1.103   .     S
C650   H677    1.111   .     S
C651   O710    1.411   .     S
C651   C112    1.532   1_565 S
C651   H1398   1.110   .     S
C651   H49     1.114   1_565 S
C652   H682    1.106   .     S
C652   H681    1.109   .     S
C653   H702    1.070   .     S
C653   C662    1.418   .     A
C654   H685    1.109   .     S
C654   C112    1.528   1_565 S
C654   H953    1.110   1_565 S
C654   H144    1.111   1_565 S
C655   H686    1.111   .     S
C655   O711    1.414   .     S
C655   C656    1.531   .     S
C656   H689    1.105   .     S
C656   H688    1.107   .     S
C656   C117    1.524   1_565 S
C657   H690    1.111   .     S
C657   H692    1.107   .     S
C657   H693    1.109   .     S
C658   O712    1.431   .     S
C658   H694    1.106   .     S
C658   H695    1.113   .     S
C659   H697    1.109   .     S
C659   H696    1.111   .     S
C659   C748    1.539   .     S
C659   C750    1.525   .     S
C660   H700    1.107   .     S
C660   H158    1.111   1_565 S
C660   H69     1.111   1_565 S
C661   H703    1.063   .     S
C661   C663    1.390   .     A
C662   C1454   1.407   1_554 S
C663   C1455   1.401   .     S
C663   O800    1.385   .     S
C664   C125    1.326   1_565 S
C664   H164    1.088   1_565 S
C666   O718    1.301   .     A
C666   O716    1.302   .     A
Cu667  O709    1.958   .     S
Cu667  O715    1.952   .     S
Cu667  O716    1.953   .     S
Cu667  Cu668   2.695   .     S
Cu667  N708    2.025   .     S
Cu667  O719    1.942   .     S
Cu668  O713    1.958   .     S
Cu668  O718    1.942   .     S
Cu668  O714    1.952   .     S
Cu668  N707    2.025   .     S
Cu668  O717    1.953   .     S
H670   N798    1.029   .     S
H676   C110    1.104   1_565 S
H678   C1551   1.110   1_554 S
H683   C1194   1.110   1_554 S
H687   C745    1.116   .     S
H691   C725    1.080   .     S
H705   C125    1.086   1_565 S
N707   H796    1.026   .     S
N707   N798    1.302   .     S
O720   C752    1.402   .     S
C721   C754    1.428   .     S
C721   O804    1.286   .     A
C721   O799    1.295   .     A
C722   O809    1.295   .     A
C722   C724    1.469   .     S
C722   O807    1.305   .     A
C723   C727    1.411   .     A
C723   C729    1.398   .     A
C723   C756    1.473   .     S
C724   C728    1.404   .     A
C724   C730    1.401   .     A
C725   C727    1.403   .     A
C725   C734    1.412   .     A
C726   C735    1.405   .     A
C726   C728    1.394   .     A
C726   H611    1.082   1_655 S
C727   O802    1.395   .     S
C728   O621    1.383   1_655 S
C729   C731    1.406   .     A
C729   H770    1.080   .     S
C730   H759    1.072   .     S
C730   C733    1.402   .     A
C731   C734    1.413   .     A
C731   C736    1.415   .     A
C732   O805    1.288   .     A
C732   O803    1.294   .     A
C732   C755    1.428   .     S
C733   C735    1.420   .     A
C733   C737    1.431   .     A
C734   C1562   1.407   .     S
C735   C1563   1.401   1_554 S
C736   C751    1.404   .     A
C736   C1547   1.411   .     S
C737   C743    1.416   .     A
C737   C1546   1.411   1_554 S
C738   C739    1.530   .     S
C738   O810    1.416   .     S
C738   H761    1.109   .     S
C738   H582    1.112   1_655 S
C739   C740    1.529   .     S
C739   H763    1.110   .     S
C739   H764    1.110   .     S
C740   H765    1.103   .     S
C740   H767    1.111   .     S
C741   O800    1.411   .     S
C741   C202    1.532   1_565 S
C741   H1488   1.110   .     S
C741   H139    1.114   1_565 S
C742   H772    1.106   .     S
C742   H771    1.109   .     S
C743   H792    1.070   .     S
C743   C752    1.418   .     A
C744   H775    1.109   .     S
C744   C202    1.528   1_565 S
C744   H1043   1.110   1_565 S
C744   H234    1.111   1_565 S
C745   H776    1.111   .     S
C745   O801    1.414   .     S
C745   C746    1.531   .     S
C746   H779    1.105   .     S
C746   H778    1.107   .     S
C746   C207    1.524   1_565 S
C747   H780    1.111   .     S
C747   H782    1.107   .     S
C747   H783    1.109   .     S
C748   O802    1.431   .     S
C748   H784    1.106   .     S
C748   H785    1.113   .     S
C749   H787    1.109   .     S
C749   H786    1.111   .     S
C749   C568    1.539   1_655 S
C749   C570    1.525   1_655 S
C750   H790    1.107   .     S
C750   H248    1.111   1_565 S
C750   H159    1.111   1_565 S
C751   H793    1.063   .     S
C751   C753    1.390   .     A
C752   C1544   1.407   1_554 S
C753   C1545   1.401   .     S
C753   O620    1.385   1_655 S
C754   C215    1.326   1_565 S
C754   H254    1.088   1_565 S
C756   O808    1.301   .     A
C756   O806    1.302   .     A
Cu757  O799    1.958   .     S
Cu757  O805    1.952   .     S
Cu757  O806    1.953   .     S
Cu757  Cu758   2.695   .     S
Cu757  N798    2.025   .     S
Cu757  O809    1.942   .     S
Cu758  O803    1.958   .     S
Cu758  O808    1.942   .     S
Cu758  O804    1.952   .     S
Cu758  N797    2.025   .     S
Cu758  O807    1.953   .     S
H760   N618    1.029   1_655 S
H766   C200    1.104   1_565 S
H768   C1371   1.110   1_654 S
H769   C291    1.114   1_655 S
H773   C1284   1.110   1_554 S
H777   C565    1.116   1_655 S
H781   C545    1.080   1_655 S
H789   C300    1.111   1_655 S
H795   C215    1.086   1_565 S
N797   H616    1.026   1_655 S
N797   N618    1.302   1_655 S
O810   C572    1.402   1_655 S
C811   C844    1.428   .     S
C811   O894    1.286   .     A
C811   O889    1.295   .     A
C812   O899    1.295   .     A
C812   C814    1.469   .     S
C812   O897    1.305   .     A
C813   C817    1.411   .     A
C813   C819    1.398   .     A
C813   C846    1.473   .     S
C814   C818    1.404   .     A
C814   C820    1.401   .     A
C815   C817    1.403   .     A
C815   C824    1.412   .     A
C815   H1051   1.080   1_455 S
C816   C825    1.405   .     A
C816   C818    1.394   .     A
C816   H971    1.082   .     S
C817   O892    1.395   .     S
C818   O981    1.383   .     S
C819   C821    1.406   .     A
C819   H860    1.080   .     S
C820   H849    1.072   .     S
C820   C823    1.402   .     A
C821   C824    1.413   .     A
C821   C826    1.415   .     A
C822   O895    1.288   .     A
C822   O893    1.294   .     A
C822   C845    1.428   .     S
C823   C825    1.420   .     A
C823   C827    1.431   .     A
C824   C32     1.407   1_556 S
C826   C841    1.404   .     A
C826   C17     1.411   1_556 S
C827   C833    1.416   .     A
C828   C829    1.530   .     S
C828   O900    1.416   .     S
C828   H851    1.109   .     S
C828   H942    1.112   .     S
C829   C830    1.529   .     S
C829   H853    1.110   .     S
C829   H854    1.110   .     S
C830   H855    1.103   .     S
C830   H857    1.111   .     S
C830   H1396   1.104   1_545 S
C831   O890    1.411   .     S
C831   C1102   1.532   .     S
C831   H228    1.110   1_456 S
C831   H1309   1.114   1_455 S
C832   H862    1.106   .     S
C832   H861    1.109   .     S
C832   C1371   1.532   1_545 S
C832   C1374   1.528   1_545 S
C833   H882    1.070   .     S
C833   C842    1.418   .     A
C834   H865    1.109   .     S
C834   C1102   1.528   .     S
C834   H323    1.110   1_556 S
C834   H1134   1.111   .     S
C835   H866    1.111   .     S
C835   O891    1.414   .     S
C835   C836    1.531   .     S
C835   H1047   1.116   1_455 S
C836   H869    1.105   .     S
C836   H868    1.107   .     S
C836   C1107   1.524   .     S
C837   H870    1.111   .     S
C837   H872    1.107   .     S
C837   H873    1.109   .     S
C837   C1376   1.524   1_545 S
C838   O892    1.431   .     S
C838   H874    1.106   .     S
C838   H875    1.113   .     S
C838   C1019   1.539   1_455 S
C839   H877    1.109   .     S
C839   H876    1.111   .     S
C839   C928    1.539   .     S
C839   C930    1.525   .     S
C840   H880    1.107   .     S
C840   C1019   1.525   1_455 S
C840   H1148   1.111   .     S
C840   H1329   1.111   1_455 S
C841   H883    1.063   .     S
C841   C843    1.390   .     A
C842   O1080   1.402   1_455 S
C843   C15     1.401   1_556 S
C843   O980    1.385   .     S
C844   C1115   1.326   .     S
C844   H1154   1.088   .     S
C845   C1384   1.326   1_545 S
C845   H1425   1.086   1_545 S
C846   O898    1.301   .     A
C846   O896    1.302   .     A
Cu847  O889    1.958   .     S
Cu847  O895    1.952   .     S
Cu847  O896    1.953   .     S
Cu847  Cu848   2.695   .     S
Cu847  N888    2.025   .     S
Cu847  O899    1.942   .     S
Cu848  O893    1.958   .     S
Cu848  O898    1.942   .     S
Cu848  O894    1.952   .     S
Cu848  N887    2.025   .     S
Cu848  O897    1.953   .     S
H850   N978    1.029   .     S
H852   C1008   1.112   1_455 S
H856   C1100   1.104   .     S
H859   C1461   1.114   1_545 S
H863   C564    1.110   1_545 S
H864   C1374   1.111   1_545 S
H867   C925    1.116   .     S
H871   C905    1.080   .     S
H878   C1380   1.111   1_545 S
H879   C1470   1.111   1_545 S
H881   C996    1.082   1_455 S
H884   C1384   1.088   1_545 S
H885   C1115   1.086   .     S
H886   N1067   1.026   1_455 S
N887   H976    1.026   .     S
N887   N978    1.302   .     S
N888   H1030   1.029   1_455 S
N888   N1067   1.302   1_455 S
O890   C1023   1.385   1_455 S
O891   C998    1.383   1_455 S
O900   C932    1.402   .     S
C901   C934    1.428   .     S
C901   O984    1.286   .     A
C901   O979    1.295   .     A
C902   O989    1.295   .     A
C902   C904    1.469   .     S
C902   O987    1.305   .     A
C903   C907    1.411   .     A
C903   C909    1.398   .     A
C903   C936    1.473   .     S
C904   C908    1.404   .     A
C904   C910    1.401   .     A
C905   C907    1.403   .     A
C905   C914    1.412   .     A
C906   C915    1.405   .     A
C906   C908    1.394   .     A
C906   H1061   1.082   .     S
C907   O982    1.395   .     S
C908   O1071   1.383   .     S
C909   C911    1.406   .     A
C909   H950    1.080   .     S
C910   H939    1.072   .     S
C910   C913    1.402   .     A
C911   C914    1.413   .     A
C911   C916    1.415   .     A
C912   O985    1.288   .     A
C912   O983    1.294   .     A
C912   C935    1.428   .     S
C913   C915    1.420   .     A
C913   C917    1.431   .     A
C914   C122    1.407   1_556 S
C916   C931    1.404   .     A
C916   C107    1.411   1_556 S
C917   C923    1.416   .     A
C918   C919    1.530   .     S
C918   O990    1.416   .     S
C918   H941    1.109   .     S
C918   H1032   1.112   .     S
C919   C920    1.529   .     S
C919   H943    1.110   .     S
C919   H944    1.110   .     S
C920   H945    1.103   .     S
C920   H947    1.111   .     S
C920   H1486   1.104   1_545 S
C921   O980    1.411   .     S
C921   C1192   1.532   .     S
C921   H48     1.110   1_556 S
C921   H1129   1.114   .     S
C922   H952    1.106   .     S
C922   H951    1.109   .     S
C922   C1461   1.532   1_545 S
C922   C1464   1.528   1_545 S
C923   H972    1.070   .     S
C923   C932    1.418   .     A
C924   H955    1.109   .     S
C924   C1192   1.528   .     S
C924   H413    1.110   1_556 S
C924   H1224   1.111   .     S
C925   H956    1.111   .     S
C925   O981    1.414   .     S
C925   C926    1.531   .     S
C926   H959    1.105   .     S
C926   H958    1.107   .     S
C926   C1197   1.524   .     S
C927   H960    1.111   .     S
C927   H962    1.107   .     S
C927   H963    1.109   .     S
C927   C1466   1.524   1_545 S
C928   O982    1.431   .     S
C928   H964    1.106   .     S
C928   H965    1.113   .     S
C929   H967    1.109   .     S
C929   H966    1.111   .     S
C929   C1018   1.539   .     S
C929   C1020   1.525   .     S
C930   H970    1.107   .     S
C930   H1238   1.111   .     S
C930   H1149   1.111   .     S
C931   H973    1.063   .     S
C931   C933    1.390   .     A
C933   C105    1.401   1_556 S
C933   O1070   1.385   .     S
C934   C1205   1.326   .     S
C934   H1244   1.088   .     S
C935   C1474   1.326   1_545 S
C935   H1515   1.086   1_545 S
C936   O988    1.301   .     A
C936   O986    1.302   .     A
Cu937  O979    1.958   .     S
Cu937  O985    1.952   .     S
Cu937  O986    1.953   .     S
Cu937  Cu938   2.695   .     S
Cu937  N978    2.025   .     S
Cu937  O989    1.942   .     S
Cu938  O983    1.958   .     S
Cu938  O988    1.942   .     S
Cu938  O984    1.952   .     S
Cu938  N977    2.025   .     S
Cu938  O987    1.953   .     S
H940   N1068   1.029   .     S
H946   C1190   1.104   .     S
H949   C1551   1.114   1_545 S
H953   C654    1.110   1_545 S
H954   C1464   1.111   1_545 S
H957   C1015   1.116   .     S
H961   C995    1.080   .     S
H968   C1470   1.111   1_545 S
H969   C1560   1.111   1_545 S
H974   C1474   1.088   1_545 S
H975   C1205   1.086   .     S
N977   H1066   1.026   .     S
N977   N1068   1.302   .     S
O990   C1022   1.402   .     S
C991   C1024   1.428   .     S
C991   O1074   1.286   .     A
C991   O1069   1.295   .     A
C992   O1079   1.295   .     A
C992   C994    1.469   .     S
C992   O1077   1.305   .     A
C993   C997    1.411   .     A
C993   C999    1.398   .     A
C993   C1026   1.473   .     S
C994   C998    1.404   .     A
C994   C1000   1.401   .     A
C995   C997    1.403   .     A
C995   C1004   1.412   .     A
C996   C1005   1.405   .     A
C996   C998    1.394   .     A
C996   H881    1.082   1_655 S
C997   O1072   1.395   .     S
C998   O891    1.383   1_655 S
C999   C1001   1.406   .     A
C999   H1040   1.080   .     S
C1000  H1029   1.072   .     S
C1000  C1003   1.402   .     A
C1001  C1004   1.413   .     A
C1001  C1006   1.415   .     A
C1002  O1075   1.288   .     A
C1002  O1073   1.294   .     A
C1002  C1025   1.428   .     S
C1003  C1005   1.420   .     A
C1003  C1007   1.431   .     A
C1004  C212    1.407   1_556 S
C1006  C1021   1.404   .     A
C1006  C197    1.411   1_556 S
C1007  C1013   1.416   .     A
C1008  C1009   1.530   .     S
C1008  O1080   1.416   .     S
C1008  H1031   1.109   .     S
C1008  H852    1.112   1_655 S
C1009  C1010   1.529   .     S
C1009  H1033   1.110   .     S
C1009  H1034   1.110   .     S
C1010  H1035   1.103   .     S
C1010  H1037   1.111   .     S
C1010  H1576   1.104   1_545 S
C1011  O1070   1.411   .     S
C1011  C1282   1.532   .     S
C1011  H138    1.110   1_556 S
C1011  H1219   1.114   .     S
C1012  H1042   1.106   .     S
C1012  H1041   1.109   .     S
C1012  C1551   1.532   1_545 S
C1012  C1554   1.528   1_545 S
C1013  H1062   1.070   .     S
C1013  C1022   1.418   .     A
C1014  H1045   1.109   .     S
C1014  C1282   1.528   .     S
C1014  H503    1.110   1_556 S
C1014  H1314   1.111   .     S
C1015  H1046   1.111   .     S
C1015  O1071   1.414   .     S
C1015  C1016   1.531   .     S
C1016  H1049   1.105   .     S
C1016  H1048   1.107   .     S
C1016  C1287   1.524   .     S
C1017  H1050   1.111   .     S
C1017  H1052   1.107   .     S
C1017  H1053   1.109   .     S
C1017  C1556   1.524   1_545 S
C1018  O1072   1.431   .     S
C1018  H1054   1.106   .     S
C1018  H1055   1.113   .     S
C1019  H1057   1.109   .     S
C1019  H1056   1.111   .     S
C1019  C838    1.539   1_655 S
C1019  C840    1.525   1_655 S
C1020  H1060   1.107   .     S
C1020  H1328   1.111   .     S
C1020  H1239   1.111   .     S
C1021  H1063   1.063   .     S
C1021  C1023   1.390   .     A
C1023  C195    1.401   1_556 S
C1023  O890    1.385   1_655 S
C1024  C1295   1.326   .     S
C1024  H1334   1.088   .     S
C1025  C1564   1.326   1_545 S
C1025  H1605   1.086   1_545 S
C1026  O1078   1.301   .     A
C1026  O1076   1.302   .     A
Cu1027 O1069   1.958   .     S
Cu1027 O1075   1.952   .     S
Cu1027 O1076   1.953   .     S
Cu1027 Cu1028  2.695   .     S
Cu1027 N1068   2.025   .     S
Cu1027 O1079   1.942   .     S
Cu1028 O1073   1.958   .     S
Cu1028 O1078   1.942   .     S
Cu1028 O1074   1.952   .     S
Cu1028 N1067   2.025   .     S
Cu1028 O1077   1.953   .     S
H1030  N888    1.029   1_655 S
H1036  C1280   1.104   .     S
H1038  C21     1.110   1_655 S
H1039  C1371   1.114   1_645 S
H1043  C744    1.110   1_545 S
H1044  C1554   1.111   1_545 S
H1047  C835    1.116   1_655 S
H1051  C815    1.080   1_655 S
H1058  C1560   1.111   1_545 S
H1059  C1380   1.111   1_645 S
H1064  C1564   1.088   1_545 S
H1065  C1295   1.086   .     S
N1067  H886    1.026   1_655 S
N1067  N888    1.302   1_655 S
O1080  C842    1.402   1_655 S
C1081  C1114   1.428   .     S
C1081  O1164   1.286   .     A
C1081  O1159   1.295   .     A
C1082  O1169   1.295   .     A
C1082  C1084   1.469   .     S
C1082  O1167   1.305   .     A
C1083  C1087   1.411   .     A
C1083  C1089   1.398   .     A
C1083  C1116   1.473   .     S
C1084  C1088   1.404   .     A
C1084  C1090   1.401   .     A
C1085  C1087   1.403   .     A
C1085  C1094   1.412   .     A
C1085  H1321   1.080   1_455 S
C1086  C1095   1.405   .     A
C1086  C1088   1.394   .     A
C1086  H1241   1.082   .     S
C1087  O1162   1.395   .     S
C1088  O1251   1.383   .     S
C1089  C1091   1.406   .     A
C1089  H1130   1.080   .     S
C1090  H1119   1.072   .     S
C1090  C1093   1.402   .     A
C1091  C1094   1.413   .     A
C1091  C1096   1.415   .     A
C1092  O1165   1.288   .     A
C1092  O1163   1.294   .     A
C1092  C1115   1.428   .     S
C1093  C1095   1.420   .     A
C1093  C1097   1.431   .     A
C1094  C302    1.407   1_556 S
C1096  C1111   1.404   .     A
C1096  C287    1.411   1_556 S
C1097  C1103   1.416   .     A
C1098  C1099   1.530   .     S
C1098  O1170   1.416   .     S
C1098  H1121   1.109   .     S
C1098  H1212   1.112   .     S
C1099  C1100   1.529   .     S
C1099  H1123   1.110   .     S
C1099  H1124   1.110   .     S
C1100  H1125   1.103   .     S
C1100  H1127   1.111   .     S
C1101  O1160   1.411   .     S
C1101  C1372   1.532   .     S
C1101  H498    1.110   1_456 S
C1101  H1579   1.114   1_455 S
C1102  H1132   1.106   .     S
C1102  H1131   1.109   .     S
C1103  H1152   1.070   .     S
C1103  C1112   1.418   .     A
C1104  H1135   1.109   .     S
C1104  C1372   1.528   .     S
C1104  H593    1.110   1_556 S
C1104  H1404   1.111   .     S
C1105  H1136   1.111   .     S
C1105  O1161   1.414   .     S
C1105  C1106   1.531   .     S
C1105  H1317   1.116   1_455 S
C1106  H1139   1.105   .     S
C1106  H1138   1.107   .     S
C1106  C1377   1.524   .     S
C1107  H1140   1.111   .     S
C1107  H1142   1.107   .     S
C1107  H1143   1.109   .     S
C1108  O1162   1.431   .     S
C1108  H1144   1.106   .     S
C1108  H1145   1.113   .     S
C1108  C1289   1.539   1_455 S
C1109  H1147   1.109   .     S
C1109  H1146   1.111   .     S
C1109  C1198   1.539   .     S
C1109  C1200   1.525   .     S
C1110  H1150   1.107   .     S
C1110  C1289   1.525   1_455 S
C1110  H1418   1.111   .     S
C1110  H1599   1.111   1_455 S
C1111  H1153   1.063   .     S
C1111  C1113   1.390   .     A
C1112  O1350   1.402   1_455 S
C1113  C285    1.401   1_556 S
C1113  O1250   1.385   .     S
C1114  C1385   1.326   .     S
C1114  H1424   1.088   .     S
C1116  O1168   1.301   .     A
C1116  O1166   1.302   .     A
Cu1117 O1159   1.958   .     S
Cu1117 O1165   1.952   .     S
Cu1117 O1166   1.953   .     S
Cu1117 Cu1118  2.695   .     S
Cu1117 N1158   2.025   .     S
Cu1117 O1169   1.942   .     S
Cu1118 O1163   1.958   .     S
Cu1118 O1168   1.942   .     S
Cu1118 O1164   1.952   .     S
Cu1118 N1157   2.025   .     S
Cu1118 O1167   1.953   .     S
H1120  N1248   1.029   .     S
H1122  C1278   1.112   1_455 S
H1126  C1370   1.104   .     S
H1137  C1195   1.116   .     S
H1141  C1175   1.080   .     S
H1151  C1266   1.082   1_455 S
H1155  C1385   1.086   .     S
H1156  N1337   1.026   1_455 S
N1157  H1246   1.026   .     S
N1157  N1248   1.302   .     S
N1158  H1300   1.029   1_455 S
N1158  N1337   1.302   1_455 S
O1160  C1293   1.385   1_455 S
O1161  C1268   1.383   1_455 S
O1170  C1202   1.402   .     S
C1171  C1204   1.428   .     S
C1171  O1254   1.286   .     A
C1171  O1249   1.295   .     A
C1172  O1259   1.295   .     A
C1172  C1174   1.469   .     S
C1172  O1257   1.305   .     A
C1173  C1177   1.411   .     A
C1173  C1179   1.398   .     A
C1173  C1206   1.473   .     S
C1174  C1178   1.404   .     A
C1174  C1180   1.401   .     A
C1175  C1177   1.403   .     A
C1175  C1184   1.412   .     A
C1176  C1185   1.405   .     A
C1176  C1178   1.394   .     A
C1176  H1331   1.082   .     S
C1177  O1252   1.395   .     S
C1178  O1341   1.383   .     S
C1179  C1181   1.406   .     A
C1179  H1220   1.080   .     S
C1180  H1209   1.072   .     S
C1180  C1183   1.402   .     A
C1181  C1184   1.413   .     A
C1181  C1186   1.415   .     A
C1182  O1255   1.288   .     A
C1182  O1253   1.294   .     A
C1182  C1205   1.428   .     S
C1183  C1185   1.420   .     A
C1183  C1187   1.431   .     A
C1184  C392    1.407   1_556 S
C1186  C1201   1.404   .     A
C1186  C377    1.411   1_556 S
C1187  C1193   1.416   .     A
C1188  C1189   1.530   .     S
C1188  O1260   1.416   .     S
C1188  H1211   1.109   .     S
C1188  H1302   1.112   .     S
C1189  C1190   1.529   .     S
C1189  H1213   1.110   .     S
C1189  H1214   1.110   .     S
C1190  H1215   1.103   .     S
C1190  H1217   1.111   .     S
C1191  O1250   1.411   .     S
C1191  C1462   1.532   .     S
C1191  H318    1.110   1_556 S
C1191  H1399   1.114   .     S
C1192  H1222   1.106   .     S
C1192  H1221   1.109   .     S
C1193  H1242   1.070   .     S
C1193  C1202   1.418   .     A
C1194  H1225   1.109   .     S
C1194  C1462   1.528   .     S
C1194  H683    1.110   1_556 S
C1194  H1494   1.111   .     S
C1195  H1226   1.111   .     S
C1195  O1251   1.414   .     S
C1195  C1196   1.531   .     S
C1196  H1229   1.105   .     S
C1196  H1228   1.107   .     S
C1196  C1467   1.524   .     S
C1197  H1230   1.111   .     S
C1197  H1232   1.107   .     S
C1197  H1233   1.109   .     S
C1198  O1252   1.431   .     S
C1198  H1234   1.106   .     S
C1198  H1235   1.113   .     S
C1199  H1237   1.109   .     S
C1199  H1236   1.111   .     S
C1199  C1288   1.539   .     S
C1199  C1290   1.525   .     S
C1200  H1240   1.107   .     S
C1200  H1508   1.111   .     S
C1200  H1419   1.111   .     S
C1201  H1243   1.063   .     S
C1201  C1203   1.390   .     A
C1203  C375    1.401   1_556 S
C1203  O1340   1.385   .     S
C1204  C1475   1.326   .     S
C1204  H1514   1.088   .     S
C1206  O1258   1.301   .     A
C1206  O1256   1.302   .     A
Cu1207 O1249   1.958   .     S
Cu1207 O1255   1.952   .     S
Cu1207 O1256   1.953   .     S
Cu1207 Cu1208  2.695   .     S
Cu1207 N1248   2.025   .     S
Cu1207 O1259   1.942   .     S
Cu1208 O1253   1.958   .     S
Cu1208 O1258   1.942   .     S
Cu1208 O1254   1.952   .     S
Cu1208 N1247   2.025   .     S
Cu1208 O1257   1.953   .     S
H1210  N1338   1.029   .     S
H1216  C1460   1.104   .     S
H1227  C1285   1.116   .     S
H1231  C1265   1.080   .     S
H1245  C1475   1.086   .     S
N1247  H1336   1.026   .     S
N1247  N1338   1.302   .     S
O1260  C1292   1.402   .     S
C1261  C1294   1.428   .     S
C1261  O1344   1.286   .     A
C1261  O1339   1.295   .     A
C1262  O1349   1.295   .     A
C1262  C1264   1.469   .     S
C1262  O1347   1.305   .     A
C1263  C1267   1.411   .     A
C1263  C1269   1.398   .     A
C1263  C1296   1.473   .     S
C1264  C1268   1.404   .     A
C1264  C1270   1.401   .     A
C1265  C1267   1.403   .     A
C1265  C1274   1.412   .     A
C1266  C1275   1.405   .     A
C1266  C1268   1.394   .     A
C1266  H1151   1.082   1_655 S
C1267  O1342   1.395   .     S
C1268  O1161   1.383   1_655 S
C1269  C1271   1.406   .     A
C1269  H1310   1.080   .     S
C1270  H1299   1.072   .     S
C1270  C1273   1.402   .     A
C1271  C1274   1.413   .     A
C1271  C1276   1.415   .     A
C1272  O1345   1.288   .     A
C1272  O1343   1.294   .     A
C1272  C1295   1.428   .     S
C1273  C1275   1.420   .     A
C1273  C1277   1.431   .     A
C1274  C482    1.407   1_556 S
C1276  C1291   1.404   .     A
C1276  C467    1.411   1_556 S
C1277  C1283   1.416   .     A
C1278  C1279   1.530   .     S
C1278  O1350   1.416   .     S
C1278  H1301   1.109   .     S
C1278  H1122   1.112   1_655 S
C1279  C1280   1.529   .     S
C1279  H1303   1.110   .     S
C1279  H1304   1.110   .     S
C1280  H1305   1.103   .     S
C1280  H1307   1.111   .     S
C1281  O1340   1.411   .     S
C1281  C1552   1.532   .     S
C1281  H408    1.110   1_556 S
C1281  H1489   1.114   .     S
C1282  H1312   1.106   .     S
C1282  H1311   1.109   .     S
C1283  H1332   1.070   .     S
C1283  C1292   1.418   .     A
C1284  H1315   1.109   .     S
C1284  C1552   1.528   .     S
C1284  H773    1.110   1_556 S
C1284  H1584   1.111   .     S
C1285  H1316   1.111   .     S
C1285  O1341   1.414   .     S
C1285  C1286   1.531   .     S
C1286  H1319   1.105   .     S
C1286  H1318   1.107   .     S
C1286  C1557   1.524   .     S
C1287  H1320   1.111   .     S
C1287  H1322   1.107   .     S
C1287  H1323   1.109   .     S
C1288  O1342   1.431   .     S
C1288  H1324   1.106   .     S
C1288  H1325   1.113   .     S
C1289  H1327   1.109   .     S
C1289  H1326   1.111   .     S
C1289  C1108   1.539   1_655 S
C1289  C1110   1.525   1_655 S
C1290  H1330   1.107   .     S
C1290  H1598   1.111   .     S
C1290  H1509   1.111   .     S
C1291  H1333   1.063   .     S
C1291  C1293   1.390   .     A
C1293  C465    1.401   1_556 S
C1293  O1160   1.385   1_655 S
C1294  C1565   1.326   .     S
C1294  H1604   1.088   .     S
C1296  O1348   1.301   .     A
C1296  O1346   1.302   .     A
Cu1297 O1339   1.958   .     S
Cu1297 O1345   1.952   .     S
Cu1297 O1346   1.953   .     S
Cu1297 Cu1298  2.695   .     S
Cu1297 N1338   2.025   .     S
Cu1297 O1349   1.942   .     S
Cu1298 O1343   1.958   .     S
Cu1298 O1348   1.942   .     S
Cu1298 O1344   1.952   .     S
Cu1298 N1337   2.025   .     S
Cu1298 O1347   1.953   .     S
H1300  N1158   1.029   1_655 S
H1306  C1550   1.104   .     S
H1308  C291    1.110   1_655 S
H1309  C831    1.114   1_655 S
H1317  C1105   1.116   1_655 S
H1321  C1085   1.080   1_655 S
H1329  C840    1.111   1_655 S
H1335  C1565   1.086   .     S
N1337  H1156   1.026   1_655 S
N1337  N1158   1.302   1_655 S
O1350  C1112   1.402   1_655 S
C1351  C1384   1.428   .     S
C1351  O1434   1.286   .     A
C1351  O1429   1.295   .     A
C1352  O1439   1.295   .     A
C1352  C1354   1.469   .     S
C1352  O1437   1.305   .     A
C1353  C1357   1.411   .     A
C1353  C1359   1.398   .     A
C1353  C1386   1.473   .     S
C1354  C1358   1.404   .     A
C1354  C1360   1.401   .     A
C1355  C1357   1.403   .     A
C1355  C1364   1.412   .     A
C1355  H1591   1.080   1_455 S
C1356  C1365   1.405   .     A
C1356  C1358   1.394   .     A
C1356  H1511   1.082   .     S
C1357  O1432   1.395   .     S
C1358  O1521   1.383   .     S
C1359  C1361   1.406   .     A
C1359  H1400   1.080   .     S
C1360  H1389   1.072   .     S
C1360  C1363   1.402   .     A
C1361  C1364   1.413   .     A
C1361  C1366   1.415   .     A
C1362  O1435   1.288   .     A
C1362  O1433   1.294   .     A
C1362  C1385   1.428   .     S
C1363  C1365   1.420   .     A
C1363  C1367   1.431   .     A
C1364  C572    1.407   1_556 S
C1366  C1381   1.404   .     A
C1366  C557    1.411   1_556 S
C1367  C1373   1.416   .     A
C1368  C1369   1.530   .     S
C1368  O1440   1.416   .     S
C1368  H1391   1.109   .     S
C1368  H1482   1.112   .     S
C1369  C1370   1.529   .     S
C1369  H1393   1.110   .     S
C1369  H1394   1.110   .     S
C1370  H1395   1.103   .     S
C1370  H1397   1.111   .     S
C1371  O1430   1.411   .     S
C1371  C832    1.532   1_565 S
C1371  H768    1.110   1_456 S
C1371  H1039   1.114   1_465 S
C1372  H1402   1.106   .     S
C1372  H1401   1.109   .     S
C1373  H1422   1.070   .     S
C1373  C1382   1.418   .     A
C1374  H1405   1.109   .     S
C1374  C832    1.528   1_565 S
C1374  H53     1.110   1_566 S
C1374  H864    1.111   1_565 S
C1375  H1406   1.111   .     S
C1375  O1431   1.414   .     S
C1375  C1376   1.531   .     S
C1375  H1587   1.116   1_455 S
C1376  H1409   1.105   .     S
C1376  H1408   1.107   .     S
C1376  C837    1.524   1_565 S
C1377  H1410   1.111   .     S
C1377  H1412   1.107   .     S
C1377  H1413   1.109   .     S
C1378  O1432   1.431   .     S
C1378  H1414   1.106   .     S
C1378  H1415   1.113   .     S
C1378  C1559   1.539   1_455 S
C1379  H1417   1.109   .     S
C1379  H1416   1.111   .     S
C1379  C1468   1.539   .     S
C1379  C1470   1.525   .     S
C1380  H1420   1.107   .     S
C1380  C1559   1.525   1_455 S
C1380  H878    1.111   1_565 S
C1380  H1059   1.111   1_465 S
C1381  H1423   1.063   .     S
C1381  C1383   1.390   .     A
C1382  O1620   1.402   1_455 S
C1383  C555    1.401   1_556 S
C1383  O1520   1.385   .     S
C1384  C845    1.326   1_565 S
C1384  H884    1.088   1_565 S
C1386  O1438   1.301   .     A
C1386  O1436   1.302   .     A
Cu1387 O1429   1.958   .     S
Cu1387 O1435   1.952   .     S
Cu1387 O1436   1.953   .     S
Cu1387 Cu1388  2.695   .     S
Cu1387 N1428   2.025   .     S
Cu1387 O1439   1.942   .     S
Cu1388 O1433   1.958   .     S
Cu1388 O1438   1.942   .     S
Cu1388 O1434   1.952   .     S
Cu1388 N1427   2.025   .     S
Cu1388 O1437   1.953   .     S
H1390  N1518   1.029   .     S
H1392  C1548   1.112   1_455 S
H1396  C830    1.104   1_565 S
H1407  C1465   1.116   .     S
H1411  C1445   1.080   .     S
H1421  C1536   1.082   1_455 S
H1425  C845    1.086   1_565 S
H1426  N1607   1.026   1_455 S
N1427  H1516   1.026   .     S
N1427  N1518   1.302   .     S
N1428  H1570   1.029   1_455 S
N1428  N1607   1.302   1_455 S
O1430  C1563   1.385   1_455 S
O1431  C1538   1.383   1_455 S
O1440  C1472   1.402   .     S
C1441  C1474   1.428   .     S
C1441  O1524   1.286   .     A
C1441  O1519   1.295   .     A
C1442  O1529   1.295   .     A
C1442  C1444   1.469   .     S
C1442  O1527   1.305   .     A
C1443  C1447   1.411   .     A
C1443  C1449   1.398   .     A
C1443  C1476   1.473   .     S
C1444  C1448   1.404   .     A
C1444  C1450   1.401   .     A
C1445  C1447   1.403   .     A
C1445  C1454   1.412   .     A
C1446  C1455   1.405   .     A
C1446  C1448   1.394   .     A
C1446  H1601   1.082   .     S
C1447  O1522   1.395   .     S
C1448  O1611   1.383   .     S
C1449  C1451   1.406   .     A
C1449  H1490   1.080   .     S
C1450  H1479   1.072   .     S
C1450  C1453   1.402   .     A
C1451  C1454   1.413   .     A
C1451  C1456   1.415   .     A
C1452  O1525   1.288   .     A
C1452  O1523   1.294   .     A
C1452  C1475   1.428   .     S
C1453  C1455   1.420   .     A
C1453  C1457   1.431   .     A
C1454  C662    1.407   1_556 S
C1456  C1471   1.404   .     A
C1456  C647    1.411   1_556 S
C1457  C1463   1.416   .     A
C1458  C1459   1.530   .     S
C1458  O1530   1.416   .     S
C1458  H1481   1.109   .     S
C1458  H1572   1.112   .     S
C1459  C1460   1.529   .     S
C1459  H1483   1.110   .     S
C1459  H1484   1.110   .     S
C1460  H1485   1.103   .     S
C1460  H1487   1.111   .     S
C1461  O1520   1.411   .     S
C1461  C922    1.532   1_565 S
C1461  H588    1.110   1_556 S
C1461  H859    1.114   1_565 S
C1462  H1492   1.106   .     S
C1462  H1491   1.109   .     S
C1463  H1512   1.070   .     S
C1463  C1472   1.418   .     A
C1464  H1495   1.109   .     S
C1464  C922    1.528   1_565 S
C1464  H143    1.110   1_566 S
C1464  H954    1.111   1_565 S
C1465  H1496   1.111   .     S
C1465  O1521   1.414   .     S
C1465  C1466   1.531   .     S
C1466  H1499   1.105   .     S
C1466  H1498   1.107   .     S
C1466  C927    1.524   1_565 S
C1467  H1500   1.111   .     S
C1467  H1502   1.107   .     S
C1467  H1503   1.109   .     S
C1468  O1522   1.431   .     S
C1468  H1504   1.106   .     S
C1468  H1505   1.113   .     S
C1469  H1507   1.109   .     S
C1469  H1506   1.111   .     S
C1469  C1558   1.539   .     S
C1469  C1560   1.525   .     S
C1470  H1510   1.107   .     S
C1470  H968    1.111   1_565 S
C1470  H879    1.111   1_565 S
C1471  H1513   1.063   .     S
C1471  C1473   1.390   .     A
C1473  C645    1.401   1_556 S
C1473  O1610   1.385   .     S
C1474  C935    1.326   1_565 S
C1474  H974    1.088   1_565 S
C1476  O1528   1.301   .     A
C1476  O1526   1.302   .     A
Cu1477 O1519   1.958   .     S
Cu1477 O1525   1.952   .     S
Cu1477 O1526   1.953   .     S
Cu1477 Cu1478  2.695   .     S
Cu1477 N1518   2.025   .     S
Cu1477 O1529   1.942   .     S
Cu1478 O1523   1.958   .     S
Cu1478 O1528   1.942   .     S
Cu1478 O1524   1.952   .     S
Cu1478 N1517   2.025   .     S
Cu1478 O1527   1.953   .     S
H1480  N1608   1.029   .     S
H1486  C920    1.104   1_565 S
H1497  C1555   1.116   .     S
H1501  C1535   1.080   .     S
H1515  C935    1.086   1_565 S
N1517  H1606   1.026   .     S
N1517  N1608   1.302   .     S
O1530  C1562   1.402   .     S
C1531  C1564   1.428   .     S
C1531  O1614   1.286   .     A
C1531  O1609   1.295   .     A
C1532  O1619   1.295   .     A
C1532  C1534   1.469   .     S
C1532  O1617   1.305   .     A
C1533  C1537   1.411   .     A
C1533  C1539   1.398   .     A
C1533  C1566   1.473   .     S
C1534  C1538   1.404   .     A
C1534  C1540   1.401   .     A
C1535  C1537   1.403   .     A
C1535  C1544   1.412   .     A
C1536  C1545   1.405   .     A
C1536  C1538   1.394   .     A
C1536  H1421   1.082   1_655 S
C1537  O1612   1.395   .     S
C1538  O1431   1.383   1_655 S
C1539  C1541   1.406   .     A
C1539  H1580   1.080   .     S
C1540  H1569   1.072   .     S
C1540  C1543   1.402   .     A
C1541  C1544   1.413   .     A
C1541  C1546   1.415   .     A
C1542  O1615   1.288   .     A
C1542  O1613   1.294   .     A
C1542  C1565   1.428   .     S
C1543  C1545   1.420   .     A
C1543  C1547   1.431   .     A
C1544  C752    1.407   1_556 S
C1546  C1561   1.404   .     A
C1546  C737    1.411   1_556 S
C1547  C1553   1.416   .     A
C1548  C1549   1.530   .     S
C1548  O1620   1.416   .     S
C1548  H1571   1.109   .     S
C1548  H1392   1.112   1_655 S
C1549  C1550   1.529   .     S
C1549  H1573   1.110   .     S
C1549  H1574   1.110   .     S
C1550  H1575   1.103   .     S
C1550  H1577   1.111   .     S
C1551  O1610   1.411   .     S
C1551  C1012   1.532   1_565 S
C1551  H678    1.110   1_556 S
C1551  H949    1.114   1_565 S
C1552  H1582   1.106   .     S
C1552  H1581   1.109   .     S
C1553  H1602   1.070   .     S
C1553  C1562   1.418   .     A
C1554  H1585   1.109   .     S
C1554  C1012   1.528   1_565 S
C1554  H233    1.110   1_566 S
C1554  H1044   1.111   1_565 S
C1555  H1586   1.111   .     S
C1555  O1611   1.414   .     S
C1555  C1556   1.531   .     S
C1556  H1589   1.105   .     S
C1556  H1588   1.107   .     S
C1556  C1017   1.524   1_565 S
C1557  H1590   1.111   .     S
C1557  H1592   1.107   .     S
C1557  H1593   1.109   .     S
C1558  O1612   1.431   .     S
C1558  H1594   1.106   .     S
C1558  H1595   1.113   .     S
C1559  H1597   1.109   .     S
C1559  H1596   1.111   .     S
C1559  C1378   1.539   1_655 S
C1559  C1380   1.525   1_655 S
C1560  H1600   1.107   .     S
C1560  H1058   1.111   1_565 S
C1560  H969    1.111   1_565 S
C1561  H1603   1.063   .     S
C1561  C1563   1.390   .     A
C1563  C735    1.401   1_556 S
C1563  O1430   1.385   1_655 S
C1564  C1025   1.326   1_565 S
C1564  H1064   1.088   1_565 S
C1566  O1618   1.301   .     A
C1566  O1616   1.302   .     A
Cu1567 O1609   1.958   .     S
Cu1567 O1615   1.952   .     S
Cu1567 O1616   1.953   .     S
Cu1567 Cu1568  2.695   .     S
Cu1567 N1608   2.025   .     S
Cu1567 O1619   1.942   .     S
Cu1568 O1613   1.958   .     S
Cu1568 O1618   1.942   .     S
Cu1568 O1614   1.952   .     S
Cu1568 N1607   2.025   .     S
Cu1568 O1617   1.953   .     S
H1570  N1428   1.029   1_655 S
H1576  C1010   1.104   1_565 S
H1578  C561    1.110   1_655 S
H1579  C1101   1.114   1_655 S
H1587  C1375   1.116   1_655 S
H1591  C1355   1.080   1_655 S
H1599  C1110   1.111   1_655 S
H1605  C1025   1.086   1_565 S
N1607  H1426   1.026   1_655 S
N1607  N1428   1.302   1_655 S
O1620  C1382   1.402   1_655 S
