data_str_m2_o1_o2_pcu_sym.85
_audit_creation_date              2020-01-03
_audit_creation_method            'Materials Studio'
_symmetry_space_group_name_H-M    'P1'
_symmetry_Int_Tables_number       1
_symmetry_cell_setting            triclinic
loop_
_symmetry_equiv_pos_as_xyz
  x,y,z
_cell_length_a                    32.6787
_cell_length_b                    28.8277
_cell_length_c                    30.2968
_cell_angle_alpha                 90.2567
_cell_angle_beta                  92.8937
_cell_angle_gamma                 89.4308
loop_
_atom_site_label
_atom_site_type_symbol
_atom_site_fract_x
_atom_site_fract_y
_atom_site_fract_z
_atom_site_U_iso_or_equiv
_atom_site_adp_type
_atom_site_occupancy
C1     C     0.08760   0.16691   0.25298   0.00000  Uiso   1.00
C2     C     0.31175   0.20816   0.24127   0.00000  Uiso   1.00
C3     C     0.31296   0.12393   0.25000   0.00000  Uiso   1.00
C4     C     0.02030   0.20929   0.25084   0.00000  Uiso   1.00
C5     C     0.18463   0.20713   0.04650   0.00000  Uiso   1.00
C6     C     0.13836   0.15683   0.45259   0.00000  Uiso   1.00
C7     C     0.21021   0.17658   0.45162   0.00000  Uiso   1.00
C8     C     0.17477   0.12468   0.04511   0.00000  Uiso   1.00
C9     C     0.18467   0.20782   0.09267   0.00000  Uiso   1.00
C10    C     0.13493   0.15722   0.40649   0.00000  Uiso   1.00
C11    C     0.20815   0.17607   0.40543   0.00000  Uiso   1.00
C12    C     0.24574   0.16640   0.24713   0.00000  Uiso   1.00
C13    C     0.17568   0.12314   0.09128   0.00000  Uiso   1.00
C14    C     0.17685   0.16583   0.11615   0.00000  Uiso   1.00
C15    C     0.17003   0.16699   0.38275   0.00000  Uiso   1.00
C16    C     0.17828   0.16629   0.02305   0.00000  Uiso   1.00
C17    C     0.17561   0.16680   0.47492   0.00000  Uiso   1.00
C18    C     0.29049   0.16587   0.24415   0.00000  Uiso   1.00
C19    C     0.04284   0.16732   0.25626   0.00000  Uiso   1.00
C20    C     0.19347   0.25464   0.11388   0.00000  Uiso   1.00
C21    C     0.15455   0.28438   0.11325   0.00000  Uiso   1.00
C22    C     0.09349   0.14789   0.38373   0.00000  Uiso   1.00
C23    C     0.16994   0.16647   0.16487   0.00000  Uiso   1.00
C24    C     0.07152   0.19311   0.37072   0.00000  Uiso   1.00
C25    C     0.24729   0.18433   0.38180   0.00000  Uiso   1.00
C26    C     0.27626   0.14256   0.38618   0.00000  Uiso   1.00
C27    C     0.17737   0.07486   0.11122   0.00000  Uiso   1.00
C28    C     0.21959   0.06410   0.13312   0.00000  Uiso   1.00
C29    C     0.16715   0.16675   0.33468   0.00000  Uiso   1.00
C30    C     0.13577   0.02469   0.22829   0.00000  Uiso   1.00
C31    C     0.19752   0.30862   0.27175   0.00000  Uiso   1.00
C32    C     0.19745   0.02421   0.27190   0.00000  Uiso   1.00
C33    C     0.13572   0.30915   0.22843   0.00000  Uiso   1.00
C34    C     0.02158   0.12496   0.25895   0.00000  Uiso   1.00
Cu35   Cu    0.16667   0.21355   0.25000   0.00000  Uiso   1.00
Cu36   Cu    0.16667   0.11978   0.25000   0.00000  Uiso   1.00
H37    H     0.18887   0.23902   0.02846   0.00000  Uiso   1.00
H38    H     0.12785   0.26356   0.12210   0.00000  Uiso   1.00
H39    H     0.15854   0.31352   0.13699   0.00000  Uiso   1.00
H40    H     0.20836   0.25201   0.14738   0.00000  Uiso   1.00
H41    H     0.21664   0.27317   0.09506   0.00000  Uiso   1.00
H42    H     0.06645   0.21448   0.40058   0.00000  Uiso   1.00
H43    H     0.08978   0.21322   0.34772   0.00000  Uiso   1.00
H44    H     0.04132   0.18532   0.35406   0.00000  Uiso   1.00
H45    H     0.09690   0.12575   0.35413   0.00000  Uiso   1.00
H46    H     0.07382   0.12837   0.40593   0.00000  Uiso   1.00
H47    H     0.28597   0.13655   0.42136   0.00000  Uiso   1.00
H48    H     0.11177   0.14951   0.47133   0.00000  Uiso   1.00
H49    H     0.26092   0.11102   0.37251   0.00000  Uiso   1.00
H50    H     0.30395   0.14895   0.36740   0.00000  Uiso   1.00
H51    H     0.24138   0.19113   0.34613   0.00000  Uiso   1.00
H52    H     0.26284   0.21555   0.39596   0.00000  Uiso   1.00
H53    H     0.22964   0.09172   0.15667   0.00000  Uiso   1.00
H54    H     0.21873   0.03078   0.15125   0.00000  Uiso   1.00
H55    H     0.24259   0.06098   0.10747   0.00000  Uiso   1.00
H56    H     0.15243   0.06962   0.13380   0.00000  Uiso   1.00
H57    H     0.17170   0.04797   0.08530   0.00000  Uiso   1.00
H58    H     0.06050   0.08933   0.29474   0.00000  Uiso   1.00
H59    H     0.23901   0.18381   0.46955   0.00000  Uiso   1.00
H60    H     0.27299   0.24280   0.20432   0.00000  Uiso   1.00
H61    H     0.27777   0.08003   0.22003   0.00000  Uiso   1.00
H62    H     0.05590   0.25262   0.28121   0.00000  Uiso   1.00
H63    H     0.17214   0.09300   0.02575   0.00000  Uiso   1.00
H64    H     0.11370   0.07525   0.19317   0.00000  Uiso   1.00
H65    H     0.21828   0.25923   0.30873   0.00000  Uiso   1.00
H66    H     0.21874   0.07457   0.30763   0.00000  Uiso   1.00
H67    H     0.11344   0.25825   0.19436   0.00000  Uiso   1.00
H68    H     0.14792   0.29863   0.07962   0.00000  Uiso   1.00
N69    N     0.16667   0.28402   0.25000   0.00000  Uiso   1.00
N70    N     0.16667   0.04931   0.25000   0.00000  Uiso   1.00
O71    O     0.10655   0.20625   0.25000   0.00000  Uiso   1.00
O72    O     0.22926   0.28707   0.29529   0.00000  Uiso   1.00
O73    O     0.22898   0.04513   0.29597   0.00000  Uiso   1.00
O74    O     0.10373   0.28827   0.20515   0.00000  Uiso   1.00
O75    O     0.04081   0.08340   0.26948   0.00000  Uiso   1.00
O76    O     0.29258   0.24944   0.22956   0.00000  Uiso   1.00
O77    O     0.29492   0.08099   0.24794   0.00000  Uiso   1.00
O78    O     0.03823   0.25228   0.25364   0.00000  Uiso   1.00
O79    O     0.22679   0.12709   0.25000   0.00000  Uiso   1.00
O80    O     0.22679   0.20625   0.25000   0.00000  Uiso   1.00
O81    O     0.10655   0.12709   0.25000   0.00000  Uiso   1.00
O82    O     0.16666   0.20626   0.18573   0.00000  Uiso   1.00
O83    O     0.16667   0.12707   0.31427   0.00000  Uiso   1.00
O84    O     0.16667   0.20626   0.31427   0.00000  Uiso   1.00
O85    O     0.16666   0.12707   0.18573   0.00000  Uiso   1.00
O86    O     0.10376   0.04607   0.20496   0.00000  Uiso   1.00
C87    C     0.42093   0.16691   0.25298   0.00000  Uiso   1.00
C88    C     0.64509   0.20816   0.24127   0.00000  Uiso   1.00
C89    C     0.64630   0.12393   0.25000   0.00000  Uiso   1.00
C90    C     0.35364   0.20929   0.25084   0.00000  Uiso   1.00
C91    C     0.51796   0.20713   0.04650   0.00000  Uiso   1.00
C92    C     0.47169   0.15683   0.45259   0.00000  Uiso   1.00
C93    C     0.54354   0.17658   0.45162   0.00000  Uiso   1.00
C94    C     0.50811   0.12468   0.04511   0.00000  Uiso   1.00
C95    C     0.51800   0.20782   0.09267   0.00000  Uiso   1.00
C96    C     0.46827   0.15722   0.40649   0.00000  Uiso   1.00
C97    C     0.54149   0.17607   0.40543   0.00000  Uiso   1.00
C98    C     0.57907   0.16640   0.24713   0.00000  Uiso   1.00
C99    C     0.50902   0.12314   0.09128   0.00000  Uiso   1.00
C100   C     0.51018   0.16583   0.11615   0.00000  Uiso   1.00
C101   C     0.50337   0.16699   0.38275   0.00000  Uiso   1.00
C102   C     0.51161   0.16629   0.02305   0.00000  Uiso   1.00
C103   C     0.50895   0.16680   0.47492   0.00000  Uiso   1.00
C104   C     0.62383   0.16587   0.24415   0.00000  Uiso   1.00
C105   C     0.37617   0.16732   0.25626   0.00000  Uiso   1.00
C106   C     0.52680   0.25464   0.11388   0.00000  Uiso   1.00
C107   C     0.48788   0.28438   0.11325   0.00000  Uiso   1.00
C108   C     0.42683   0.14789   0.38373   0.00000  Uiso   1.00
C109   C     0.50328   0.16647   0.16487   0.00000  Uiso   1.00
C110   C     0.40485   0.19311   0.37072   0.00000  Uiso   1.00
C111   C     0.58063   0.18433   0.38180   0.00000  Uiso   1.00
C112   C     0.60959   0.14256   0.38618   0.00000  Uiso   1.00
C113   C     0.51070   0.07486   0.11122   0.00000  Uiso   1.00
C114   C     0.55292   0.06410   0.13312   0.00000  Uiso   1.00
C115   C     0.50048   0.16675   0.33468   0.00000  Uiso   1.00
C116   C     0.46911   0.02469   0.22829   0.00000  Uiso   1.00
C117   C     0.53085   0.30862   0.27175   0.00000  Uiso   1.00
C118   C     0.53079   0.02421   0.27190   0.00000  Uiso   1.00
C119   C     0.46905   0.30915   0.22843   0.00000  Uiso   1.00
C120   C     0.35492   0.12496   0.25895   0.00000  Uiso   1.00
Cu121  Cu    0.50000   0.21355   0.25000   0.00000  Uiso   1.00
Cu122  Cu    0.50000   0.11978   0.25000   0.00000  Uiso   1.00
H123   H     0.52221   0.23902   0.02846   0.00000  Uiso   1.00
H124   H     0.46119   0.26356   0.12210   0.00000  Uiso   1.00
H125   H     0.49187   0.31352   0.13699   0.00000  Uiso   1.00
H126   H     0.54169   0.25201   0.14738   0.00000  Uiso   1.00
H127   H     0.54997   0.27317   0.09506   0.00000  Uiso   1.00
H128   H     0.39978   0.21448   0.40058   0.00000  Uiso   1.00
H129   H     0.42311   0.21322   0.34772   0.00000  Uiso   1.00
H130   H     0.37466   0.18532   0.35406   0.00000  Uiso   1.00
H131   H     0.43024   0.12575   0.35413   0.00000  Uiso   1.00
H132   H     0.40715   0.12837   0.40593   0.00000  Uiso   1.00
H133   H     0.61931   0.13655   0.42136   0.00000  Uiso   1.00
H134   H     0.44510   0.14951   0.47133   0.00000  Uiso   1.00
H135   H     0.59425   0.11102   0.37251   0.00000  Uiso   1.00
H136   H     0.63729   0.14895   0.36740   0.00000  Uiso   1.00
H137   H     0.57472   0.19113   0.34613   0.00000  Uiso   1.00
H138   H     0.59618   0.21555   0.39596   0.00000  Uiso   1.00
H139   H     0.56298   0.09172   0.15667   0.00000  Uiso   1.00
H140   H     0.55206   0.03078   0.15125   0.00000  Uiso   1.00
H141   H     0.57593   0.06098   0.10747   0.00000  Uiso   1.00
H142   H     0.48576   0.06962   0.13380   0.00000  Uiso   1.00
H143   H     0.50503   0.04797   0.08530   0.00000  Uiso   1.00
H144   H     0.39384   0.08933   0.29474   0.00000  Uiso   1.00
H145   H     0.57235   0.18381   0.46955   0.00000  Uiso   1.00
H146   H     0.60632   0.24280   0.20432   0.00000  Uiso   1.00
H147   H     0.61110   0.08003   0.22003   0.00000  Uiso   1.00
H148   H     0.38923   0.25262   0.28121   0.00000  Uiso   1.00
H149   H     0.50547   0.09300   0.02575   0.00000  Uiso   1.00
H150   H     0.44704   0.07525   0.19317   0.00000  Uiso   1.00
H151   H     0.55161   0.25923   0.30873   0.00000  Uiso   1.00
H152   H     0.55207   0.07457   0.30763   0.00000  Uiso   1.00
H153   H     0.44678   0.25825   0.19436   0.00000  Uiso   1.00
H154   H     0.48125   0.29863   0.07962   0.00000  Uiso   1.00
N155   N     0.50000   0.28402   0.25000   0.00000  Uiso   1.00
N156   N     0.50000   0.04931   0.25000   0.00000  Uiso   1.00
O157   O     0.43988   0.20625   0.25000   0.00000  Uiso   1.00
O158   O     0.56259   0.28707   0.29529   0.00000  Uiso   1.00
O159   O     0.56231   0.04513   0.29597   0.00000  Uiso   1.00
O160   O     0.43706   0.28827   0.20515   0.00000  Uiso   1.00
O161   O     0.37414   0.08340   0.26948   0.00000  Uiso   1.00
O162   O     0.62592   0.24944   0.22956   0.00000  Uiso   1.00
O163   O     0.62825   0.08099   0.24794   0.00000  Uiso   1.00
O164   O     0.37156   0.25228   0.25364   0.00000  Uiso   1.00
O165   O     0.56012   0.12709   0.25000   0.00000  Uiso   1.00
O166   O     0.56012   0.20625   0.25000   0.00000  Uiso   1.00
O167   O     0.43988   0.12709   0.25000   0.00000  Uiso   1.00
O168   O     0.50000   0.20626   0.18573   0.00000  Uiso   1.00
O169   O     0.50000   0.12707   0.31427   0.00000  Uiso   1.00
O170   O     0.50000   0.20626   0.31427   0.00000  Uiso   1.00
O171   O     0.50000   0.12707   0.18573   0.00000  Uiso   1.00
O172   O     0.43710   0.04607   0.20496   0.00000  Uiso   1.00
C173   C     0.75426   0.16691   0.25298   0.00000  Uiso   1.00
C174   C     0.97842   0.20816   0.24127   0.00000  Uiso   1.00
C175   C     0.97963   0.12393   0.25000   0.00000  Uiso   1.00
C176   C     0.68697   0.20929   0.25084   0.00000  Uiso   1.00
C177   C     0.85129   0.20713   0.04650   0.00000  Uiso   1.00
C178   C     0.80502   0.15683   0.45259   0.00000  Uiso   1.00
C179   C     0.87688   0.17658   0.45162   0.00000  Uiso   1.00
C180   C     0.84144   0.12468   0.04511   0.00000  Uiso   1.00
C181   C     0.85134   0.20782   0.09267   0.00000  Uiso   1.00
C182   C     0.80160   0.15722   0.40649   0.00000  Uiso   1.00
C183   C     0.87482   0.17607   0.40543   0.00000  Uiso   1.00
C184   C     0.91241   0.16640   0.24713   0.00000  Uiso   1.00
C185   C     0.84235   0.12314   0.09128   0.00000  Uiso   1.00
C186   C     0.84352   0.16583   0.11615   0.00000  Uiso   1.00
C187   C     0.83670   0.16699   0.38275   0.00000  Uiso   1.00
C188   C     0.84494   0.16629   0.02305   0.00000  Uiso   1.00
C189   C     0.84228   0.16680   0.47492   0.00000  Uiso   1.00
C190   C     0.95716   0.16587   0.24415   0.00000  Uiso   1.00
C191   C     0.70951   0.16732   0.25626   0.00000  Uiso   1.00
C192   C     0.86013   0.25464   0.11388   0.00000  Uiso   1.00
C193   C     0.82121   0.28438   0.11325   0.00000  Uiso   1.00
C194   C     0.76016   0.14789   0.38373   0.00000  Uiso   1.00
C195   C     0.83661   0.16647   0.16487   0.00000  Uiso   1.00
C196   C     0.73819   0.19311   0.37072   0.00000  Uiso   1.00
C197   C     0.91396   0.18433   0.38180   0.00000  Uiso   1.00
C198   C     0.94292   0.14256   0.38618   0.00000  Uiso   1.00
C199   C     0.84403   0.07486   0.11122   0.00000  Uiso   1.00
C200   C     0.88626   0.06410   0.13312   0.00000  Uiso   1.00
C201   C     0.83381   0.16675   0.33468   0.00000  Uiso   1.00
C202   C     0.80244   0.02469   0.22829   0.00000  Uiso   1.00
C203   C     0.86419   0.30862   0.27175   0.00000  Uiso   1.00
C204   C     0.86412   0.02421   0.27190   0.00000  Uiso   1.00
C205   C     0.80238   0.30915   0.22843   0.00000  Uiso   1.00
C206   C     0.68825   0.12496   0.25895   0.00000  Uiso   1.00
Cu207  Cu    0.83333   0.21355   0.25000   0.00000  Uiso   1.00
Cu208  Cu    0.83333   0.11978   0.25000   0.00000  Uiso   1.00
H209   H     0.85554   0.23902   0.02846   0.00000  Uiso   1.00
H210   H     0.79452   0.26356   0.12210   0.00000  Uiso   1.00
H211   H     0.82520   0.31352   0.13699   0.00000  Uiso   1.00
H212   H     0.87503   0.25201   0.14738   0.00000  Uiso   1.00
H213   H     0.88331   0.27317   0.09506   0.00000  Uiso   1.00
H214   H     0.73311   0.21448   0.40058   0.00000  Uiso   1.00
H215   H     0.75645   0.21322   0.34772   0.00000  Uiso   1.00
H216   H     0.70799   0.18532   0.35406   0.00000  Uiso   1.00
H217   H     0.76357   0.12575   0.35413   0.00000  Uiso   1.00
H218   H     0.74048   0.12837   0.40593   0.00000  Uiso   1.00
H219   H     0.95264   0.13655   0.42136   0.00000  Uiso   1.00
H220   H     0.77843   0.14951   0.47133   0.00000  Uiso   1.00
H221   H     0.92759   0.11102   0.37251   0.00000  Uiso   1.00
H222   H     0.97062   0.14895   0.36740   0.00000  Uiso   1.00
H223   H     0.90805   0.19113   0.34613   0.00000  Uiso   1.00
H224   H     0.92951   0.21555   0.39596   0.00000  Uiso   1.00
H225   H     0.89631   0.09172   0.15667   0.00000  Uiso   1.00
H226   H     0.88540   0.03078   0.15125   0.00000  Uiso   1.00
H227   H     0.90926   0.06098   0.10747   0.00000  Uiso   1.00
H228   H     0.81909   0.06962   0.13380   0.00000  Uiso   1.00
H229   H     0.83837   0.04797   0.08530   0.00000  Uiso   1.00
H230   H     0.72717   0.08933   0.29474   0.00000  Uiso   1.00
H231   H     0.90568   0.18381   0.46955   0.00000  Uiso   1.00
H232   H     0.93965   0.24280   0.20432   0.00000  Uiso   1.00
H233   H     0.94444   0.08003   0.22003   0.00000  Uiso   1.00
H234   H     0.72256   0.25262   0.28121   0.00000  Uiso   1.00
H235   H     0.83881   0.09300   0.02575   0.00000  Uiso   1.00
H236   H     0.78037   0.07525   0.19317   0.00000  Uiso   1.00
H237   H     0.88495   0.25923   0.30873   0.00000  Uiso   1.00
H238   H     0.88541   0.07457   0.30763   0.00000  Uiso   1.00
H239   H     0.78011   0.25825   0.19436   0.00000  Uiso   1.00
H240   H     0.81458   0.29863   0.07962   0.00000  Uiso   1.00
N241   N     0.83333   0.28402   0.25000   0.00000  Uiso   1.00
N242   N     0.83333   0.04931   0.25000   0.00000  Uiso   1.00
O243   O     0.77321   0.20625   0.25000   0.00000  Uiso   1.00
O244   O     0.89592   0.28707   0.29529   0.00000  Uiso   1.00
O245   O     0.89564   0.04513   0.29597   0.00000  Uiso   1.00
O246   O     0.77040   0.28827   0.20515   0.00000  Uiso   1.00
O247   O     0.70747   0.08340   0.26948   0.00000  Uiso   1.00
O248   O     0.95925   0.24944   0.22956   0.00000  Uiso   1.00
O249   O     0.96158   0.08099   0.24794   0.00000  Uiso   1.00
O250   O     0.70490   0.25228   0.25364   0.00000  Uiso   1.00
O251   O     0.89345   0.12709   0.25000   0.00000  Uiso   1.00
O252   O     0.89345   0.20625   0.25000   0.00000  Uiso   1.00
O253   O     0.77321   0.12709   0.25000   0.00000  Uiso   1.00
O254   O     0.83333   0.20626   0.18573   0.00000  Uiso   1.00
O255   O     0.83334   0.12707   0.31427   0.00000  Uiso   1.00
O256   O     0.83334   0.20626   0.31427   0.00000  Uiso   1.00
O257   O     0.83333   0.12707   0.18573   0.00000  Uiso   1.00
O258   O     0.77043   0.04607   0.20496   0.00000  Uiso   1.00
C259   C     0.08760   0.50024   0.25298   0.00000  Uiso   1.00
C260   C     0.31175   0.54149   0.24127   0.00000  Uiso   1.00
C261   C     0.31296   0.45726   0.25000   0.00000  Uiso   1.00
C262   C     0.02030   0.54262   0.25084   0.00000  Uiso   1.00
C263   C     0.18463   0.54047   0.04650   0.00000  Uiso   1.00
C264   C     0.13836   0.49016   0.45259   0.00000  Uiso   1.00
C265   C     0.21021   0.50991   0.45162   0.00000  Uiso   1.00
C266   C     0.17477   0.45801   0.04511   0.00000  Uiso   1.00
C267   C     0.18467   0.54115   0.09267   0.00000  Uiso   1.00
C268   C     0.13493   0.49055   0.40649   0.00000  Uiso   1.00
C269   C     0.20815   0.50940   0.40543   0.00000  Uiso   1.00
C270   C     0.24574   0.49973   0.24713   0.00000  Uiso   1.00
C271   C     0.17568   0.45648   0.09128   0.00000  Uiso   1.00
C272   C     0.17685   0.49917   0.11615   0.00000  Uiso   1.00
C273   C     0.17003   0.50032   0.38275   0.00000  Uiso   1.00
C274   C     0.17828   0.49962   0.02305   0.00000  Uiso   1.00
C275   C     0.17561   0.50013   0.47492   0.00000  Uiso   1.00
C276   C     0.29049   0.49920   0.24415   0.00000  Uiso   1.00
C277   C     0.04284   0.50065   0.25626   0.00000  Uiso   1.00
C278   C     0.19347   0.58797   0.11388   0.00000  Uiso   1.00
C279   C     0.15455   0.61772   0.11325   0.00000  Uiso   1.00
C280   C     0.09349   0.48123   0.38373   0.00000  Uiso   1.00
C281   C     0.16994   0.49981   0.16487   0.00000  Uiso   1.00
C282   C     0.07152   0.52644   0.37072   0.00000  Uiso   1.00
C283   C     0.24729   0.51767   0.38180   0.00000  Uiso   1.00
C284   C     0.27626   0.47589   0.38618   0.00000  Uiso   1.00
C285   C     0.17737   0.40820   0.11122   0.00000  Uiso   1.00
C286   C     0.21959   0.39744   0.13312   0.00000  Uiso   1.00
C287   C     0.16715   0.50008   0.33468   0.00000  Uiso   1.00
C288   C     0.13577   0.35803   0.22829   0.00000  Uiso   1.00
C289   C     0.19752   0.64196   0.27175   0.00000  Uiso   1.00
C290   C     0.19745   0.35754   0.27190   0.00000  Uiso   1.00
C291   C     0.13572   0.64248   0.22843   0.00000  Uiso   1.00
C292   C     0.02158   0.45830   0.25895   0.00000  Uiso   1.00
Cu293  Cu    0.16667   0.54689   0.25000   0.00000  Uiso   1.00
Cu294  Cu    0.16667   0.45311   0.25000   0.00000  Uiso   1.00
H295   H     0.18887   0.57235   0.02846   0.00000  Uiso   1.00
H296   H     0.12785   0.59689   0.12210   0.00000  Uiso   1.00
H297   H     0.15854   0.64686   0.13699   0.00000  Uiso   1.00
H298   H     0.20836   0.58535   0.14738   0.00000  Uiso   1.00
H299   H     0.21664   0.60650   0.09506   0.00000  Uiso   1.00
H300   H     0.06645   0.54782   0.40058   0.00000  Uiso   1.00
H301   H     0.08978   0.54656   0.34772   0.00000  Uiso   1.00
H302   H     0.04132   0.51865   0.35406   0.00000  Uiso   1.00
H303   H     0.09690   0.45908   0.35413   0.00000  Uiso   1.00
H304   H     0.07382   0.46170   0.40593   0.00000  Uiso   1.00
H305   H     0.28597   0.46988   0.42136   0.00000  Uiso   1.00
H306   H     0.11177   0.48285   0.47133   0.00000  Uiso   1.00
H307   H     0.26092   0.44436   0.37251   0.00000  Uiso   1.00
H308   H     0.30395   0.48229   0.36740   0.00000  Uiso   1.00
H309   H     0.24138   0.52447   0.34613   0.00000  Uiso   1.00
H310   H     0.26284   0.54889   0.39596   0.00000  Uiso   1.00
H311   H     0.22964   0.42505   0.15667   0.00000  Uiso   1.00
H312   H     0.21873   0.36411   0.15125   0.00000  Uiso   1.00
H313   H     0.24259   0.39432   0.10747   0.00000  Uiso   1.00
H314   H     0.15243   0.40295   0.13380   0.00000  Uiso   1.00
H315   H     0.17170   0.38130   0.08530   0.00000  Uiso   1.00
H316   H     0.06050   0.42266   0.29474   0.00000  Uiso   1.00
H317   H     0.23901   0.51715   0.46955   0.00000  Uiso   1.00
H318   H     0.27299   0.57613   0.20432   0.00000  Uiso   1.00
H319   H     0.27777   0.41336   0.22003   0.00000  Uiso   1.00
H320   H     0.05590   0.58595   0.28121   0.00000  Uiso   1.00
H321   H     0.17214   0.42634   0.02575   0.00000  Uiso   1.00
H322   H     0.11370   0.40858   0.19317   0.00000  Uiso   1.00
H323   H     0.21828   0.59256   0.30873   0.00000  Uiso   1.00
H324   H     0.21874   0.40790   0.30763   0.00000  Uiso   1.00
H325   H     0.11344   0.59158   0.19436   0.00000  Uiso   1.00
H326   H     0.14792   0.63196   0.07962   0.00000  Uiso   1.00
N327   N     0.16667   0.61736   0.25000   0.00000  Uiso   1.00
N328   N     0.16667   0.38264   0.25000   0.00000  Uiso   1.00
O329   O     0.10655   0.53958   0.25000   0.00000  Uiso   1.00
O330   O     0.22926   0.62040   0.29529   0.00000  Uiso   1.00
O331   O     0.22898   0.37846   0.29597   0.00000  Uiso   1.00
O332   O     0.10373   0.62160   0.20515   0.00000  Uiso   1.00
O333   O     0.04081   0.41674   0.26948   0.00000  Uiso   1.00
O334   O     0.29258   0.58278   0.22956   0.00000  Uiso   1.00
O335   O     0.29492   0.41432   0.24794   0.00000  Uiso   1.00
O336   O     0.03823   0.58561   0.25364   0.00000  Uiso   1.00
O337   O     0.22679   0.46042   0.25000   0.00000  Uiso   1.00
O338   O     0.22679   0.53958   0.25000   0.00000  Uiso   1.00
O339   O     0.10655   0.46042   0.25000   0.00000  Uiso   1.00
O340   O     0.16666   0.53959   0.18573   0.00000  Uiso   1.00
O341   O     0.16667   0.46041   0.31427   0.00000  Uiso   1.00
O342   O     0.16667   0.53959   0.31427   0.00000  Uiso   1.00
O343   O     0.16666   0.46041   0.18573   0.00000  Uiso   1.00
O344   O     0.10376   0.37940   0.20496   0.00000  Uiso   1.00
C345   C     0.42093   0.50024   0.25298   0.00000  Uiso   1.00
C346   C     0.64509   0.54149   0.24127   0.00000  Uiso   1.00
C347   C     0.64630   0.45726   0.25000   0.00000  Uiso   1.00
C348   C     0.35364   0.54262   0.25084   0.00000  Uiso   1.00
C349   C     0.51796   0.54047   0.04650   0.00000  Uiso   1.00
C350   C     0.47169   0.49016   0.45259   0.00000  Uiso   1.00
C351   C     0.54354   0.50991   0.45162   0.00000  Uiso   1.00
C352   C     0.50811   0.45801   0.04511   0.00000  Uiso   1.00
C353   C     0.51800   0.54115   0.09267   0.00000  Uiso   1.00
C354   C     0.46827   0.49055   0.40649   0.00000  Uiso   1.00
C355   C     0.54149   0.50940   0.40543   0.00000  Uiso   1.00
C356   C     0.57907   0.49973   0.24713   0.00000  Uiso   1.00
C357   C     0.50902   0.45648   0.09128   0.00000  Uiso   1.00
C358   C     0.51018   0.49917   0.11615   0.00000  Uiso   1.00
C359   C     0.50337   0.50032   0.38275   0.00000  Uiso   1.00
C360   C     0.51161   0.49962   0.02305   0.00000  Uiso   1.00
C361   C     0.50895   0.50013   0.47492   0.00000  Uiso   1.00
C362   C     0.62383   0.49920   0.24415   0.00000  Uiso   1.00
C363   C     0.37617   0.50065   0.25626   0.00000  Uiso   1.00
C364   C     0.52680   0.58797   0.11388   0.00000  Uiso   1.00
C365   C     0.48788   0.61772   0.11325   0.00000  Uiso   1.00
C366   C     0.42683   0.48123   0.38373   0.00000  Uiso   1.00
C367   C     0.50328   0.49981   0.16487   0.00000  Uiso   1.00
C368   C     0.40485   0.52644   0.37072   0.00000  Uiso   1.00
C369   C     0.58063   0.51767   0.38180   0.00000  Uiso   1.00
C370   C     0.60959   0.47589   0.38618   0.00000  Uiso   1.00
C371   C     0.51070   0.40820   0.11122   0.00000  Uiso   1.00
C372   C     0.55292   0.39744   0.13312   0.00000  Uiso   1.00
C373   C     0.50048   0.50008   0.33468   0.00000  Uiso   1.00
C374   C     0.46911   0.35803   0.22829   0.00000  Uiso   1.00
C375   C     0.53085   0.64196   0.27175   0.00000  Uiso   1.00
C376   C     0.53079   0.35754   0.27190   0.00000  Uiso   1.00
C377   C     0.46905   0.64248   0.22843   0.00000  Uiso   1.00
C378   C     0.35492   0.45830   0.25895   0.00000  Uiso   1.00
Cu379  Cu    0.50000   0.54689   0.25000   0.00000  Uiso   1.00
Cu380  Cu    0.50000   0.45311   0.25000   0.00000  Uiso   1.00
H381   H     0.52221   0.57235   0.02846   0.00000  Uiso   1.00
H382   H     0.46119   0.59689   0.12210   0.00000  Uiso   1.00
H383   H     0.49187   0.64686   0.13699   0.00000  Uiso   1.00
H384   H     0.54169   0.58535   0.14738   0.00000  Uiso   1.00
H385   H     0.54997   0.60650   0.09506   0.00000  Uiso   1.00
H386   H     0.39978   0.54782   0.40058   0.00000  Uiso   1.00
H387   H     0.42311   0.54656   0.34772   0.00000  Uiso   1.00
H388   H     0.37466   0.51865   0.35406   0.00000  Uiso   1.00
H389   H     0.43024   0.45908   0.35413   0.00000  Uiso   1.00
H390   H     0.40715   0.46170   0.40593   0.00000  Uiso   1.00
H391   H     0.61931   0.46988   0.42136   0.00000  Uiso   1.00
H392   H     0.44510   0.48285   0.47133   0.00000  Uiso   1.00
H393   H     0.59425   0.44436   0.37251   0.00000  Uiso   1.00
H394   H     0.63729   0.48229   0.36740   0.00000  Uiso   1.00
H395   H     0.57472   0.52447   0.34613   0.00000  Uiso   1.00
H396   H     0.59618   0.54889   0.39596   0.00000  Uiso   1.00
H397   H     0.56298   0.42505   0.15667   0.00000  Uiso   1.00
H398   H     0.55206   0.36411   0.15125   0.00000  Uiso   1.00
H399   H     0.57593   0.39432   0.10747   0.00000  Uiso   1.00
H400   H     0.48576   0.40295   0.13380   0.00000  Uiso   1.00
H401   H     0.50503   0.38130   0.08530   0.00000  Uiso   1.00
H402   H     0.39384   0.42266   0.29474   0.00000  Uiso   1.00
H403   H     0.57235   0.51715   0.46955   0.00000  Uiso   1.00
H404   H     0.60632   0.57613   0.20432   0.00000  Uiso   1.00
H405   H     0.61110   0.41336   0.22003   0.00000  Uiso   1.00
H406   H     0.38923   0.58595   0.28121   0.00000  Uiso   1.00
H407   H     0.50547   0.42634   0.02575   0.00000  Uiso   1.00
H408   H     0.44704   0.40858   0.19317   0.00000  Uiso   1.00
H409   H     0.55161   0.59256   0.30873   0.00000  Uiso   1.00
H410   H     0.55207   0.40790   0.30763   0.00000  Uiso   1.00
H411   H     0.44678   0.59158   0.19436   0.00000  Uiso   1.00
H412   H     0.48125   0.63196   0.07962   0.00000  Uiso   1.00
N413   N     0.50000   0.61736   0.25000   0.00000  Uiso   1.00
N414   N     0.50000   0.38264   0.25000   0.00000  Uiso   1.00
O415   O     0.43988   0.53958   0.25000   0.00000  Uiso   1.00
O416   O     0.56259   0.62040   0.29529   0.00000  Uiso   1.00
O417   O     0.56231   0.37846   0.29597   0.00000  Uiso   1.00
O418   O     0.43706   0.62160   0.20515   0.00000  Uiso   1.00
O419   O     0.37414   0.41674   0.26948   0.00000  Uiso   1.00
O420   O     0.62592   0.58278   0.22956   0.00000  Uiso   1.00
O421   O     0.62825   0.41432   0.24794   0.00000  Uiso   1.00
O422   O     0.37156   0.58561   0.25364   0.00000  Uiso   1.00
O423   O     0.56012   0.46042   0.25000   0.00000  Uiso   1.00
O424   O     0.56012   0.53958   0.25000   0.00000  Uiso   1.00
O425   O     0.43988   0.46042   0.25000   0.00000  Uiso   1.00
O426   O     0.50000   0.53959   0.18573   0.00000  Uiso   1.00
O427   O     0.50000   0.46041   0.31427   0.00000  Uiso   1.00
O428   O     0.50000   0.53959   0.31427   0.00000  Uiso   1.00
O429   O     0.50000   0.46041   0.18573   0.00000  Uiso   1.00
O430   O     0.43710   0.37940   0.20496   0.00000  Uiso   1.00
C431   C     0.75426   0.50024   0.25298   0.00000  Uiso   1.00
C432   C     0.97842   0.54149   0.24127   0.00000  Uiso   1.00
C433   C     0.97963   0.45726   0.25000   0.00000  Uiso   1.00
C434   C     0.68697   0.54262   0.25084   0.00000  Uiso   1.00
C435   C     0.85129   0.54047   0.04650   0.00000  Uiso   1.00
C436   C     0.80502   0.49016   0.45259   0.00000  Uiso   1.00
C437   C     0.87688   0.50991   0.45162   0.00000  Uiso   1.00
C438   C     0.84144   0.45801   0.04511   0.00000  Uiso   1.00
C439   C     0.85134   0.54115   0.09267   0.00000  Uiso   1.00
C440   C     0.80160   0.49055   0.40649   0.00000  Uiso   1.00
C441   C     0.87482   0.50940   0.40543   0.00000  Uiso   1.00
C442   C     0.91241   0.49973   0.24713   0.00000  Uiso   1.00
C443   C     0.84235   0.45648   0.09128   0.00000  Uiso   1.00
C444   C     0.84352   0.49917   0.11615   0.00000  Uiso   1.00
C445   C     0.83670   0.50032   0.38275   0.00000  Uiso   1.00
C446   C     0.84494   0.49962   0.02305   0.00000  Uiso   1.00
C447   C     0.84228   0.50013   0.47492   0.00000  Uiso   1.00
C448   C     0.95716   0.49920   0.24415   0.00000  Uiso   1.00
C449   C     0.70951   0.50065   0.25626   0.00000  Uiso   1.00
C450   C     0.86013   0.58797   0.11388   0.00000  Uiso   1.00
C451   C     0.82121   0.61772   0.11325   0.00000  Uiso   1.00
C452   C     0.76016   0.48123   0.38373   0.00000  Uiso   1.00
C453   C     0.83661   0.49981   0.16487   0.00000  Uiso   1.00
C454   C     0.73819   0.52644   0.37072   0.00000  Uiso   1.00
C455   C     0.91396   0.51767   0.38180   0.00000  Uiso   1.00
C456   C     0.94292   0.47589   0.38618   0.00000  Uiso   1.00
C457   C     0.84403   0.40820   0.11122   0.00000  Uiso   1.00
C458   C     0.88626   0.39744   0.13312   0.00000  Uiso   1.00
C459   C     0.83381   0.50008   0.33468   0.00000  Uiso   1.00
C460   C     0.80244   0.35803   0.22829   0.00000  Uiso   1.00
C461   C     0.86419   0.64196   0.27175   0.00000  Uiso   1.00
C462   C     0.86412   0.35754   0.27190   0.00000  Uiso   1.00
C463   C     0.80238   0.64248   0.22843   0.00000  Uiso   1.00
C464   C     0.68825   0.45830   0.25895   0.00000  Uiso   1.00
Cu465  Cu    0.83333   0.54689   0.25000   0.00000  Uiso   1.00
Cu466  Cu    0.83333   0.45311   0.25000   0.00000  Uiso   1.00
H467   H     0.85554   0.57235   0.02846   0.00000  Uiso   1.00
H468   H     0.79452   0.59689   0.12210   0.00000  Uiso   1.00
H469   H     0.82520   0.64686   0.13699   0.00000  Uiso   1.00
H470   H     0.87503   0.58535   0.14738   0.00000  Uiso   1.00
H471   H     0.88331   0.60650   0.09506   0.00000  Uiso   1.00
H472   H     0.73311   0.54782   0.40058   0.00000  Uiso   1.00
H473   H     0.75645   0.54656   0.34772   0.00000  Uiso   1.00
H474   H     0.70799   0.51865   0.35406   0.00000  Uiso   1.00
H475   H     0.76357   0.45908   0.35413   0.00000  Uiso   1.00
H476   H     0.74048   0.46170   0.40593   0.00000  Uiso   1.00
H477   H     0.95264   0.46988   0.42136   0.00000  Uiso   1.00
H478   H     0.77843   0.48285   0.47133   0.00000  Uiso   1.00
H479   H     0.92759   0.44436   0.37251   0.00000  Uiso   1.00
H480   H     0.97062   0.48229   0.36740   0.00000  Uiso   1.00
H481   H     0.90805   0.52447   0.34613   0.00000  Uiso   1.00
H482   H     0.92951   0.54889   0.39596   0.00000  Uiso   1.00
H483   H     0.89631   0.42505   0.15667   0.00000  Uiso   1.00
H484   H     0.88540   0.36411   0.15125   0.00000  Uiso   1.00
H485   H     0.90926   0.39432   0.10747   0.00000  Uiso   1.00
H486   H     0.81909   0.40295   0.13380   0.00000  Uiso   1.00
H487   H     0.83837   0.38130   0.08530   0.00000  Uiso   1.00
H488   H     0.72717   0.42266   0.29474   0.00000  Uiso   1.00
H489   H     0.90568   0.51715   0.46955   0.00000  Uiso   1.00
H490   H     0.93965   0.57613   0.20432   0.00000  Uiso   1.00
H491   H     0.94444   0.41336   0.22003   0.00000  Uiso   1.00
H492   H     0.72256   0.58595   0.28121   0.00000  Uiso   1.00
H493   H     0.83881   0.42634   0.02575   0.00000  Uiso   1.00
H494   H     0.78037   0.40858   0.19317   0.00000  Uiso   1.00
H495   H     0.88495   0.59256   0.30873   0.00000  Uiso   1.00
H496   H     0.88541   0.40790   0.30763   0.00000  Uiso   1.00
H497   H     0.78011   0.59158   0.19436   0.00000  Uiso   1.00
H498   H     0.81458   0.63196   0.07962   0.00000  Uiso   1.00
N499   N     0.83333   0.61736   0.25000   0.00000  Uiso   1.00
N500   N     0.83333   0.38264   0.25000   0.00000  Uiso   1.00
O501   O     0.77321   0.53958   0.25000   0.00000  Uiso   1.00
O502   O     0.89592   0.62040   0.29529   0.00000  Uiso   1.00
O503   O     0.89564   0.37846   0.29597   0.00000  Uiso   1.00
O504   O     0.77040   0.62160   0.20515   0.00000  Uiso   1.00
O505   O     0.70747   0.41674   0.26948   0.00000  Uiso   1.00
O506   O     0.95925   0.58278   0.22956   0.00000  Uiso   1.00
O507   O     0.96158   0.41432   0.24794   0.00000  Uiso   1.00
O508   O     0.70490   0.58561   0.25364   0.00000  Uiso   1.00
O509   O     0.89345   0.46042   0.25000   0.00000  Uiso   1.00
O510   O     0.89345   0.53958   0.25000   0.00000  Uiso   1.00
O511   O     0.77321   0.46042   0.25000   0.00000  Uiso   1.00
O512   O     0.83333   0.53959   0.18573   0.00000  Uiso   1.00
O513   O     0.83334   0.46041   0.31427   0.00000  Uiso   1.00
O514   O     0.83334   0.53959   0.31427   0.00000  Uiso   1.00
O515   O     0.83333   0.46041   0.18573   0.00000  Uiso   1.00
O516   O     0.77043   0.37940   0.20496   0.00000  Uiso   1.00
C517   C     0.08760   0.83358   0.25298   0.00000  Uiso   1.00
C518   C     0.31175   0.87483   0.24127   0.00000  Uiso   1.00
C519   C     0.31296   0.79060   0.25000   0.00000  Uiso   1.00
C520   C     0.02030   0.87595   0.25084   0.00000  Uiso   1.00
C521   C     0.18463   0.87380   0.04650   0.00000  Uiso   1.00
C522   C     0.13836   0.82349   0.45259   0.00000  Uiso   1.00
C523   C     0.21021   0.84324   0.45162   0.00000  Uiso   1.00
C524   C     0.17477   0.79134   0.04511   0.00000  Uiso   1.00
C525   C     0.18467   0.87449   0.09267   0.00000  Uiso   1.00
C526   C     0.13493   0.82389   0.40649   0.00000  Uiso   1.00
C527   C     0.20815   0.84274   0.40543   0.00000  Uiso   1.00
C528   C     0.24574   0.83306   0.24713   0.00000  Uiso   1.00
C529   C     0.17568   0.78981   0.09128   0.00000  Uiso   1.00
C530   C     0.17685   0.83250   0.11615   0.00000  Uiso   1.00
C531   C     0.17003   0.83365   0.38275   0.00000  Uiso   1.00
C532   C     0.17828   0.83295   0.02305   0.00000  Uiso   1.00
C533   C     0.17561   0.83347   0.47492   0.00000  Uiso   1.00
C534   C     0.29049   0.83253   0.24415   0.00000  Uiso   1.00
C535   C     0.04284   0.83399   0.25626   0.00000  Uiso   1.00
C536   C     0.19347   0.92130   0.11388   0.00000  Uiso   1.00
C537   C     0.15455   0.95105   0.11325   0.00000  Uiso   1.00
C538   C     0.09349   0.81456   0.38373   0.00000  Uiso   1.00
C539   C     0.16994   0.83314   0.16487   0.00000  Uiso   1.00
C540   C     0.07152   0.85978   0.37072   0.00000  Uiso   1.00
C541   C     0.24729   0.85100   0.38180   0.00000  Uiso   1.00
C542   C     0.27626   0.80922   0.38618   0.00000  Uiso   1.00
C543   C     0.17737   0.74153   0.11122   0.00000  Uiso   1.00
C544   C     0.21959   0.73077   0.13312   0.00000  Uiso   1.00
C545   C     0.16715   0.83342   0.33468   0.00000  Uiso   1.00
C546   C     0.13577   0.69136   0.22829   0.00000  Uiso   1.00
C547   C     0.19752   0.97529   0.27175   0.00000  Uiso   1.00
C548   C     0.19745   0.69087   0.27190   0.00000  Uiso   1.00
C549   C     0.13572   0.97581   0.22843   0.00000  Uiso   1.00
C550   C     0.02158   0.79163   0.25895   0.00000  Uiso   1.00
Cu551  Cu    0.16667   0.88022   0.25000   0.00000  Uiso   1.00
Cu552  Cu    0.16667   0.78645   0.25000   0.00000  Uiso   1.00
H553   H     0.18887   0.90568   0.02846   0.00000  Uiso   1.00
H554   H     0.12785   0.93022   0.12210   0.00000  Uiso   1.00
H555   H     0.15854   0.98019   0.13699   0.00000  Uiso   1.00
H556   H     0.20836   0.91868   0.14738   0.00000  Uiso   1.00
H557   H     0.21664   0.93984   0.09506   0.00000  Uiso   1.00
H558   H     0.06645   0.88115   0.40058   0.00000  Uiso   1.00
H559   H     0.08978   0.87989   0.34772   0.00000  Uiso   1.00
H560   H     0.04132   0.85199   0.35406   0.00000  Uiso   1.00
H561   H     0.09690   0.79242   0.35413   0.00000  Uiso   1.00
H562   H     0.07382   0.79503   0.40593   0.00000  Uiso   1.00
H563   H     0.28597   0.80321   0.42136   0.00000  Uiso   1.00
H564   H     0.11177   0.81618   0.47133   0.00000  Uiso   1.00
H565   H     0.26092   0.77769   0.37251   0.00000  Uiso   1.00
H566   H     0.30395   0.81562   0.36740   0.00000  Uiso   1.00
H567   H     0.24138   0.85780   0.34613   0.00000  Uiso   1.00
H568   H     0.26284   0.88222   0.39596   0.00000  Uiso   1.00
H569   H     0.22964   0.75839   0.15667   0.00000  Uiso   1.00
H570   H     0.21873   0.69744   0.15125   0.00000  Uiso   1.00
H571   H     0.24259   0.72765   0.10747   0.00000  Uiso   1.00
H572   H     0.15243   0.73629   0.13380   0.00000  Uiso   1.00
H573   H     0.17170   0.71463   0.08530   0.00000  Uiso   1.00
H574   H     0.06050   0.75599   0.29474   0.00000  Uiso   1.00
H575   H     0.23901   0.85048   0.46955   0.00000  Uiso   1.00
H576   H     0.27299   0.90946   0.20432   0.00000  Uiso   1.00
H577   H     0.27777   0.74670   0.22003   0.00000  Uiso   1.00
H578   H     0.05590   0.91928   0.28121   0.00000  Uiso   1.00
H579   H     0.17214   0.75967   0.02575   0.00000  Uiso   1.00
H580   H     0.11370   0.74192   0.19317   0.00000  Uiso   1.00
H581   H     0.21828   0.92590   0.30873   0.00000  Uiso   1.00
H582   H     0.21874   0.74124   0.30763   0.00000  Uiso   1.00
H583   H     0.11344   0.92492   0.19436   0.00000  Uiso   1.00
H584   H     0.14792   0.96530   0.07962   0.00000  Uiso   1.00
N585   N     0.16667   0.95069   0.25000   0.00000  Uiso   1.00
N586   N     0.16667   0.71598   0.25000   0.00000  Uiso   1.00
O587   O     0.10655   0.87291   0.25000   0.00000  Uiso   1.00
O588   O     0.22926   0.95373   0.29529   0.00000  Uiso   1.00
O589   O     0.22898   0.71179   0.29597   0.00000  Uiso   1.00
O590   O     0.10373   0.95493   0.20515   0.00000  Uiso   1.00
O591   O     0.04081   0.75007   0.26948   0.00000  Uiso   1.00
O592   O     0.29258   0.91611   0.22956   0.00000  Uiso   1.00
O593   O     0.29492   0.74766   0.24794   0.00000  Uiso   1.00
O594   O     0.03823   0.91895   0.25364   0.00000  Uiso   1.00
O595   O     0.22679   0.79375   0.25000   0.00000  Uiso   1.00
O596   O     0.22679   0.87291   0.25000   0.00000  Uiso   1.00
O597   O     0.10655   0.79375   0.25000   0.00000  Uiso   1.00
O598   O     0.16666   0.87293   0.18573   0.00000  Uiso   1.00
O599   O     0.16667   0.79374   0.31427   0.00000  Uiso   1.00
O600   O     0.16667   0.87293   0.31427   0.00000  Uiso   1.00
O601   O     0.16666   0.79374   0.18573   0.00000  Uiso   1.00
O602   O     0.10376   0.71274   0.20496   0.00000  Uiso   1.00
C603   C     0.42093   0.83358   0.25298   0.00000  Uiso   1.00
C604   C     0.64509   0.87483   0.24127   0.00000  Uiso   1.00
C605   C     0.64630   0.79060   0.25000   0.00000  Uiso   1.00
C606   C     0.35364   0.87595   0.25084   0.00000  Uiso   1.00
C607   C     0.51796   0.87380   0.04650   0.00000  Uiso   1.00
C608   C     0.47169   0.82349   0.45259   0.00000  Uiso   1.00
C609   C     0.54354   0.84324   0.45162   0.00000  Uiso   1.00
C610   C     0.50811   0.79134   0.04511   0.00000  Uiso   1.00
C611   C     0.51800   0.87449   0.09267   0.00000  Uiso   1.00
C612   C     0.46827   0.82389   0.40649   0.00000  Uiso   1.00
C613   C     0.54149   0.84274   0.40543   0.00000  Uiso   1.00
C614   C     0.57907   0.83306   0.24713   0.00000  Uiso   1.00
C615   C     0.50902   0.78981   0.09128   0.00000  Uiso   1.00
C616   C     0.51018   0.83250   0.11615   0.00000  Uiso   1.00
C617   C     0.50337   0.83365   0.38275   0.00000  Uiso   1.00
C618   C     0.51161   0.83295   0.02305   0.00000  Uiso   1.00
C619   C     0.50895   0.83347   0.47492   0.00000  Uiso   1.00
C620   C     0.62383   0.83253   0.24415   0.00000  Uiso   1.00
C621   C     0.37617   0.83399   0.25626   0.00000  Uiso   1.00
C622   C     0.52680   0.92130   0.11388   0.00000  Uiso   1.00
C623   C     0.48788   0.95105   0.11325   0.00000  Uiso   1.00
C624   C     0.42683   0.81456   0.38373   0.00000  Uiso   1.00
C625   C     0.50328   0.83314   0.16487   0.00000  Uiso   1.00
C626   C     0.40485   0.85978   0.37072   0.00000  Uiso   1.00
C627   C     0.58063   0.85100   0.38180   0.00000  Uiso   1.00
C628   C     0.60959   0.80922   0.38618   0.00000  Uiso   1.00
C629   C     0.51070   0.74153   0.11122   0.00000  Uiso   1.00
C630   C     0.55292   0.73077   0.13312   0.00000  Uiso   1.00
C631   C     0.50048   0.83342   0.33468   0.00000  Uiso   1.00
C632   C     0.46911   0.69136   0.22829   0.00000  Uiso   1.00
C633   C     0.53085   0.97529   0.27175   0.00000  Uiso   1.00
C634   C     0.53079   0.69087   0.27190   0.00000  Uiso   1.00
C635   C     0.46905   0.97581   0.22843   0.00000  Uiso   1.00
C636   C     0.35492   0.79163   0.25895   0.00000  Uiso   1.00
Cu637  Cu    0.50000   0.88022   0.25000   0.00000  Uiso   1.00
Cu638  Cu    0.50000   0.78645   0.25000   0.00000  Uiso   1.00
H639   H     0.52221   0.90568   0.02846   0.00000  Uiso   1.00
H640   H     0.46119   0.93022   0.12210   0.00000  Uiso   1.00
H641   H     0.49187   0.98019   0.13699   0.00000  Uiso   1.00
H642   H     0.54169   0.91868   0.14738   0.00000  Uiso   1.00
H643   H     0.54997   0.93984   0.09506   0.00000  Uiso   1.00
H644   H     0.39978   0.88115   0.40058   0.00000  Uiso   1.00
H645   H     0.42311   0.87989   0.34772   0.00000  Uiso   1.00
H646   H     0.37466   0.85199   0.35406   0.00000  Uiso   1.00
H647   H     0.43024   0.79242   0.35413   0.00000  Uiso   1.00
H648   H     0.40715   0.79503   0.40593   0.00000  Uiso   1.00
H649   H     0.61931   0.80321   0.42136   0.00000  Uiso   1.00
H650   H     0.44510   0.81618   0.47133   0.00000  Uiso   1.00
H651   H     0.59425   0.77769   0.37251   0.00000  Uiso   1.00
H652   H     0.63729   0.81562   0.36740   0.00000  Uiso   1.00
H653   H     0.57472   0.85780   0.34613   0.00000  Uiso   1.00
H654   H     0.59618   0.88222   0.39596   0.00000  Uiso   1.00
H655   H     0.56298   0.75839   0.15667   0.00000  Uiso   1.00
H656   H     0.55206   0.69744   0.15125   0.00000  Uiso   1.00
H657   H     0.57593   0.72765   0.10747   0.00000  Uiso   1.00
H658   H     0.48576   0.73629   0.13380   0.00000  Uiso   1.00
H659   H     0.50503   0.71463   0.08530   0.00000  Uiso   1.00
H660   H     0.39384   0.75599   0.29474   0.00000  Uiso   1.00
H661   H     0.57235   0.85048   0.46955   0.00000  Uiso   1.00
H662   H     0.60632   0.90946   0.20432   0.00000  Uiso   1.00
H663   H     0.61110   0.74670   0.22003   0.00000  Uiso   1.00
H664   H     0.38923   0.91928   0.28121   0.00000  Uiso   1.00
H665   H     0.50547   0.75967   0.02575   0.00000  Uiso   1.00
H666   H     0.44704   0.74192   0.19317   0.00000  Uiso   1.00
H667   H     0.55161   0.92590   0.30873   0.00000  Uiso   1.00
H668   H     0.55207   0.74124   0.30763   0.00000  Uiso   1.00
H669   H     0.44678   0.92492   0.19436   0.00000  Uiso   1.00
H670   H     0.48125   0.96530   0.07962   0.00000  Uiso   1.00
N671   N     0.50000   0.95069   0.25000   0.00000  Uiso   1.00
N672   N     0.50000   0.71598   0.25000   0.00000  Uiso   1.00
O673   O     0.43988   0.87291   0.25000   0.00000  Uiso   1.00
O674   O     0.56259   0.95373   0.29529   0.00000  Uiso   1.00
O675   O     0.56231   0.71179   0.29597   0.00000  Uiso   1.00
O676   O     0.43706   0.95493   0.20515   0.00000  Uiso   1.00
O677   O     0.37414   0.75007   0.26948   0.00000  Uiso   1.00
O678   O     0.62592   0.91611   0.22956   0.00000  Uiso   1.00
O679   O     0.62825   0.74766   0.24794   0.00000  Uiso   1.00
O680   O     0.37156   0.91895   0.25364   0.00000  Uiso   1.00
O681   O     0.56012   0.79375   0.25000   0.00000  Uiso   1.00
O682   O     0.56012   0.87291   0.25000   0.00000  Uiso   1.00
O683   O     0.43988   0.79375   0.25000   0.00000  Uiso   1.00
O684   O     0.50000   0.87293   0.18573   0.00000  Uiso   1.00
O685   O     0.50000   0.79374   0.31427   0.00000  Uiso   1.00
O686   O     0.50000   0.87293   0.31427   0.00000  Uiso   1.00
O687   O     0.50000   0.79374   0.18573   0.00000  Uiso   1.00
O688   O     0.43710   0.71274   0.20496   0.00000  Uiso   1.00
C689   C     0.75426   0.83358   0.25298   0.00000  Uiso   1.00
C690   C     0.97842   0.87483   0.24127   0.00000  Uiso   1.00
C691   C     0.97963   0.79060   0.25000   0.00000  Uiso   1.00
C692   C     0.68697   0.87595   0.25084   0.00000  Uiso   1.00
C693   C     0.85129   0.87380   0.04650   0.00000  Uiso   1.00
C694   C     0.80502   0.82349   0.45259   0.00000  Uiso   1.00
C695   C     0.87688   0.84324   0.45162   0.00000  Uiso   1.00
C696   C     0.84144   0.79134   0.04511   0.00000  Uiso   1.00
C697   C     0.85134   0.87449   0.09267   0.00000  Uiso   1.00
C698   C     0.80160   0.82389   0.40649   0.00000  Uiso   1.00
C699   C     0.87482   0.84274   0.40543   0.00000  Uiso   1.00
C700   C     0.91241   0.83306   0.24713   0.00000  Uiso   1.00
C701   C     0.84235   0.78981   0.09128   0.00000  Uiso   1.00
C702   C     0.84352   0.83250   0.11615   0.00000  Uiso   1.00
C703   C     0.83670   0.83365   0.38275   0.00000  Uiso   1.00
C704   C     0.84494   0.83295   0.02305   0.00000  Uiso   1.00
C705   C     0.84228   0.83347   0.47492   0.00000  Uiso   1.00
C706   C     0.95716   0.83253   0.24415   0.00000  Uiso   1.00
C707   C     0.70951   0.83399   0.25626   0.00000  Uiso   1.00
C708   C     0.86013   0.92130   0.11388   0.00000  Uiso   1.00
C709   C     0.82121   0.95105   0.11325   0.00000  Uiso   1.00
C710   C     0.76016   0.81456   0.38373   0.00000  Uiso   1.00
C711   C     0.83661   0.83314   0.16487   0.00000  Uiso   1.00
C712   C     0.73819   0.85978   0.37072   0.00000  Uiso   1.00
C713   C     0.91396   0.85100   0.38180   0.00000  Uiso   1.00
C714   C     0.94292   0.80922   0.38618   0.00000  Uiso   1.00
C715   C     0.84403   0.74153   0.11122   0.00000  Uiso   1.00
C716   C     0.88626   0.73077   0.13312   0.00000  Uiso   1.00
C717   C     0.83381   0.83342   0.33468   0.00000  Uiso   1.00
C718   C     0.80244   0.69136   0.22829   0.00000  Uiso   1.00
C719   C     0.86419   0.97529   0.27175   0.00000  Uiso   1.00
C720   C     0.86412   0.69087   0.27190   0.00000  Uiso   1.00
C721   C     0.80238   0.97581   0.22843   0.00000  Uiso   1.00
C722   C     0.68825   0.79163   0.25895   0.00000  Uiso   1.00
Cu723  Cu    0.83333   0.88022   0.25000   0.00000  Uiso   1.00
Cu724  Cu    0.83333   0.78645   0.25000   0.00000  Uiso   1.00
H725   H     0.85554   0.90568   0.02846   0.00000  Uiso   1.00
H726   H     0.79452   0.93022   0.12210   0.00000  Uiso   1.00
H727   H     0.82520   0.98019   0.13699   0.00000  Uiso   1.00
H728   H     0.87503   0.91868   0.14738   0.00000  Uiso   1.00
H729   H     0.88331   0.93984   0.09506   0.00000  Uiso   1.00
H730   H     0.73311   0.88115   0.40058   0.00000  Uiso   1.00
H731   H     0.75645   0.87989   0.34772   0.00000  Uiso   1.00
H732   H     0.70799   0.85199   0.35406   0.00000  Uiso   1.00
H733   H     0.76357   0.79242   0.35413   0.00000  Uiso   1.00
H734   H     0.74048   0.79503   0.40593   0.00000  Uiso   1.00
H735   H     0.95264   0.80321   0.42136   0.00000  Uiso   1.00
H736   H     0.77843   0.81618   0.47133   0.00000  Uiso   1.00
H737   H     0.92759   0.77769   0.37251   0.00000  Uiso   1.00
H738   H     0.97062   0.81562   0.36740   0.00000  Uiso   1.00
H739   H     0.90805   0.85780   0.34613   0.00000  Uiso   1.00
H740   H     0.92951   0.88222   0.39596   0.00000  Uiso   1.00
H741   H     0.89631   0.75839   0.15667   0.00000  Uiso   1.00
H742   H     0.88540   0.69744   0.15125   0.00000  Uiso   1.00
H743   H     0.90926   0.72765   0.10747   0.00000  Uiso   1.00
H744   H     0.81909   0.73629   0.13380   0.00000  Uiso   1.00
H745   H     0.83837   0.71463   0.08530   0.00000  Uiso   1.00
H746   H     0.72717   0.75599   0.29474   0.00000  Uiso   1.00
H747   H     0.90568   0.85048   0.46955   0.00000  Uiso   1.00
H748   H     0.93965   0.90946   0.20432   0.00000  Uiso   1.00
H749   H     0.94444   0.74670   0.22003   0.00000  Uiso   1.00
H750   H     0.72256   0.91928   0.28121   0.00000  Uiso   1.00
H751   H     0.83881   0.75967   0.02575   0.00000  Uiso   1.00
H752   H     0.78037   0.74192   0.19317   0.00000  Uiso   1.00
H753   H     0.88495   0.92590   0.30873   0.00000  Uiso   1.00
H754   H     0.88541   0.74124   0.30763   0.00000  Uiso   1.00
H755   H     0.78011   0.92492   0.19436   0.00000  Uiso   1.00
H756   H     0.81458   0.96530   0.07962   0.00000  Uiso   1.00
N757   N     0.83333   0.95069   0.25000   0.00000  Uiso   1.00
N758   N     0.83333   0.71598   0.25000   0.00000  Uiso   1.00
O759   O     0.77321   0.87291   0.25000   0.00000  Uiso   1.00
O760   O     0.89592   0.95373   0.29529   0.00000  Uiso   1.00
O761   O     0.89564   0.71179   0.29597   0.00000  Uiso   1.00
O762   O     0.77040   0.95493   0.20515   0.00000  Uiso   1.00
O763   O     0.70747   0.75007   0.26948   0.00000  Uiso   1.00
O764   O     0.95925   0.91611   0.22956   0.00000  Uiso   1.00
O765   O     0.96158   0.74766   0.24794   0.00000  Uiso   1.00
O766   O     0.70490   0.91895   0.25364   0.00000  Uiso   1.00
O767   O     0.89345   0.79375   0.25000   0.00000  Uiso   1.00
O768   O     0.89345   0.87291   0.25000   0.00000  Uiso   1.00
O769   O     0.77321   0.79375   0.25000   0.00000  Uiso   1.00
O770   O     0.83333   0.87293   0.18573   0.00000  Uiso   1.00
O771   O     0.83334   0.79374   0.31427   0.00000  Uiso   1.00
O772   O     0.83334   0.87293   0.31427   0.00000  Uiso   1.00
O773   O     0.83333   0.79374   0.18573   0.00000  Uiso   1.00
O774   O     0.77043   0.71274   0.20496   0.00000  Uiso   1.00
C775   C     0.08760   0.16691   0.75298   0.00000  Uiso   1.00
C776   C     0.31175   0.20816   0.74127   0.00000  Uiso   1.00
C777   C     0.31296   0.12393   0.75000   0.00000  Uiso   1.00
C778   C     0.02030   0.20929   0.75084   0.00000  Uiso   1.00
C779   C     0.18463   0.20713   0.54650   0.00000  Uiso   1.00
C780   C     0.13836   0.15683   0.95259   0.00000  Uiso   1.00
C781   C     0.21021   0.17658   0.95162   0.00000  Uiso   1.00
C782   C     0.17477   0.12468   0.54511   0.00000  Uiso   1.00
C783   C     0.18467   0.20782   0.59267   0.00000  Uiso   1.00
C784   C     0.13493   0.15722   0.90649   0.00000  Uiso   1.00
C785   C     0.20815   0.17607   0.90543   0.00000  Uiso   1.00
C786   C     0.24574   0.16640   0.74713   0.00000  Uiso   1.00
C787   C     0.17568   0.12314   0.59128   0.00000  Uiso   1.00
C788   C     0.17685   0.16583   0.61615   0.00000  Uiso   1.00
C789   C     0.17003   0.16699   0.88275   0.00000  Uiso   1.00
C790   C     0.17828   0.16629   0.52305   0.00000  Uiso   1.00
C791   C     0.17561   0.16680   0.97492   0.00000  Uiso   1.00
C792   C     0.29049   0.16587   0.74415   0.00000  Uiso   1.00
C793   C     0.04284   0.16732   0.75626   0.00000  Uiso   1.00
C794   C     0.19347   0.25464   0.61388   0.00000  Uiso   1.00
C795   C     0.15455   0.28438   0.61325   0.00000  Uiso   1.00
C796   C     0.09349   0.14789   0.88373   0.00000  Uiso   1.00
C797   C     0.16994   0.16647   0.66487   0.00000  Uiso   1.00
C798   C     0.07152   0.19311   0.87072   0.00000  Uiso   1.00
C799   C     0.24729   0.18433   0.88180   0.00000  Uiso   1.00
C800   C     0.27626   0.14256   0.88618   0.00000  Uiso   1.00
C801   C     0.17737   0.07486   0.61122   0.00000  Uiso   1.00
C802   C     0.21959   0.06410   0.63312   0.00000  Uiso   1.00
C803   C     0.16715   0.16675   0.83468   0.00000  Uiso   1.00
C804   C     0.13577   0.02469   0.72829   0.00000  Uiso   1.00
C805   C     0.19752   0.30862   0.77175   0.00000  Uiso   1.00
C806   C     0.19745   0.02421   0.77190   0.00000  Uiso   1.00
C807   C     0.13572   0.30915   0.72843   0.00000  Uiso   1.00
C808   C     0.02158   0.12496   0.75895   0.00000  Uiso   1.00
Cu809  Cu    0.16667   0.21355   0.75000   0.00000  Uiso   1.00
Cu810  Cu    0.16667   0.11978   0.75000   0.00000  Uiso   1.00
H811   H     0.18887   0.23902   0.52846   0.00000  Uiso   1.00
H812   H     0.12785   0.26356   0.62210   0.00000  Uiso   1.00
H813   H     0.15854   0.31352   0.63699   0.00000  Uiso   1.00
H814   H     0.20836   0.25201   0.64738   0.00000  Uiso   1.00
H815   H     0.21664   0.27317   0.59506   0.00000  Uiso   1.00
H816   H     0.06645   0.21448   0.90058   0.00000  Uiso   1.00
H817   H     0.08978   0.21322   0.84772   0.00000  Uiso   1.00
H818   H     0.04132   0.18532   0.85406   0.00000  Uiso   1.00
H819   H     0.09690   0.12575   0.85413   0.00000  Uiso   1.00
H820   H     0.07382   0.12837   0.90593   0.00000  Uiso   1.00
H821   H     0.28597   0.13655   0.92136   0.00000  Uiso   1.00
H822   H     0.11177   0.14951   0.97133   0.00000  Uiso   1.00
H823   H     0.26092   0.11102   0.87251   0.00000  Uiso   1.00
H824   H     0.30395   0.14895   0.86740   0.00000  Uiso   1.00
H825   H     0.24138   0.19113   0.84613   0.00000  Uiso   1.00
H826   H     0.26284   0.21555   0.89596   0.00000  Uiso   1.00
H827   H     0.22964   0.09172   0.65667   0.00000  Uiso   1.00
H828   H     0.21873   0.03078   0.65125   0.00000  Uiso   1.00
H829   H     0.24259   0.06098   0.60747   0.00000  Uiso   1.00
H830   H     0.15243   0.06962   0.63380   0.00000  Uiso   1.00
H831   H     0.17170   0.04797   0.58530   0.00000  Uiso   1.00
H832   H     0.06050   0.08933   0.79474   0.00000  Uiso   1.00
H833   H     0.23901   0.18381   0.96955   0.00000  Uiso   1.00
H834   H     0.27299   0.24280   0.70432   0.00000  Uiso   1.00
H835   H     0.27777   0.08003   0.72003   0.00000  Uiso   1.00
H836   H     0.05590   0.25262   0.78121   0.00000  Uiso   1.00
H837   H     0.17214   0.09300   0.52575   0.00000  Uiso   1.00
H838   H     0.11370   0.07525   0.69317   0.00000  Uiso   1.00
H839   H     0.21828   0.25923   0.80873   0.00000  Uiso   1.00
H840   H     0.21874   0.07457   0.80763   0.00000  Uiso   1.00
H841   H     0.11344   0.25825   0.69436   0.00000  Uiso   1.00
H842   H     0.14792   0.29863   0.57962   0.00000  Uiso   1.00
N843   N     0.16667   0.28402   0.75000   0.00000  Uiso   1.00
N844   N     0.16667   0.04931   0.75000   0.00000  Uiso   1.00
O845   O     0.10655   0.20625   0.75000   0.00000  Uiso   1.00
O846   O     0.22926   0.28707   0.79529   0.00000  Uiso   1.00
O847   O     0.22898   0.04513   0.79597   0.00000  Uiso   1.00
O848   O     0.10373   0.28827   0.70515   0.00000  Uiso   1.00
O849   O     0.04081   0.08340   0.76948   0.00000  Uiso   1.00
O850   O     0.29258   0.24944   0.72956   0.00000  Uiso   1.00
O851   O     0.29492   0.08099   0.74794   0.00000  Uiso   1.00
O852   O     0.03823   0.25228   0.75364   0.00000  Uiso   1.00
O853   O     0.22679   0.12709   0.75000   0.00000  Uiso   1.00
O854   O     0.22679   0.20625   0.75000   0.00000  Uiso   1.00
O855   O     0.10655   0.12709   0.75000   0.00000  Uiso   1.00
O856   O     0.16666   0.20626   0.68573   0.00000  Uiso   1.00
O857   O     0.16667   0.12707   0.81427   0.00000  Uiso   1.00
O858   O     0.16667   0.20626   0.81427   0.00000  Uiso   1.00
O859   O     0.16666   0.12707   0.68573   0.00000  Uiso   1.00
O860   O     0.10376   0.04607   0.70496   0.00000  Uiso   1.00
C861   C     0.42093   0.16691   0.75298   0.00000  Uiso   1.00
C862   C     0.64509   0.20816   0.74127   0.00000  Uiso   1.00
C863   C     0.64630   0.12393   0.75000   0.00000  Uiso   1.00
C864   C     0.35364   0.20929   0.75084   0.00000  Uiso   1.00
C865   C     0.51796   0.20713   0.54650   0.00000  Uiso   1.00
C866   C     0.47169   0.15683   0.95259   0.00000  Uiso   1.00
C867   C     0.54354   0.17658   0.95162   0.00000  Uiso   1.00
C868   C     0.50811   0.12468   0.54511   0.00000  Uiso   1.00
C869   C     0.51800   0.20782   0.59267   0.00000  Uiso   1.00
C870   C     0.46827   0.15722   0.90649   0.00000  Uiso   1.00
C871   C     0.54149   0.17607   0.90543   0.00000  Uiso   1.00
C872   C     0.57907   0.16640   0.74713   0.00000  Uiso   1.00
C873   C     0.50902   0.12314   0.59128   0.00000  Uiso   1.00
C874   C     0.51018   0.16583   0.61615   0.00000  Uiso   1.00
C875   C     0.50337   0.16699   0.88275   0.00000  Uiso   1.00
C876   C     0.51161   0.16629   0.52305   0.00000  Uiso   1.00
C877   C     0.50895   0.16680   0.97492   0.00000  Uiso   1.00
C878   C     0.62383   0.16587   0.74415   0.00000  Uiso   1.00
C879   C     0.37617   0.16732   0.75626   0.00000  Uiso   1.00
C880   C     0.52680   0.25464   0.61388   0.00000  Uiso   1.00
C881   C     0.48788   0.28438   0.61325   0.00000  Uiso   1.00
C882   C     0.42683   0.14789   0.88373   0.00000  Uiso   1.00
C883   C     0.50328   0.16647   0.66487   0.00000  Uiso   1.00
C884   C     0.40485   0.19311   0.87072   0.00000  Uiso   1.00
C885   C     0.58063   0.18433   0.88180   0.00000  Uiso   1.00
C886   C     0.60959   0.14256   0.88618   0.00000  Uiso   1.00
C887   C     0.51070   0.07486   0.61122   0.00000  Uiso   1.00
C888   C     0.55292   0.06410   0.63312   0.00000  Uiso   1.00
C889   C     0.50048   0.16675   0.83468   0.00000  Uiso   1.00
C890   C     0.46911   0.02469   0.72829   0.00000  Uiso   1.00
C891   C     0.53085   0.30862   0.77175   0.00000  Uiso   1.00
C892   C     0.53079   0.02421   0.77190   0.00000  Uiso   1.00
C893   C     0.46905   0.30915   0.72843   0.00000  Uiso   1.00
C894   C     0.35492   0.12496   0.75895   0.00000  Uiso   1.00
Cu895  Cu    0.50000   0.21355   0.75000   0.00000  Uiso   1.00
Cu896  Cu    0.50000   0.11978   0.75000   0.00000  Uiso   1.00
H897   H     0.52221   0.23902   0.52846   0.00000  Uiso   1.00
H898   H     0.46119   0.26356   0.62210   0.00000  Uiso   1.00
H899   H     0.49187   0.31352   0.63699   0.00000  Uiso   1.00
H900   H     0.54169   0.25201   0.64738   0.00000  Uiso   1.00
H901   H     0.54997   0.27317   0.59506   0.00000  Uiso   1.00
H902   H     0.39978   0.21448   0.90058   0.00000  Uiso   1.00
H903   H     0.42311   0.21322   0.84772   0.00000  Uiso   1.00
H904   H     0.37466   0.18532   0.85406   0.00000  Uiso   1.00
H905   H     0.43024   0.12575   0.85413   0.00000  Uiso   1.00
H906   H     0.40715   0.12837   0.90593   0.00000  Uiso   1.00
H907   H     0.61931   0.13655   0.92136   0.00000  Uiso   1.00
H908   H     0.44510   0.14951   0.97133   0.00000  Uiso   1.00
H909   H     0.59425   0.11102   0.87251   0.00000  Uiso   1.00
H910   H     0.63729   0.14895   0.86740   0.00000  Uiso   1.00
H911   H     0.57472   0.19113   0.84613   0.00000  Uiso   1.00
H912   H     0.59618   0.21555   0.89596   0.00000  Uiso   1.00
H913   H     0.56298   0.09172   0.65667   0.00000  Uiso   1.00
H914   H     0.55206   0.03078   0.65125   0.00000  Uiso   1.00
H915   H     0.57593   0.06098   0.60747   0.00000  Uiso   1.00
H916   H     0.48576   0.06962   0.63380   0.00000  Uiso   1.00
H917   H     0.50503   0.04797   0.58530   0.00000  Uiso   1.00
H918   H     0.39384   0.08933   0.79474   0.00000  Uiso   1.00
H919   H     0.57235   0.18381   0.96955   0.00000  Uiso   1.00
H920   H     0.60632   0.24280   0.70432   0.00000  Uiso   1.00
H921   H     0.61110   0.08003   0.72003   0.00000  Uiso   1.00
H922   H     0.38923   0.25262   0.78121   0.00000  Uiso   1.00
H923   H     0.50547   0.09300   0.52575   0.00000  Uiso   1.00
H924   H     0.44704   0.07525   0.69317   0.00000  Uiso   1.00
H925   H     0.55161   0.25923   0.80873   0.00000  Uiso   1.00
H926   H     0.55207   0.07457   0.80763   0.00000  Uiso   1.00
H927   H     0.44678   0.25825   0.69436   0.00000  Uiso   1.00
H928   H     0.48125   0.29863   0.57962   0.00000  Uiso   1.00
N929   N     0.50000   0.28402   0.75000   0.00000  Uiso   1.00
N930   N     0.50000   0.04931   0.75000   0.00000  Uiso   1.00
O931   O     0.43988   0.20625   0.75000   0.00000  Uiso   1.00
O932   O     0.56259   0.28707   0.79529   0.00000  Uiso   1.00
O933   O     0.56231   0.04513   0.79597   0.00000  Uiso   1.00
O934   O     0.43706   0.28827   0.70515   0.00000  Uiso   1.00
O935   O     0.37414   0.08340   0.76948   0.00000  Uiso   1.00
O936   O     0.62592   0.24944   0.72956   0.00000  Uiso   1.00
O937   O     0.62825   0.08099   0.74794   0.00000  Uiso   1.00
O938   O     0.37156   0.25228   0.75364   0.00000  Uiso   1.00
O939   O     0.56012   0.12709   0.75000   0.00000  Uiso   1.00
O940   O     0.56012   0.20625   0.75000   0.00000  Uiso   1.00
O941   O     0.43988   0.12709   0.75000   0.00000  Uiso   1.00
O942   O     0.50000   0.20626   0.68573   0.00000  Uiso   1.00
O943   O     0.50000   0.12707   0.81427   0.00000  Uiso   1.00
O944   O     0.50000   0.20626   0.81427   0.00000  Uiso   1.00
O945   O     0.50000   0.12707   0.68573   0.00000  Uiso   1.00
O946   O     0.43710   0.04607   0.70496   0.00000  Uiso   1.00
C947   C     0.75426   0.16691   0.75298   0.00000  Uiso   1.00
C948   C     0.97842   0.20816   0.74127   0.00000  Uiso   1.00
C949   C     0.97963   0.12393   0.75000   0.00000  Uiso   1.00
C950   C     0.68697   0.20929   0.75084   0.00000  Uiso   1.00
C951   C     0.85129   0.20713   0.54650   0.00000  Uiso   1.00
C952   C     0.80502   0.15683   0.95259   0.00000  Uiso   1.00
C953   C     0.87688   0.17658   0.95162   0.00000  Uiso   1.00
C954   C     0.84144   0.12468   0.54511   0.00000  Uiso   1.00
C955   C     0.85134   0.20782   0.59267   0.00000  Uiso   1.00
C956   C     0.80160   0.15722   0.90649   0.00000  Uiso   1.00
C957   C     0.87482   0.17607   0.90543   0.00000  Uiso   1.00
C958   C     0.91241   0.16640   0.74713   0.00000  Uiso   1.00
C959   C     0.84235   0.12314   0.59128   0.00000  Uiso   1.00
C960   C     0.84352   0.16583   0.61615   0.00000  Uiso   1.00
C961   C     0.83670   0.16699   0.88275   0.00000  Uiso   1.00
C962   C     0.84494   0.16629   0.52305   0.00000  Uiso   1.00
C963   C     0.84228   0.16680   0.97492   0.00000  Uiso   1.00
C964   C     0.95716   0.16587   0.74415   0.00000  Uiso   1.00
C965   C     0.70951   0.16732   0.75626   0.00000  Uiso   1.00
C966   C     0.86013   0.25464   0.61388   0.00000  Uiso   1.00
C967   C     0.82121   0.28438   0.61325   0.00000  Uiso   1.00
C968   C     0.76016   0.14789   0.88373   0.00000  Uiso   1.00
C969   C     0.83661   0.16647   0.66487   0.00000  Uiso   1.00
C970   C     0.73819   0.19311   0.87072   0.00000  Uiso   1.00
C971   C     0.91396   0.18433   0.88180   0.00000  Uiso   1.00
C972   C     0.94292   0.14256   0.88618   0.00000  Uiso   1.00
C973   C     0.84403   0.07486   0.61122   0.00000  Uiso   1.00
C974   C     0.88626   0.06410   0.63312   0.00000  Uiso   1.00
C975   C     0.83381   0.16675   0.83468   0.00000  Uiso   1.00
C976   C     0.80244   0.02469   0.72829   0.00000  Uiso   1.00
C977   C     0.86419   0.30862   0.77175   0.00000  Uiso   1.00
C978   C     0.86412   0.02421   0.77190   0.00000  Uiso   1.00
C979   C     0.80238   0.30915   0.72843   0.00000  Uiso   1.00
C980   C     0.68825   0.12496   0.75895   0.00000  Uiso   1.00
Cu981  Cu    0.83333   0.21355   0.75000   0.00000  Uiso   1.00
Cu982  Cu    0.83333   0.11978   0.75000   0.00000  Uiso   1.00
H983   H     0.85554   0.23902   0.52846   0.00000  Uiso   1.00
H984   H     0.79452   0.26356   0.62210   0.00000  Uiso   1.00
H985   H     0.82520   0.31352   0.63699   0.00000  Uiso   1.00
H986   H     0.87503   0.25201   0.64738   0.00000  Uiso   1.00
H987   H     0.88331   0.27317   0.59506   0.00000  Uiso   1.00
H988   H     0.73311   0.21448   0.90058   0.00000  Uiso   1.00
H989   H     0.75645   0.21322   0.84772   0.00000  Uiso   1.00
H990   H     0.70799   0.18532   0.85406   0.00000  Uiso   1.00
H991   H     0.76357   0.12575   0.85413   0.00000  Uiso   1.00
H992   H     0.74048   0.12837   0.90593   0.00000  Uiso   1.00
H993   H     0.95264   0.13655   0.92136   0.00000  Uiso   1.00
H994   H     0.77843   0.14951   0.97133   0.00000  Uiso   1.00
H995   H     0.92759   0.11102   0.87251   0.00000  Uiso   1.00
H996   H     0.97062   0.14895   0.86740   0.00000  Uiso   1.00
H997   H     0.90805   0.19113   0.84613   0.00000  Uiso   1.00
H998   H     0.92951   0.21555   0.89596   0.00000  Uiso   1.00
H999   H     0.89631   0.09172   0.65667   0.00000  Uiso   1.00
H1000  H     0.88540   0.03078   0.65125   0.00000  Uiso   1.00
H1001  H     0.90926   0.06098   0.60747   0.00000  Uiso   1.00
H1002  H     0.81909   0.06962   0.63380   0.00000  Uiso   1.00
H1003  H     0.83837   0.04797   0.58530   0.00000  Uiso   1.00
H1004  H     0.72717   0.08933   0.79474   0.00000  Uiso   1.00
H1005  H     0.90568   0.18381   0.96955   0.00000  Uiso   1.00
H1006  H     0.93965   0.24280   0.70432   0.00000  Uiso   1.00
H1007  H     0.94444   0.08003   0.72003   0.00000  Uiso   1.00
H1008  H     0.72256   0.25262   0.78121   0.00000  Uiso   1.00
H1009  H     0.83881   0.09300   0.52575   0.00000  Uiso   1.00
H1010  H     0.78037   0.07525   0.69317   0.00000  Uiso   1.00
H1011  H     0.88495   0.25923   0.80873   0.00000  Uiso   1.00
H1012  H     0.88541   0.07457   0.80763   0.00000  Uiso   1.00
H1013  H     0.78011   0.25825   0.69436   0.00000  Uiso   1.00
H1014  H     0.81458   0.29863   0.57962   0.00000  Uiso   1.00
N1015  N     0.83333   0.28402   0.75000   0.00000  Uiso   1.00
N1016  N     0.83333   0.04931   0.75000   0.00000  Uiso   1.00
O1017  O     0.77321   0.20625   0.75000   0.00000  Uiso   1.00
O1018  O     0.89592   0.28707   0.79529   0.00000  Uiso   1.00
O1019  O     0.89564   0.04513   0.79597   0.00000  Uiso   1.00
O1020  O     0.77040   0.28827   0.70515   0.00000  Uiso   1.00
O1021  O     0.70747   0.08340   0.76948   0.00000  Uiso   1.00
O1022  O     0.95925   0.24944   0.72956   0.00000  Uiso   1.00
O1023  O     0.96158   0.08099   0.74794   0.00000  Uiso   1.00
O1024  O     0.70490   0.25228   0.75364   0.00000  Uiso   1.00
O1025  O     0.89345   0.12709   0.75000   0.00000  Uiso   1.00
O1026  O     0.89345   0.20625   0.75000   0.00000  Uiso   1.00
O1027  O     0.77321   0.12709   0.75000   0.00000  Uiso   1.00
O1028  O     0.83333   0.20626   0.68573   0.00000  Uiso   1.00
O1029  O     0.83334   0.12707   0.81427   0.00000  Uiso   1.00
O1030  O     0.83334   0.20626   0.81427   0.00000  Uiso   1.00
O1031  O     0.83333   0.12707   0.68573   0.00000  Uiso   1.00
O1032  O     0.77043   0.04607   0.70496   0.00000  Uiso   1.00
C1033  C     0.08760   0.50024   0.75298   0.00000  Uiso   1.00
C1034  C     0.31175   0.54149   0.74127   0.00000  Uiso   1.00
C1035  C     0.31296   0.45726   0.75000   0.00000  Uiso   1.00
C1036  C     0.02030   0.54262   0.75084   0.00000  Uiso   1.00
C1037  C     0.18463   0.54047   0.54650   0.00000  Uiso   1.00
C1038  C     0.13836   0.49016   0.95259   0.00000  Uiso   1.00
C1039  C     0.21021   0.50991   0.95162   0.00000  Uiso   1.00
C1040  C     0.17477   0.45801   0.54511   0.00000  Uiso   1.00
C1041  C     0.18467   0.54115   0.59267   0.00000  Uiso   1.00
C1042  C     0.13493   0.49055   0.90649   0.00000  Uiso   1.00
C1043  C     0.20815   0.50940   0.90543   0.00000  Uiso   1.00
C1044  C     0.24574   0.49973   0.74713   0.00000  Uiso   1.00
C1045  C     0.17568   0.45648   0.59128   0.00000  Uiso   1.00
C1046  C     0.17685   0.49917   0.61615   0.00000  Uiso   1.00
C1047  C     0.17003   0.50032   0.88275   0.00000  Uiso   1.00
C1048  C     0.17828   0.49962   0.52305   0.00000  Uiso   1.00
C1049  C     0.17561   0.50013   0.97492   0.00000  Uiso   1.00
C1050  C     0.29049   0.49920   0.74415   0.00000  Uiso   1.00
C1051  C     0.04284   0.50065   0.75626   0.00000  Uiso   1.00
C1052  C     0.19347   0.58797   0.61388   0.00000  Uiso   1.00
C1053  C     0.15455   0.61772   0.61325   0.00000  Uiso   1.00
C1054  C     0.09349   0.48123   0.88373   0.00000  Uiso   1.00
C1055  C     0.16994   0.49981   0.66487   0.00000  Uiso   1.00
C1056  C     0.07152   0.52644   0.87072   0.00000  Uiso   1.00
C1057  C     0.24729   0.51767   0.88180   0.00000  Uiso   1.00
C1058  C     0.27626   0.47589   0.88618   0.00000  Uiso   1.00
C1059  C     0.17737   0.40820   0.61122   0.00000  Uiso   1.00
C1060  C     0.21959   0.39744   0.63312   0.00000  Uiso   1.00
C1061  C     0.16715   0.50008   0.83468   0.00000  Uiso   1.00
C1062  C     0.13577   0.35803   0.72829   0.00000  Uiso   1.00
C1063  C     0.19752   0.64196   0.77175   0.00000  Uiso   1.00
C1064  C     0.19745   0.35754   0.77190   0.00000  Uiso   1.00
C1065  C     0.13572   0.64248   0.72843   0.00000  Uiso   1.00
C1066  C     0.02158   0.45830   0.75895   0.00000  Uiso   1.00
Cu1067 Cu    0.16667   0.54689   0.75000   0.00000  Uiso   1.00
Cu1068 Cu    0.16667   0.45311   0.75000   0.00000  Uiso   1.00
H1069  H     0.18887   0.57235   0.52846   0.00000  Uiso   1.00
H1070  H     0.12785   0.59689   0.62210   0.00000  Uiso   1.00
H1071  H     0.15854   0.64686   0.63699   0.00000  Uiso   1.00
H1072  H     0.20836   0.58535   0.64738   0.00000  Uiso   1.00
H1073  H     0.21664   0.60650   0.59506   0.00000  Uiso   1.00
H1074  H     0.06645   0.54782   0.90058   0.00000  Uiso   1.00
H1075  H     0.08978   0.54656   0.84772   0.00000  Uiso   1.00
H1076  H     0.04132   0.51865   0.85406   0.00000  Uiso   1.00
H1077  H     0.09690   0.45908   0.85413   0.00000  Uiso   1.00
H1078  H     0.07382   0.46170   0.90593   0.00000  Uiso   1.00
H1079  H     0.28597   0.46988   0.92136   0.00000  Uiso   1.00
H1080  H     0.11177   0.48285   0.97133   0.00000  Uiso   1.00
H1081  H     0.26092   0.44436   0.87251   0.00000  Uiso   1.00
H1082  H     0.30395   0.48229   0.86740   0.00000  Uiso   1.00
H1083  H     0.24138   0.52447   0.84613   0.00000  Uiso   1.00
H1084  H     0.26284   0.54889   0.89596   0.00000  Uiso   1.00
H1085  H     0.22964   0.42505   0.65667   0.00000  Uiso   1.00
H1086  H     0.21873   0.36411   0.65125   0.00000  Uiso   1.00
H1087  H     0.24259   0.39432   0.60747   0.00000  Uiso   1.00
H1088  H     0.15243   0.40295   0.63380   0.00000  Uiso   1.00
H1089  H     0.17170   0.38130   0.58530   0.00000  Uiso   1.00
H1090  H     0.06050   0.42266   0.79474   0.00000  Uiso   1.00
H1091  H     0.23901   0.51715   0.96955   0.00000  Uiso   1.00
H1092  H     0.27299   0.57613   0.70432   0.00000  Uiso   1.00
H1093  H     0.27777   0.41336   0.72003   0.00000  Uiso   1.00
H1094  H     0.05590   0.58595   0.78121   0.00000  Uiso   1.00
H1095  H     0.17214   0.42634   0.52575   0.00000  Uiso   1.00
H1096  H     0.11370   0.40858   0.69317   0.00000  Uiso   1.00
H1097  H     0.21828   0.59256   0.80873   0.00000  Uiso   1.00
H1098  H     0.21874   0.40790   0.80763   0.00000  Uiso   1.00
H1099  H     0.11344   0.59158   0.69436   0.00000  Uiso   1.00
H1100  H     0.14792   0.63196   0.57962   0.00000  Uiso   1.00
N1101  N     0.16667   0.61736   0.75000   0.00000  Uiso   1.00
N1102  N     0.16667   0.38264   0.75000   0.00000  Uiso   1.00
O1103  O     0.10655   0.53958   0.75000   0.00000  Uiso   1.00
O1104  O     0.22926   0.62040   0.79529   0.00000  Uiso   1.00
O1105  O     0.22898   0.37846   0.79597   0.00000  Uiso   1.00
O1106  O     0.10373   0.62160   0.70515   0.00000  Uiso   1.00
O1107  O     0.04081   0.41674   0.76948   0.00000  Uiso   1.00
O1108  O     0.29258   0.58278   0.72956   0.00000  Uiso   1.00
O1109  O     0.29492   0.41432   0.74794   0.00000  Uiso   1.00
O1110  O     0.03823   0.58561   0.75364   0.00000  Uiso   1.00
O1111  O     0.22679   0.46042   0.75000   0.00000  Uiso   1.00
O1112  O     0.22679   0.53958   0.75000   0.00000  Uiso   1.00
O1113  O     0.10655   0.46042   0.75000   0.00000  Uiso   1.00
O1114  O     0.16666   0.53959   0.68573   0.00000  Uiso   1.00
O1115  O     0.16667   0.46041   0.81427   0.00000  Uiso   1.00
O1116  O     0.16667   0.53959   0.81427   0.00000  Uiso   1.00
O1117  O     0.16666   0.46041   0.68573   0.00000  Uiso   1.00
O1118  O     0.10376   0.37940   0.70496   0.00000  Uiso   1.00
C1119  C     0.42093   0.50024   0.75298   0.00000  Uiso   1.00
C1120  C     0.64509   0.54149   0.74127   0.00000  Uiso   1.00
C1121  C     0.64630   0.45726   0.75000   0.00000  Uiso   1.00
C1122  C     0.35364   0.54262   0.75084   0.00000  Uiso   1.00
C1123  C     0.51796   0.54047   0.54650   0.00000  Uiso   1.00
C1124  C     0.47169   0.49016   0.95259   0.00000  Uiso   1.00
C1125  C     0.54354   0.50991   0.95162   0.00000  Uiso   1.00
C1126  C     0.50811   0.45801   0.54511   0.00000  Uiso   1.00
C1127  C     0.51800   0.54115   0.59267   0.00000  Uiso   1.00
C1128  C     0.46827   0.49055   0.90649   0.00000  Uiso   1.00
C1129  C     0.54149   0.50940   0.90543   0.00000  Uiso   1.00
C1130  C     0.57907   0.49973   0.74713   0.00000  Uiso   1.00
C1131  C     0.50902   0.45648   0.59128   0.00000  Uiso   1.00
C1132  C     0.51018   0.49917   0.61615   0.00000  Uiso   1.00
C1133  C     0.50337   0.50032   0.88275   0.00000  Uiso   1.00
C1134  C     0.51161   0.49962   0.52305   0.00000  Uiso   1.00
C1135  C     0.50895   0.50013   0.97492   0.00000  Uiso   1.00
C1136  C     0.62383   0.49920   0.74415   0.00000  Uiso   1.00
C1137  C     0.37617   0.50065   0.75626   0.00000  Uiso   1.00
C1138  C     0.52680   0.58797   0.61388   0.00000  Uiso   1.00
C1139  C     0.48788   0.61772   0.61325   0.00000  Uiso   1.00
C1140  C     0.42683   0.48123   0.88373   0.00000  Uiso   1.00
C1141  C     0.50328   0.49981   0.66487   0.00000  Uiso   1.00
C1142  C     0.40485   0.52644   0.87072   0.00000  Uiso   1.00
C1143  C     0.58063   0.51767   0.88180   0.00000  Uiso   1.00
C1144  C     0.60959   0.47589   0.88618   0.00000  Uiso   1.00
C1145  C     0.51070   0.40820   0.61122   0.00000  Uiso   1.00
C1146  C     0.55292   0.39744   0.63312   0.00000  Uiso   1.00
C1147  C     0.50048   0.50008   0.83468   0.00000  Uiso   1.00
C1148  C     0.46911   0.35803   0.72829   0.00000  Uiso   1.00
C1149  C     0.53085   0.64196   0.77175   0.00000  Uiso   1.00
C1150  C     0.53079   0.35754   0.77190   0.00000  Uiso   1.00
C1151  C     0.46905   0.64248   0.72843   0.00000  Uiso   1.00
C1152  C     0.35492   0.45830   0.75895   0.00000  Uiso   1.00
Cu1153 Cu    0.50000   0.54689   0.75000   0.00000  Uiso   1.00
Cu1154 Cu    0.50000   0.45311   0.75000   0.00000  Uiso   1.00
H1155  H     0.52221   0.57235   0.52846   0.00000  Uiso   1.00
H1156  H     0.46119   0.59689   0.62210   0.00000  Uiso   1.00
H1157  H     0.49187   0.64686   0.63699   0.00000  Uiso   1.00
H1158  H     0.54169   0.58535   0.64738   0.00000  Uiso   1.00
H1159  H     0.54997   0.60650   0.59506   0.00000  Uiso   1.00
H1160  H     0.39978   0.54782   0.90058   0.00000  Uiso   1.00
H1161  H     0.42311   0.54656   0.84772   0.00000  Uiso   1.00
H1162  H     0.37466   0.51865   0.85406   0.00000  Uiso   1.00
H1163  H     0.43024   0.45908   0.85413   0.00000  Uiso   1.00
H1164  H     0.40715   0.46170   0.90593   0.00000  Uiso   1.00
H1165  H     0.61931   0.46988   0.92136   0.00000  Uiso   1.00
H1166  H     0.44510   0.48285   0.97133   0.00000  Uiso   1.00
H1167  H     0.59425   0.44436   0.87251   0.00000  Uiso   1.00
H1168  H     0.63729   0.48229   0.86740   0.00000  Uiso   1.00
H1169  H     0.57472   0.52447   0.84613   0.00000  Uiso   1.00
H1170  H     0.59618   0.54889   0.89596   0.00000  Uiso   1.00
H1171  H     0.56298   0.42505   0.65667   0.00000  Uiso   1.00
H1172  H     0.55206   0.36411   0.65125   0.00000  Uiso   1.00
H1173  H     0.57593   0.39432   0.60747   0.00000  Uiso   1.00
H1174  H     0.48576   0.40295   0.63380   0.00000  Uiso   1.00
H1175  H     0.50503   0.38130   0.58530   0.00000  Uiso   1.00
H1176  H     0.39384   0.42266   0.79474   0.00000  Uiso   1.00
H1177  H     0.57235   0.51715   0.96955   0.00000  Uiso   1.00
H1178  H     0.60632   0.57613   0.70432   0.00000  Uiso   1.00
H1179  H     0.61110   0.41336   0.72003   0.00000  Uiso   1.00
H1180  H     0.38923   0.58595   0.78121   0.00000  Uiso   1.00
H1181  H     0.50547   0.42634   0.52575   0.00000  Uiso   1.00
H1182  H     0.44704   0.40858   0.69317   0.00000  Uiso   1.00
H1183  H     0.55161   0.59256   0.80873   0.00000  Uiso   1.00
H1184  H     0.55207   0.40790   0.80763   0.00000  Uiso   1.00
H1185  H     0.44678   0.59158   0.69436   0.00000  Uiso   1.00
H1186  H     0.48125   0.63196   0.57962   0.00000  Uiso   1.00
N1187  N     0.50000   0.61736   0.75000   0.00000  Uiso   1.00
N1188  N     0.50000   0.38264   0.75000   0.00000  Uiso   1.00
O1189  O     0.43988   0.53958   0.75000   0.00000  Uiso   1.00
O1190  O     0.56259   0.62040   0.79529   0.00000  Uiso   1.00
O1191  O     0.56231   0.37846   0.79597   0.00000  Uiso   1.00
O1192  O     0.43706   0.62160   0.70515   0.00000  Uiso   1.00
O1193  O     0.37414   0.41674   0.76948   0.00000  Uiso   1.00
O1194  O     0.62592   0.58278   0.72956   0.00000  Uiso   1.00
O1195  O     0.62825   0.41432   0.74794   0.00000  Uiso   1.00
O1196  O     0.37156   0.58561   0.75364   0.00000  Uiso   1.00
O1197  O     0.56012   0.46042   0.75000   0.00000  Uiso   1.00
O1198  O     0.56012   0.53958   0.75000   0.00000  Uiso   1.00
O1199  O     0.43988   0.46042   0.75000   0.00000  Uiso   1.00
O1200  O     0.50000   0.53959   0.68573   0.00000  Uiso   1.00
O1201  O     0.50000   0.46041   0.81427   0.00000  Uiso   1.00
O1202  O     0.50000   0.53959   0.81427   0.00000  Uiso   1.00
O1203  O     0.50000   0.46041   0.68573   0.00000  Uiso   1.00
O1204  O     0.43710   0.37940   0.70496   0.00000  Uiso   1.00
C1205  C     0.75426   0.50024   0.75298   0.00000  Uiso   1.00
C1206  C     0.97842   0.54149   0.74127   0.00000  Uiso   1.00
C1207  C     0.97963   0.45726   0.75000   0.00000  Uiso   1.00
C1208  C     0.68697   0.54262   0.75084   0.00000  Uiso   1.00
C1209  C     0.85129   0.54047   0.54650   0.00000  Uiso   1.00
C1210  C     0.80502   0.49016   0.95259   0.00000  Uiso   1.00
C1211  C     0.87688   0.50991   0.95162   0.00000  Uiso   1.00
C1212  C     0.84144   0.45801   0.54511   0.00000  Uiso   1.00
C1213  C     0.85134   0.54115   0.59267   0.00000  Uiso   1.00
C1214  C     0.80160   0.49055   0.90649   0.00000  Uiso   1.00
C1215  C     0.87482   0.50940   0.90543   0.00000  Uiso   1.00
C1216  C     0.91241   0.49973   0.74713   0.00000  Uiso   1.00
C1217  C     0.84235   0.45648   0.59128   0.00000  Uiso   1.00
C1218  C     0.84352   0.49917   0.61615   0.00000  Uiso   1.00
C1219  C     0.83670   0.50032   0.88275   0.00000  Uiso   1.00
C1220  C     0.84494   0.49962   0.52305   0.00000  Uiso   1.00
C1221  C     0.84228   0.50013   0.97492   0.00000  Uiso   1.00
C1222  C     0.95716   0.49920   0.74415   0.00000  Uiso   1.00
C1223  C     0.70951   0.50065   0.75626   0.00000  Uiso   1.00
C1224  C     0.86013   0.58797   0.61388   0.00000  Uiso   1.00
C1225  C     0.82121   0.61772   0.61325   0.00000  Uiso   1.00
C1226  C     0.76016   0.48123   0.88373   0.00000  Uiso   1.00
C1227  C     0.83661   0.49981   0.66487   0.00000  Uiso   1.00
C1228  C     0.73819   0.52644   0.87072   0.00000  Uiso   1.00
C1229  C     0.91396   0.51767   0.88180   0.00000  Uiso   1.00
C1230  C     0.94292   0.47589   0.88618   0.00000  Uiso   1.00
C1231  C     0.84403   0.40820   0.61122   0.00000  Uiso   1.00
C1232  C     0.88626   0.39744   0.63312   0.00000  Uiso   1.00
C1233  C     0.83381   0.50008   0.83468   0.00000  Uiso   1.00
C1234  C     0.80244   0.35803   0.72829   0.00000  Uiso   1.00
C1235  C     0.86419   0.64196   0.77175   0.00000  Uiso   1.00
C1236  C     0.86412   0.35754   0.77190   0.00000  Uiso   1.00
C1237  C     0.80238   0.64248   0.72843   0.00000  Uiso   1.00
C1238  C     0.68825   0.45830   0.75895   0.00000  Uiso   1.00
Cu1239 Cu    0.83333   0.54689   0.75000   0.00000  Uiso   1.00
Cu1240 Cu    0.83333   0.45311   0.75000   0.00000  Uiso   1.00
H1241  H     0.85554   0.57235   0.52846   0.00000  Uiso   1.00
H1242  H     0.79452   0.59689   0.62210   0.00000  Uiso   1.00
H1243  H     0.82520   0.64686   0.63699   0.00000  Uiso   1.00
H1244  H     0.87503   0.58535   0.64738   0.00000  Uiso   1.00
H1245  H     0.88331   0.60650   0.59506   0.00000  Uiso   1.00
H1246  H     0.73311   0.54782   0.90058   0.00000  Uiso   1.00
H1247  H     0.75645   0.54656   0.84772   0.00000  Uiso   1.00
H1248  H     0.70799   0.51865   0.85406   0.00000  Uiso   1.00
H1249  H     0.76357   0.45908   0.85413   0.00000  Uiso   1.00
H1250  H     0.74048   0.46170   0.90593   0.00000  Uiso   1.00
H1251  H     0.95264   0.46988   0.92136   0.00000  Uiso   1.00
H1252  H     0.77843   0.48285   0.97133   0.00000  Uiso   1.00
H1253  H     0.92759   0.44436   0.87251   0.00000  Uiso   1.00
H1254  H     0.97062   0.48229   0.86740   0.00000  Uiso   1.00
H1255  H     0.90805   0.52447   0.84613   0.00000  Uiso   1.00
H1256  H     0.92951   0.54889   0.89596   0.00000  Uiso   1.00
H1257  H     0.89631   0.42505   0.65667   0.00000  Uiso   1.00
H1258  H     0.88540   0.36411   0.65125   0.00000  Uiso   1.00
H1259  H     0.90926   0.39432   0.60747   0.00000  Uiso   1.00
H1260  H     0.81909   0.40295   0.63380   0.00000  Uiso   1.00
H1261  H     0.83837   0.38130   0.58530   0.00000  Uiso   1.00
H1262  H     0.72717   0.42266   0.79474   0.00000  Uiso   1.00
H1263  H     0.90568   0.51715   0.96955   0.00000  Uiso   1.00
H1264  H     0.93965   0.57613   0.70432   0.00000  Uiso   1.00
H1265  H     0.94444   0.41336   0.72003   0.00000  Uiso   1.00
H1266  H     0.72256   0.58595   0.78121   0.00000  Uiso   1.00
H1267  H     0.83881   0.42634   0.52575   0.00000  Uiso   1.00
H1268  H     0.78037   0.40858   0.69317   0.00000  Uiso   1.00
H1269  H     0.88495   0.59256   0.80873   0.00000  Uiso   1.00
H1270  H     0.88541   0.40790   0.80763   0.00000  Uiso   1.00
H1271  H     0.78011   0.59158   0.69436   0.00000  Uiso   1.00
H1272  H     0.81458   0.63196   0.57962   0.00000  Uiso   1.00
N1273  N     0.83333   0.61736   0.75000   0.00000  Uiso   1.00
N1274  N     0.83333   0.38264   0.75000   0.00000  Uiso   1.00
O1275  O     0.77321   0.53958   0.75000   0.00000  Uiso   1.00
O1276  O     0.89592   0.62040   0.79529   0.00000  Uiso   1.00
O1277  O     0.89564   0.37846   0.79597   0.00000  Uiso   1.00
O1278  O     0.77040   0.62160   0.70515   0.00000  Uiso   1.00
O1279  O     0.70747   0.41674   0.76948   0.00000  Uiso   1.00
O1280  O     0.95925   0.58278   0.72956   0.00000  Uiso   1.00
O1281  O     0.96158   0.41432   0.74794   0.00000  Uiso   1.00
O1282  O     0.70490   0.58561   0.75364   0.00000  Uiso   1.00
O1283  O     0.89345   0.46042   0.75000   0.00000  Uiso   1.00
O1284  O     0.89345   0.53958   0.75000   0.00000  Uiso   1.00
O1285  O     0.77321   0.46042   0.75000   0.00000  Uiso   1.00
O1286  O     0.83333   0.53959   0.68573   0.00000  Uiso   1.00
O1287  O     0.83334   0.46041   0.81427   0.00000  Uiso   1.00
O1288  O     0.83334   0.53959   0.81427   0.00000  Uiso   1.00
O1289  O     0.83333   0.46041   0.68573   0.00000  Uiso   1.00
O1290  O     0.77043   0.37940   0.70496   0.00000  Uiso   1.00
C1291  C     0.08760   0.83358   0.75298   0.00000  Uiso   1.00
C1292  C     0.31175   0.87483   0.74127   0.00000  Uiso   1.00
C1293  C     0.31296   0.79060   0.75000   0.00000  Uiso   1.00
C1294  C     0.02030   0.87595   0.75084   0.00000  Uiso   1.00
C1295  C     0.18463   0.87380   0.54650   0.00000  Uiso   1.00
C1296  C     0.13836   0.82349   0.95259   0.00000  Uiso   1.00
C1297  C     0.21021   0.84324   0.95162   0.00000  Uiso   1.00
C1298  C     0.17477   0.79134   0.54511   0.00000  Uiso   1.00
C1299  C     0.18467   0.87449   0.59267   0.00000  Uiso   1.00
C1300  C     0.13493   0.82389   0.90649   0.00000  Uiso   1.00
C1301  C     0.20815   0.84274   0.90543   0.00000  Uiso   1.00
C1302  C     0.24574   0.83306   0.74713   0.00000  Uiso   1.00
C1303  C     0.17568   0.78981   0.59128   0.00000  Uiso   1.00
C1304  C     0.17685   0.83250   0.61615   0.00000  Uiso   1.00
C1305  C     0.17003   0.83365   0.88275   0.00000  Uiso   1.00
C1306  C     0.17828   0.83295   0.52305   0.00000  Uiso   1.00
C1307  C     0.17561   0.83347   0.97492   0.00000  Uiso   1.00
C1308  C     0.29049   0.83253   0.74415   0.00000  Uiso   1.00
C1309  C     0.04284   0.83399   0.75626   0.00000  Uiso   1.00
C1310  C     0.19347   0.92130   0.61388   0.00000  Uiso   1.00
C1311  C     0.15455   0.95105   0.61325   0.00000  Uiso   1.00
C1312  C     0.09349   0.81456   0.88373   0.00000  Uiso   1.00
C1313  C     0.16994   0.83314   0.66487   0.00000  Uiso   1.00
C1314  C     0.07152   0.85978   0.87072   0.00000  Uiso   1.00
C1315  C     0.24729   0.85100   0.88180   0.00000  Uiso   1.00
C1316  C     0.27626   0.80922   0.88618   0.00000  Uiso   1.00
C1317  C     0.17737   0.74153   0.61122   0.00000  Uiso   1.00
C1318  C     0.21959   0.73077   0.63312   0.00000  Uiso   1.00
C1319  C     0.16715   0.83342   0.83468   0.00000  Uiso   1.00
C1320  C     0.13577   0.69136   0.72829   0.00000  Uiso   1.00
C1321  C     0.19752   0.97529   0.77175   0.00000  Uiso   1.00
C1322  C     0.19745   0.69087   0.77190   0.00000  Uiso   1.00
C1323  C     0.13572   0.97581   0.72843   0.00000  Uiso   1.00
C1324  C     0.02158   0.79163   0.75895   0.00000  Uiso   1.00
Cu1325 Cu    0.16667   0.88022   0.75000   0.00000  Uiso   1.00
Cu1326 Cu    0.16667   0.78645   0.75000   0.00000  Uiso   1.00
H1327  H     0.18887   0.90568   0.52846   0.00000  Uiso   1.00
H1328  H     0.12785   0.93022   0.62210   0.00000  Uiso   1.00
H1329  H     0.15854   0.98019   0.63699   0.00000  Uiso   1.00
H1330  H     0.20836   0.91868   0.64738   0.00000  Uiso   1.00
H1331  H     0.21664   0.93984   0.59506   0.00000  Uiso   1.00
H1332  H     0.06645   0.88115   0.90058   0.00000  Uiso   1.00
H1333  H     0.08978   0.87989   0.84772   0.00000  Uiso   1.00
H1334  H     0.04132   0.85199   0.85406   0.00000  Uiso   1.00
H1335  H     0.09690   0.79242   0.85413   0.00000  Uiso   1.00
H1336  H     0.07382   0.79503   0.90593   0.00000  Uiso   1.00
H1337  H     0.28597   0.80321   0.92136   0.00000  Uiso   1.00
H1338  H     0.11177   0.81618   0.97133   0.00000  Uiso   1.00
H1339  H     0.26092   0.77769   0.87251   0.00000  Uiso   1.00
H1340  H     0.30395   0.81562   0.86740   0.00000  Uiso   1.00
H1341  H     0.24138   0.85780   0.84613   0.00000  Uiso   1.00
H1342  H     0.26284   0.88222   0.89596   0.00000  Uiso   1.00
H1343  H     0.22964   0.75839   0.65667   0.00000  Uiso   1.00
H1344  H     0.21873   0.69744   0.65125   0.00000  Uiso   1.00
H1345  H     0.24259   0.72765   0.60747   0.00000  Uiso   1.00
H1346  H     0.15243   0.73629   0.63380   0.00000  Uiso   1.00
H1347  H     0.17170   0.71463   0.58530   0.00000  Uiso   1.00
H1348  H     0.06050   0.75599   0.79474   0.00000  Uiso   1.00
H1349  H     0.23901   0.85048   0.96955   0.00000  Uiso   1.00
H1350  H     0.27299   0.90946   0.70432   0.00000  Uiso   1.00
H1351  H     0.27777   0.74670   0.72003   0.00000  Uiso   1.00
H1352  H     0.05590   0.91928   0.78121   0.00000  Uiso   1.00
H1353  H     0.17214   0.75967   0.52575   0.00000  Uiso   1.00
H1354  H     0.11370   0.74192   0.69317   0.00000  Uiso   1.00
H1355  H     0.21828   0.92590   0.80873   0.00000  Uiso   1.00
H1356  H     0.21874   0.74124   0.80763   0.00000  Uiso   1.00
H1357  H     0.11344   0.92492   0.69436   0.00000  Uiso   1.00
H1358  H     0.14792   0.96530   0.57962   0.00000  Uiso   1.00
N1359  N     0.16667   0.95069   0.75000   0.00000  Uiso   1.00
N1360  N     0.16667   0.71598   0.75000   0.00000  Uiso   1.00
O1361  O     0.10655   0.87291   0.75000   0.00000  Uiso   1.00
O1362  O     0.22926   0.95373   0.79529   0.00000  Uiso   1.00
O1363  O     0.22898   0.71179   0.79597   0.00000  Uiso   1.00
O1364  O     0.10373   0.95493   0.70515   0.00000  Uiso   1.00
O1365  O     0.04081   0.75007   0.76948   0.00000  Uiso   1.00
O1366  O     0.29258   0.91611   0.72956   0.00000  Uiso   1.00
O1367  O     0.29492   0.74766   0.74794   0.00000  Uiso   1.00
O1368  O     0.03823   0.91895   0.75364   0.00000  Uiso   1.00
O1369  O     0.22679   0.79375   0.75000   0.00000  Uiso   1.00
O1370  O     0.22679   0.87291   0.75000   0.00000  Uiso   1.00
O1371  O     0.10655   0.79375   0.75000   0.00000  Uiso   1.00
O1372  O     0.16666   0.87293   0.68573   0.00000  Uiso   1.00
O1373  O     0.16667   0.79374   0.81427   0.00000  Uiso   1.00
O1374  O     0.16667   0.87293   0.81427   0.00000  Uiso   1.00
O1375  O     0.16666   0.79374   0.68573   0.00000  Uiso   1.00
O1376  O     0.10376   0.71274   0.70496   0.00000  Uiso   1.00
C1377  C     0.42093   0.83358   0.75298   0.00000  Uiso   1.00
C1378  C     0.64509   0.87483   0.74127   0.00000  Uiso   1.00
C1379  C     0.64630   0.79060   0.75000   0.00000  Uiso   1.00
C1380  C     0.35364   0.87595   0.75084   0.00000  Uiso   1.00
C1381  C     0.51796   0.87380   0.54650   0.00000  Uiso   1.00
C1382  C     0.47169   0.82349   0.95259   0.00000  Uiso   1.00
C1383  C     0.54354   0.84324   0.95162   0.00000  Uiso   1.00
C1384  C     0.50811   0.79134   0.54511   0.00000  Uiso   1.00
C1385  C     0.51800   0.87449   0.59267   0.00000  Uiso   1.00
C1386  C     0.46827   0.82389   0.90649   0.00000  Uiso   1.00
C1387  C     0.54149   0.84274   0.90543   0.00000  Uiso   1.00
C1388  C     0.57907   0.83306   0.74713   0.00000  Uiso   1.00
C1389  C     0.50902   0.78981   0.59128   0.00000  Uiso   1.00
C1390  C     0.51018   0.83250   0.61615   0.00000  Uiso   1.00
C1391  C     0.50337   0.83365   0.88275   0.00000  Uiso   1.00
C1392  C     0.51161   0.83295   0.52305   0.00000  Uiso   1.00
C1393  C     0.50895   0.83347   0.97492   0.00000  Uiso   1.00
C1394  C     0.62383   0.83253   0.74415   0.00000  Uiso   1.00
C1395  C     0.37617   0.83399   0.75626   0.00000  Uiso   1.00
C1396  C     0.52680   0.92130   0.61388   0.00000  Uiso   1.00
C1397  C     0.48788   0.95105   0.61325   0.00000  Uiso   1.00
C1398  C     0.42683   0.81456   0.88373   0.00000  Uiso   1.00
C1399  C     0.50328   0.83314   0.66487   0.00000  Uiso   1.00
C1400  C     0.40485   0.85978   0.87072   0.00000  Uiso   1.00
C1401  C     0.58063   0.85100   0.88180   0.00000  Uiso   1.00
C1402  C     0.60959   0.80922   0.88618   0.00000  Uiso   1.00
C1403  C     0.51070   0.74153   0.61122   0.00000  Uiso   1.00
C1404  C     0.55292   0.73077   0.63312   0.00000  Uiso   1.00
C1405  C     0.50048   0.83342   0.83468   0.00000  Uiso   1.00
C1406  C     0.46911   0.69136   0.72829   0.00000  Uiso   1.00
C1407  C     0.53085   0.97529   0.77175   0.00000  Uiso   1.00
C1408  C     0.53079   0.69087   0.77190   0.00000  Uiso   1.00
C1409  C     0.46905   0.97581   0.72843   0.00000  Uiso   1.00
C1410  C     0.35492   0.79163   0.75895   0.00000  Uiso   1.00
Cu1411 Cu    0.50000   0.88022   0.75000   0.00000  Uiso   1.00
Cu1412 Cu    0.50000   0.78645   0.75000   0.00000  Uiso   1.00
H1413  H     0.52221   0.90568   0.52846   0.00000  Uiso   1.00
H1414  H     0.46119   0.93022   0.62210   0.00000  Uiso   1.00
H1415  H     0.49187   0.98019   0.63699   0.00000  Uiso   1.00
H1416  H     0.54169   0.91868   0.64738   0.00000  Uiso   1.00
H1417  H     0.54997   0.93984   0.59506   0.00000  Uiso   1.00
H1418  H     0.39978   0.88115   0.90058   0.00000  Uiso   1.00
H1419  H     0.42311   0.87989   0.84772   0.00000  Uiso   1.00
H1420  H     0.37466   0.85199   0.85406   0.00000  Uiso   1.00
H1421  H     0.43024   0.79242   0.85413   0.00000  Uiso   1.00
H1422  H     0.40715   0.79503   0.90593   0.00000  Uiso   1.00
H1423  H     0.61931   0.80321   0.92136   0.00000  Uiso   1.00
H1424  H     0.44510   0.81618   0.97133   0.00000  Uiso   1.00
H1425  H     0.59425   0.77769   0.87251   0.00000  Uiso   1.00
H1426  H     0.63729   0.81562   0.86740   0.00000  Uiso   1.00
H1427  H     0.57472   0.85780   0.84613   0.00000  Uiso   1.00
H1428  H     0.59618   0.88222   0.89596   0.00000  Uiso   1.00
H1429  H     0.56298   0.75839   0.65667   0.00000  Uiso   1.00
H1430  H     0.55206   0.69744   0.65125   0.00000  Uiso   1.00
H1431  H     0.57593   0.72765   0.60747   0.00000  Uiso   1.00
H1432  H     0.48576   0.73629   0.63380   0.00000  Uiso   1.00
H1433  H     0.50503   0.71463   0.58530   0.00000  Uiso   1.00
H1434  H     0.39384   0.75599   0.79474   0.00000  Uiso   1.00
H1435  H     0.57235   0.85048   0.96955   0.00000  Uiso   1.00
H1436  H     0.60632   0.90946   0.70432   0.00000  Uiso   1.00
H1437  H     0.61110   0.74670   0.72003   0.00000  Uiso   1.00
H1438  H     0.38923   0.91928   0.78121   0.00000  Uiso   1.00
H1439  H     0.50547   0.75967   0.52575   0.00000  Uiso   1.00
H1440  H     0.44704   0.74192   0.69317   0.00000  Uiso   1.00
H1441  H     0.55161   0.92590   0.80873   0.00000  Uiso   1.00
H1442  H     0.55207   0.74124   0.80763   0.00000  Uiso   1.00
H1443  H     0.44678   0.92492   0.69436   0.00000  Uiso   1.00
H1444  H     0.48125   0.96530   0.57962   0.00000  Uiso   1.00
N1445  N     0.50000   0.95069   0.75000   0.00000  Uiso   1.00
N1446  N     0.50000   0.71598   0.75000   0.00000  Uiso   1.00
O1447  O     0.43988   0.87291   0.75000   0.00000  Uiso   1.00
O1448  O     0.56259   0.95373   0.79529   0.00000  Uiso   1.00
O1449  O     0.56231   0.71179   0.79597   0.00000  Uiso   1.00
O1450  O     0.43706   0.95493   0.70515   0.00000  Uiso   1.00
O1451  O     0.37414   0.75007   0.76948   0.00000  Uiso   1.00
O1452  O     0.62592   0.91611   0.72956   0.00000  Uiso   1.00
O1453  O     0.62825   0.74766   0.74794   0.00000  Uiso   1.00
O1454  O     0.37156   0.91895   0.75364   0.00000  Uiso   1.00
O1455  O     0.56012   0.79375   0.75000   0.00000  Uiso   1.00
O1456  O     0.56012   0.87291   0.75000   0.00000  Uiso   1.00
O1457  O     0.43988   0.79375   0.75000   0.00000  Uiso   1.00
O1458  O     0.50000   0.87293   0.68573   0.00000  Uiso   1.00
O1459  O     0.50000   0.79374   0.81427   0.00000  Uiso   1.00
O1460  O     0.50000   0.87293   0.81427   0.00000  Uiso   1.00
O1461  O     0.50000   0.79374   0.68573   0.00000  Uiso   1.00
O1462  O     0.43710   0.71274   0.70496   0.00000  Uiso   1.00
C1463  C     0.75426   0.83358   0.75298   0.00000  Uiso   1.00
C1464  C     0.97842   0.87483   0.74127   0.00000  Uiso   1.00
C1465  C     0.97963   0.79060   0.75000   0.00000  Uiso   1.00
C1466  C     0.68697   0.87595   0.75084   0.00000  Uiso   1.00
C1467  C     0.85129   0.87380   0.54650   0.00000  Uiso   1.00
C1468  C     0.80502   0.82349   0.95259   0.00000  Uiso   1.00
C1469  C     0.87688   0.84324   0.95162   0.00000  Uiso   1.00
C1470  C     0.84144   0.79134   0.54511   0.00000  Uiso   1.00
C1471  C     0.85134   0.87449   0.59267   0.00000  Uiso   1.00
C1472  C     0.80160   0.82389   0.90649   0.00000  Uiso   1.00
C1473  C     0.87482   0.84274   0.90543   0.00000  Uiso   1.00
C1474  C     0.91241   0.83306   0.74713   0.00000  Uiso   1.00
C1475  C     0.84235   0.78981   0.59128   0.00000  Uiso   1.00
C1476  C     0.84352   0.83250   0.61615   0.00000  Uiso   1.00
C1477  C     0.83670   0.83365   0.88275   0.00000  Uiso   1.00
C1478  C     0.84494   0.83295   0.52305   0.00000  Uiso   1.00
C1479  C     0.84228   0.83347   0.97492   0.00000  Uiso   1.00
C1480  C     0.95716   0.83253   0.74415   0.00000  Uiso   1.00
C1481  C     0.70951   0.83399   0.75626   0.00000  Uiso   1.00
C1482  C     0.86013   0.92130   0.61388   0.00000  Uiso   1.00
C1483  C     0.82121   0.95105   0.61325   0.00000  Uiso   1.00
C1484  C     0.76016   0.81456   0.88373   0.00000  Uiso   1.00
C1485  C     0.83661   0.83314   0.66487   0.00000  Uiso   1.00
C1486  C     0.73819   0.85978   0.87072   0.00000  Uiso   1.00
C1487  C     0.91396   0.85100   0.88180   0.00000  Uiso   1.00
C1488  C     0.94292   0.80922   0.88618   0.00000  Uiso   1.00
C1489  C     0.84403   0.74153   0.61122   0.00000  Uiso   1.00
C1490  C     0.88626   0.73077   0.63312   0.00000  Uiso   1.00
C1491  C     0.83381   0.83342   0.83468   0.00000  Uiso   1.00
C1492  C     0.80244   0.69136   0.72829   0.00000  Uiso   1.00
C1493  C     0.86419   0.97529   0.77175   0.00000  Uiso   1.00
C1494  C     0.86412   0.69087   0.77190   0.00000  Uiso   1.00
C1495  C     0.80238   0.97581   0.72843   0.00000  Uiso   1.00
C1496  C     0.68825   0.79163   0.75895   0.00000  Uiso   1.00
Cu1497 Cu    0.83333   0.88022   0.75000   0.00000  Uiso   1.00
Cu1498 Cu    0.83333   0.78645   0.75000   0.00000  Uiso   1.00
H1499  H     0.85554   0.90568   0.52846   0.00000  Uiso   1.00
H1500  H     0.79452   0.93022   0.62210   0.00000  Uiso   1.00
H1501  H     0.82520   0.98019   0.63699   0.00000  Uiso   1.00
H1502  H     0.87503   0.91868   0.64738   0.00000  Uiso   1.00
H1503  H     0.88331   0.93984   0.59506   0.00000  Uiso   1.00
H1504  H     0.73311   0.88115   0.90058   0.00000  Uiso   1.00
H1505  H     0.75645   0.87989   0.84772   0.00000  Uiso   1.00
H1506  H     0.70799   0.85199   0.85406   0.00000  Uiso   1.00
H1507  H     0.76357   0.79242   0.85413   0.00000  Uiso   1.00
H1508  H     0.74048   0.79503   0.90593   0.00000  Uiso   1.00
H1509  H     0.95264   0.80321   0.92136   0.00000  Uiso   1.00
H1510  H     0.77843   0.81618   0.97133   0.00000  Uiso   1.00
H1511  H     0.92759   0.77769   0.87251   0.00000  Uiso   1.00
H1512  H     0.97062   0.81562   0.86740   0.00000  Uiso   1.00
H1513  H     0.90805   0.85780   0.84613   0.00000  Uiso   1.00
H1514  H     0.92951   0.88222   0.89596   0.00000  Uiso   1.00
H1515  H     0.89631   0.75839   0.65667   0.00000  Uiso   1.00
H1516  H     0.88540   0.69744   0.65125   0.00000  Uiso   1.00
H1517  H     0.90926   0.72765   0.60747   0.00000  Uiso   1.00
H1518  H     0.81909   0.73629   0.63380   0.00000  Uiso   1.00
H1519  H     0.83837   0.71463   0.58530   0.00000  Uiso   1.00
H1520  H     0.72717   0.75599   0.79474   0.00000  Uiso   1.00
H1521  H     0.90568   0.85048   0.96955   0.00000  Uiso   1.00
H1522  H     0.93965   0.90946   0.70432   0.00000  Uiso   1.00
H1523  H     0.94444   0.74670   0.72003   0.00000  Uiso   1.00
H1524  H     0.72256   0.91928   0.78121   0.00000  Uiso   1.00
H1525  H     0.83881   0.75967   0.52575   0.00000  Uiso   1.00
H1526  H     0.78037   0.74192   0.69317   0.00000  Uiso   1.00
H1527  H     0.88495   0.92590   0.80873   0.00000  Uiso   1.00
H1528  H     0.88541   0.74124   0.80763   0.00000  Uiso   1.00
H1529  H     0.78011   0.92492   0.69436   0.00000  Uiso   1.00
H1530  H     0.81458   0.96530   0.57962   0.00000  Uiso   1.00
N1531  N     0.83333   0.95069   0.75000   0.00000  Uiso   1.00
N1532  N     0.83333   0.71598   0.75000   0.00000  Uiso   1.00
O1533  O     0.77321   0.87291   0.75000   0.00000  Uiso   1.00
O1534  O     0.89592   0.95373   0.79529   0.00000  Uiso   1.00
O1535  O     0.89564   0.71179   0.79597   0.00000  Uiso   1.00
O1536  O     0.77040   0.95493   0.70515   0.00000  Uiso   1.00
O1537  O     0.70747   0.75007   0.76948   0.00000  Uiso   1.00
O1538  O     0.95925   0.91611   0.72956   0.00000  Uiso   1.00
O1539  O     0.96158   0.74766   0.74794   0.00000  Uiso   1.00
O1540  O     0.70490   0.91895   0.75364   0.00000  Uiso   1.00
O1541  O     0.89345   0.79375   0.75000   0.00000  Uiso   1.00
O1542  O     0.89345   0.87291   0.75000   0.00000  Uiso   1.00
O1543  O     0.77321   0.79375   0.75000   0.00000  Uiso   1.00
O1544  O     0.83333   0.87293   0.68573   0.00000  Uiso   1.00
O1545  O     0.83334   0.79374   0.81427   0.00000  Uiso   1.00
O1546  O     0.83334   0.87293   0.81427   0.00000  Uiso   1.00
O1547  O     0.83333   0.79374   0.68573   0.00000  Uiso   1.00
O1548  O     0.77043   0.71274   0.70496   0.00000  Uiso   1.00
loop_
_geom_bond_atom_site_label_1
_geom_bond_atom_site_label_2
_geom_bond_distance
_geom_bond_site_symmetry_2
_ccdc_geom_bond_type
C1     O71     1.303   .     A
C1     O81     1.304   .     A
C1     C19     1.471   .     S
C2     C18     1.414   .     A
C2     O76     1.379   .     S
C2     C90     1.385   .     S
C3     C18     1.415   .     A
C3     O77     1.376   .     S
C3     C120    1.385   .     S
C4     O78     1.377   .     S
C4     C19     1.416   .     A
C4     C174    1.385   1_455 S
C5     H37     1.085   .     S
C5     C16     1.384   .     A
C5     C9      1.399   .     A
C6     H48     1.084   .     S
C6     C17     1.395   .     A
C6     C10     1.396   .     A
C7     C11     1.398   .     A
C7     H59     1.084   .     S
C7     C17     1.395   .     A
C8     C13     1.399   .     A
C8     C16     1.384   .     A
C8     H63     1.085   .     S
C9     C14     1.438   .     A
C9     C20     1.516   .     S
C10    C22     1.514   .     S
C10    C15     1.416   .     A
C11    C25     1.518   .     S
C11    C15     1.418   .     A
C12    O79     1.302   .     A
C12    O80     1.304   .     A
C12    C18     1.470   .     S
C13    C14     1.440   .     A
C13    C27     1.519   .     S
C14    C23     1.505   .     S
C15    C29     1.454   .     S
C16    C791    1.456   1_554 S
C17    C790    1.456   .     S
C19    C34     1.416   .     A
C20    H41     1.113   .     S
C20    H40     1.106   .     S
C20    C21     1.526   .     S
C21    H38     1.109   .     S
C21    H39     1.108   .     S
C21    H68     1.111   .     S
C22    H46     1.112   .     S
C22    C24     1.526   .     S
C22    H45     1.108   .     S
C23    O82     1.313   .     A
C23    O85     1.310   .     A
C24    H42     1.111   .     S
C24    H44     1.110   .     S
C24    H43     1.109   .     S
C25    C26     1.526   .     S
C25    H51     1.106   .     S
C25    H52     1.112   .     S
C26    H50     1.111   .     S
C26    H49     1.111   .     S
C26    H47     1.110   .     S
C27    H57     1.111   .     S
C27    H56     1.102   .     S
C27    C28     1.530   .     S
C28    H55     1.111   .     S
C28    H54     1.110   .     S
C28    H53     1.108   .     S
C29    O83     1.298   .     A
C29    O84     1.298   .     A
C30    O86     1.375   .     S
C30    N70     1.378   .     A
C30    C549    1.409   1_545 S
C31    O72     1.374   .     S
C31    N69     1.377   .     A
C31    C290    1.410   .     S
C32    O73     1.374   .     S
C32    N70     1.378   .     A
C32    C547    1.410   1_545 S
C33    N69     1.377   .     A
C33    O74     1.374   .     S
C33    C288    1.409   .     S
C34    O75     1.378   .     S
C34    C175    1.385   1_455 S
Cu35   Cu36    2.703   .     S
Cu35   O80     1.974   .     S
Cu35   O82     1.958   .     S
Cu35   O71     1.978   .     S
Cu35   O84     1.959   .     S
Cu35   N69     2.031   .     S
Cu36   O83     1.958   .     S
Cu36   N70     2.031   .     S
Cu36   O81     1.974   .     S
Cu36   O79     1.978   .     S
Cu36   O85     1.959   .     S
H58    O75     0.990   .     S
H60    O76     0.992   .     S
H61    O77     0.991   .     S
H62    O78     0.991   .     S
H64    O86     0.980   .     S
H65    O72     0.981   .     S
H66    O73     0.980   .     S
H67    O74     0.979   .     S
C87    O157    1.303   .     A
C87    O167    1.304   .     A
C87    C105    1.471   .     S
C88    C104    1.414   .     A
C88    O162    1.379   .     S
C88    C176    1.385   .     S
C89    C104    1.415   .     A
C89    O163    1.376   .     S
C89    C206    1.385   .     S
C90    O164    1.377   .     S
C90    C105    1.416   .     A
C91    H123    1.085   .     S
C91    C102    1.384   .     A
C91    C95     1.399   .     A
C92    H134    1.084   .     S
C92    C103    1.395   .     A
C92    C96     1.396   .     A
C93    C97     1.398   .     A
C93    H145    1.084   .     S
C93    C103    1.395   .     A
C94    C99     1.399   .     A
C94    C102    1.384   .     A
C94    H149    1.085   .     S
C95    C100    1.438   .     A
C95    C106    1.516   .     S
C96    C108    1.514   .     S
C96    C101    1.416   .     A
C97    C111    1.518   .     S
C97    C101    1.418   .     A
C98    O165    1.302   .     A
C98    O166    1.304   .     A
C98    C104    1.470   .     S
C99    C100    1.440   .     A
C99    C113    1.519   .     S
C100   C109    1.505   .     S
C101   C115    1.454   .     S
C102   C877    1.456   1_554 S
C103   C876    1.456   .     S
C105   C120    1.416   .     A
C106   H127    1.113   .     S
C106   H126    1.106   .     S
C106   C107    1.526   .     S
C107   H124    1.109   .     S
C107   H125    1.108   .     S
C107   H154    1.111   .     S
C108   H132    1.112   .     S
C108   C110    1.526   .     S
C108   H131    1.108   .     S
C109   O168    1.313   .     A
C109   O171    1.310   .     A
C110   H128    1.111   .     S
C110   H130    1.110   .     S
C110   H129    1.109   .     S
C111   C112    1.526   .     S
C111   H137    1.106   .     S
C111   H138    1.112   .     S
C112   H136    1.111   .     S
C112   H135    1.111   .     S
C112   H133    1.110   .     S
C113   H143    1.111   .     S
C113   H142    1.102   .     S
C113   C114    1.530   .     S
C114   H141    1.111   .     S
C114   H140    1.110   .     S
C114   H139    1.108   .     S
C115   O169    1.298   .     A
C115   O170    1.298   .     A
C116   O172    1.375   .     S
C116   N156    1.378   .     A
C116   C635    1.409   1_545 S
C117   O158    1.374   .     S
C117   N155    1.377   .     A
C117   C376    1.410   .     S
C118   O159    1.374   .     S
C118   N156    1.378   .     A
C118   C633    1.410   1_545 S
C119   N155    1.377   .     A
C119   O160    1.374   .     S
C119   C374    1.409   .     S
C120   O161    1.378   .     S
Cu121  Cu122   2.703   .     S
Cu121  O166    1.974   .     S
Cu121  O168    1.958   .     S
Cu121  O157    1.978   .     S
Cu121  O170    1.959   .     S
Cu121  N155    2.031   .     S
Cu122  O169    1.958   .     S
Cu122  N156    2.031   .     S
Cu122  O167    1.974   .     S
Cu122  O165    1.978   .     S
Cu122  O171    1.959   .     S
H144   O161    0.990   .     S
H146   O162    0.992   .     S
H147   O163    0.991   .     S
H148   O164    0.991   .     S
H150   O172    0.980   .     S
H151   O158    0.981   .     S
H152   O159    0.980   .     S
H153   O160    0.979   .     S
C173   O243    1.303   .     A
C173   O253    1.304   .     A
C173   C191    1.471   .     S
C174   C190    1.414   .     A
C174   O248    1.379   .     S
C174   C4      1.385   1_655 S
C175   C190    1.415   .     A
C175   O249    1.376   .     S
C175   C34     1.385   1_655 S
C176   O250    1.377   .     S
C176   C191    1.416   .     A
C177   H209    1.085   .     S
C177   C188    1.384   .     A
C177   C181    1.399   .     A
C178   H220    1.084   .     S
C178   C189    1.395   .     A
C178   C182    1.396   .     A
C179   C183    1.398   .     A
C179   H231    1.084   .     S
C179   C189    1.395   .     A
C180   C185    1.399   .     A
C180   C188    1.384   .     A
C180   H235    1.085   .     S
C181   C186    1.438   .     A
C181   C192    1.516   .     S
C182   C194    1.514   .     S
C182   C187    1.416   .     A
C183   C197    1.518   .     S
C183   C187    1.418   .     A
C184   O251    1.302   .     A
C184   O252    1.304   .     A
C184   C190    1.470   .     S
C185   C186    1.440   .     A
C185   C199    1.519   .     S
C186   C195    1.505   .     S
C187   C201    1.454   .     S
C188   C963    1.456   1_554 S
C189   C962    1.456   .     S
C191   C206    1.416   .     A
C192   H213    1.113   .     S
C192   H212    1.106   .     S
C192   C193    1.526   .     S
C193   H210    1.109   .     S
C193   H211    1.108   .     S
C193   H240    1.111   .     S
C194   H218    1.112   .     S
C194   C196    1.526   .     S
C194   H217    1.108   .     S
C195   O254    1.313   .     A
C195   O257    1.310   .     A
C196   H214    1.111   .     S
C196   H216    1.110   .     S
C196   H215    1.109   .     S
C197   C198    1.526   .     S
C197   H223    1.106   .     S
C197   H224    1.112   .     S
C198   H222    1.111   .     S
C198   H221    1.111   .     S
C198   H219    1.110   .     S
C199   H229    1.111   .     S
C199   H228    1.102   .     S
C199   C200    1.530   .     S
C200   H227    1.111   .     S
C200   H226    1.110   .     S
C200   H225    1.108   .     S
C201   O255    1.298   .     A
C201   O256    1.298   .     A
C202   O258    1.375   .     S
C202   N242    1.378   .     A
C202   C721    1.409   1_545 S
C203   O244    1.374   .     S
C203   N241    1.377   .     A
C203   C462    1.410   .     S
C204   O245    1.374   .     S
C204   N242    1.378   .     A
C204   C719    1.410   1_545 S
C205   N241    1.377   .     A
C205   O246    1.374   .     S
C205   C460    1.409   .     S
C206   O247    1.378   .     S
Cu207  Cu208   2.703   .     S
Cu207  O252    1.974   .     S
Cu207  O254    1.958   .     S
Cu207  O243    1.978   .     S
Cu207  O256    1.959   .     S
Cu207  N241    2.031   .     S
Cu208  O255    1.958   .     S
Cu208  N242    2.031   .     S
Cu208  O253    1.974   .     S
Cu208  O251    1.978   .     S
Cu208  O257    1.959   .     S
H230   O247    0.990   .     S
H232   O248    0.992   .     S
H233   O249    0.991   .     S
H234   O250    0.991   .     S
H236   O258    0.980   .     S
H237   O244    0.981   .     S
H238   O245    0.980   .     S
H239   O246    0.979   .     S
C259   O329    1.303   .     A
C259   O339    1.304   .     A
C259   C277    1.471   .     S
C260   C276    1.414   .     A
C260   O334    1.379   .     S
C260   C348    1.385   .     S
C261   C276    1.415   .     A
C261   O335    1.376   .     S
C261   C378    1.385   .     S
C262   O336    1.377   .     S
C262   C277    1.416   .     A
C262   C432    1.385   1_455 S
C263   H295    1.085   .     S
C263   C274    1.384   .     A
C263   C267    1.399   .     A
C264   H306    1.084   .     S
C264   C275    1.395   .     A
C264   C268    1.396   .     A
C265   C269    1.398   .     A
C265   H317    1.084   .     S
C265   C275    1.395   .     A
C266   C271    1.399   .     A
C266   C274    1.384   .     A
C266   H321    1.085   .     S
C267   C272    1.438   .     A
C267   C278    1.516   .     S
C268   C280    1.514   .     S
C268   C273    1.416   .     A
C269   C283    1.518   .     S
C269   C273    1.418   .     A
C270   O337    1.302   .     A
C270   O338    1.304   .     A
C270   C276    1.470   .     S
C271   C272    1.440   .     A
C271   C285    1.519   .     S
C272   C281    1.505   .     S
C273   C287    1.454   .     S
C274   C1049   1.456   1_554 S
C275   C1048   1.456   .     S
C277   C292    1.416   .     A
C278   H299    1.113   .     S
C278   H298    1.106   .     S
C278   C279    1.526   .     S
C279   H296    1.109   .     S
C279   H297    1.108   .     S
C279   H326    1.111   .     S
C280   H304    1.112   .     S
C280   C282    1.526   .     S
C280   H303    1.108   .     S
C281   O340    1.313   .     A
C281   O343    1.310   .     A
C282   H300    1.111   .     S
C282   H302    1.110   .     S
C282   H301    1.109   .     S
C283   C284    1.526   .     S
C283   H309    1.106   .     S
C283   H310    1.112   .     S
C284   H308    1.111   .     S
C284   H307    1.111   .     S
C284   H305    1.110   .     S
C285   H315    1.111   .     S
C285   H314    1.102   .     S
C285   C286    1.530   .     S
C286   H313    1.111   .     S
C286   H312    1.110   .     S
C286   H311    1.108   .     S
C287   O341    1.298   .     A
C287   O342    1.298   .     A
C288   O344    1.375   .     S
C288   N328    1.378   .     A
C289   O330    1.374   .     S
C289   N327    1.377   .     A
C289   C548    1.410   .     S
C290   O331    1.374   .     S
C290   N328    1.378   .     A
C291   N327    1.377   .     A
C291   O332    1.374   .     S
C291   C546    1.409   .     S
C292   O333    1.378   .     S
C292   C433    1.385   1_455 S
Cu293  Cu294   2.703   .     S
Cu293  O338    1.974   .     S
Cu293  O340    1.958   .     S
Cu293  O329    1.978   .     S
Cu293  O342    1.959   .     S
Cu293  N327    2.031   .     S
Cu294  O341    1.958   .     S
Cu294  N328    2.031   .     S
Cu294  O339    1.974   .     S
Cu294  O337    1.978   .     S
Cu294  O343    1.959   .     S
H316   O333    0.990   .     S
H318   O334    0.992   .     S
H319   O335    0.991   .     S
H320   O336    0.991   .     S
H322   O344    0.980   .     S
H323   O330    0.981   .     S
H324   O331    0.980   .     S
H325   O332    0.979   .     S
C345   O415    1.303   .     A
C345   O425    1.304   .     A
C345   C363    1.471   .     S
C346   C362    1.414   .     A
C346   O420    1.379   .     S
C346   C434    1.385   .     S
C347   C362    1.415   .     A
C347   O421    1.376   .     S
C347   C464    1.385   .     S
C348   O422    1.377   .     S
C348   C363    1.416   .     A
C349   H381    1.085   .     S
C349   C360    1.384   .     A
C349   C353    1.399   .     A
C350   H392    1.084   .     S
C350   C361    1.395   .     A
C350   C354    1.396   .     A
C351   C355    1.398   .     A
C351   H403    1.084   .     S
C351   C361    1.395   .     A
C352   C357    1.399   .     A
C352   C360    1.384   .     A
C352   H407    1.085   .     S
C353   C358    1.438   .     A
C353   C364    1.516   .     S
C354   C366    1.514   .     S
C354   C359    1.416   .     A
C355   C369    1.518   .     S
C355   C359    1.418   .     A
C356   O423    1.302   .     A
C356   O424    1.304   .     A
C356   C362    1.470   .     S
C357   C358    1.440   .     A
C357   C371    1.519   .     S
C358   C367    1.505   .     S
C359   C373    1.454   .     S
C360   C1135   1.456   1_554 S
C361   C1134   1.456   .     S
C363   C378    1.416   .     A
C364   H385    1.113   .     S
C364   H384    1.106   .     S
C364   C365    1.526   .     S
C365   H382    1.109   .     S
C365   H383    1.108   .     S
C365   H412    1.111   .     S
C366   H390    1.112   .     S
C366   C368    1.526   .     S
C366   H389    1.108   .     S
C367   O426    1.313   .     A
C367   O429    1.310   .     A
C368   H386    1.111   .     S
C368   H388    1.110   .     S
C368   H387    1.109   .     S
C369   C370    1.526   .     S
C369   H395    1.106   .     S
C369   H396    1.112   .     S
C370   H394    1.111   .     S
C370   H393    1.111   .     S
C370   H391    1.110   .     S
C371   H401    1.111   .     S
C371   H400    1.102   .     S
C371   C372    1.530   .     S
C372   H399    1.111   .     S
C372   H398    1.110   .     S
C372   H397    1.108   .     S
C373   O427    1.298   .     A
C373   O428    1.298   .     A
C374   O430    1.375   .     S
C374   N414    1.378   .     A
C375   O416    1.374   .     S
C375   N413    1.377   .     A
C375   C634    1.410   .     S
C376   O417    1.374   .     S
C376   N414    1.378   .     A
C377   N413    1.377   .     A
C377   O418    1.374   .     S
C377   C632    1.409   .     S
C378   O419    1.378   .     S
Cu379  Cu380   2.703   .     S
Cu379  O424    1.974   .     S
Cu379  O426    1.958   .     S
Cu379  O415    1.978   .     S
Cu379  O428    1.959   .     S
Cu379  N413    2.031   .     S
Cu380  O427    1.958   .     S
Cu380  N414    2.031   .     S
Cu380  O425    1.974   .     S
Cu380  O423    1.978   .     S
Cu380  O429    1.959   .     S
H402   O419    0.990   .     S
H404   O420    0.992   .     S
H405   O421    0.991   .     S
H406   O422    0.991   .     S
H408   O430    0.980   .     S
H409   O416    0.981   .     S
H410   O417    0.980   .     S
H411   O418    0.979   .     S
C431   O501    1.303   .     A
C431   O511    1.304   .     A
C431   C449    1.471   .     S
C432   C448    1.414   .     A
C432   O506    1.379   .     S
C432   C262    1.385   1_655 S
C433   C448    1.415   .     A
C433   O507    1.376   .     S
C433   C292    1.385   1_655 S
C434   O508    1.377   .     S
C434   C449    1.416   .     A
C435   H467    1.085   .     S
C435   C446    1.384   .     A
C435   C439    1.399   .     A
C436   H478    1.084   .     S
C436   C447    1.395   .     A
C436   C440    1.396   .     A
C437   C441    1.398   .     A
C437   H489    1.084   .     S
C437   C447    1.395   .     A
C438   C443    1.399   .     A
C438   C446    1.384   .     A
C438   H493    1.085   .     S
C439   C444    1.438   .     A
C439   C450    1.516   .     S
C440   C452    1.514   .     S
C440   C445    1.416   .     A
C441   C455    1.518   .     S
C441   C445    1.418   .     A
C442   O509    1.302   .     A
C442   O510    1.304   .     A
C442   C448    1.470   .     S
C443   C444    1.440   .     A
C443   C457    1.519   .     S
C444   C453    1.505   .     S
C445   C459    1.454   .     S
C446   C1221   1.456   1_554 S
C447   C1220   1.456   .     S
C449   C464    1.416   .     A
C450   H471    1.113   .     S
C450   H470    1.106   .     S
C450   C451    1.526   .     S
C451   H468    1.109   .     S
C451   H469    1.108   .     S
C451   H498    1.111   .     S
C452   H476    1.112   .     S
C452   C454    1.526   .     S
C452   H475    1.108   .     S
C453   O512    1.313   .     A
C453   O515    1.310   .     A
C454   H472    1.111   .     S
C454   H474    1.110   .     S
C454   H473    1.109   .     S
C455   C456    1.526   .     S
C455   H481    1.106   .     S
C455   H482    1.112   .     S
C456   H480    1.111   .     S
C456   H479    1.111   .     S
C456   H477    1.110   .     S
C457   H487    1.111   .     S
C457   H486    1.102   .     S
C457   C458    1.530   .     S
C458   H485    1.111   .     S
C458   H484    1.110   .     S
C458   H483    1.108   .     S
C459   O513    1.298   .     A
C459   O514    1.298   .     A
C460   O516    1.375   .     S
C460   N500    1.378   .     A
C461   O502    1.374   .     S
C461   N499    1.377   .     A
C461   C720    1.410   .     S
C462   O503    1.374   .     S
C462   N500    1.378   .     A
C463   N499    1.377   .     A
C463   O504    1.374   .     S
C463   C718    1.409   .     S
C464   O505    1.378   .     S
Cu465  Cu466   2.703   .     S
Cu465  O510    1.974   .     S
Cu465  O512    1.958   .     S
Cu465  O501    1.978   .     S
Cu465  O514    1.959   .     S
Cu465  N499    2.031   .     S
Cu466  O513    1.958   .     S
Cu466  N500    2.031   .     S
Cu466  O511    1.974   .     S
Cu466  O509    1.978   .     S
Cu466  O515    1.959   .     S
H488   O505    0.990   .     S
H490   O506    0.992   .     S
H491   O507    0.991   .     S
H492   O508    0.991   .     S
H494   O516    0.980   .     S
H495   O502    0.981   .     S
H496   O503    0.980   .     S
H497   O504    0.979   .     S
C517   O587    1.303   .     A
C517   O597    1.304   .     A
C517   C535    1.471   .     S
C518   C534    1.414   .     A
C518   O592    1.379   .     S
C518   C606    1.385   .     S
C519   C534    1.415   .     A
C519   O593    1.376   .     S
C519   C636    1.385   .     S
C520   O594    1.377   .     S
C520   C535    1.416   .     A
C520   C690    1.385   1_455 S
C521   H553    1.085   .     S
C521   C532    1.384   .     A
C521   C525    1.399   .     A
C522   H564    1.084   .     S
C522   C533    1.395   .     A
C522   C526    1.396   .     A
C523   C527    1.398   .     A
C523   H575    1.084   .     S
C523   C533    1.395   .     A
C524   C529    1.399   .     A
C524   C532    1.384   .     A
C524   H579    1.085   .     S
C525   C530    1.438   .     A
C525   C536    1.516   .     S
C526   C538    1.514   .     S
C526   C531    1.416   .     A
C527   C541    1.518   .     S
C527   C531    1.418   .     A
C528   O595    1.302   .     A
C528   O596    1.304   .     A
C528   C534    1.470   .     S
C529   C530    1.440   .     A
C529   C543    1.519   .     S
C530   C539    1.505   .     S
C531   C545    1.454   .     S
C532   C1307   1.456   1_554 S
C533   C1306   1.456   .     S
C535   C550    1.416   .     A
C536   H557    1.113   .     S
C536   H556    1.106   .     S
C536   C537    1.526   .     S
C537   H554    1.109   .     S
C537   H555    1.108   .     S
C537   H584    1.111   .     S
C538   H562    1.112   .     S
C538   C540    1.526   .     S
C538   H561    1.108   .     S
C539   O598    1.313   .     A
C539   O601    1.310   .     A
C540   H558    1.111   .     S
C540   H560    1.110   .     S
C540   H559    1.109   .     S
C541   C542    1.526   .     S
C541   H567    1.106   .     S
C541   H568    1.112   .     S
C542   H566    1.111   .     S
C542   H565    1.111   .     S
C542   H563    1.110   .     S
C543   H573    1.111   .     S
C543   H572    1.102   .     S
C543   C544    1.530   .     S
C544   H571    1.111   .     S
C544   H570    1.110   .     S
C544   H569    1.108   .     S
C545   O599    1.298   .     A
C545   O600    1.298   .     A
C546   O602    1.375   .     S
C546   N586    1.378   .     A
C547   O588    1.374   .     S
C547   N585    1.377   .     A
C547   C32     1.410   1_565 S
C548   O589    1.374   .     S
C548   N586    1.378   .     A
C549   N585    1.377   .     A
C549   O590    1.374   .     S
C549   C30     1.409   1_565 S
C550   O591    1.378   .     S
C550   C691    1.385   1_455 S
Cu551  Cu552   2.703   .     S
Cu551  O596    1.974   .     S
Cu551  O598    1.958   .     S
Cu551  O587    1.978   .     S
Cu551  O600    1.959   .     S
Cu551  N585    2.031   .     S
Cu552  O599    1.958   .     S
Cu552  N586    2.031   .     S
Cu552  O597    1.974   .     S
Cu552  O595    1.978   .     S
Cu552  O601    1.959   .     S
H574   O591    0.990   .     S
H576   O592    0.992   .     S
H577   O593    0.991   .     S
H578   O594    0.991   .     S
H580   O602    0.980   .     S
H581   O588    0.981   .     S
H582   O589    0.980   .     S
H583   O590    0.979   .     S
C603   O673    1.303   .     A
C603   O683    1.304   .     A
C603   C621    1.471   .     S
C604   C620    1.414   .     A
C604   O678    1.379   .     S
C604   C692    1.385   .     S
C605   C620    1.415   .     A
C605   O679    1.376   .     S
C605   C722    1.385   .     S
C606   O680    1.377   .     S
C606   C621    1.416   .     A
C607   H639    1.085   .     S
C607   C618    1.384   .     A
C607   C611    1.399   .     A
C608   H650    1.084   .     S
C608   C619    1.395   .     A
C608   C612    1.396   .     A
C609   C613    1.398   .     A
C609   H661    1.084   .     S
C609   C619    1.395   .     A
C610   C615    1.399   .     A
C610   C618    1.384   .     A
C610   H665    1.085   .     S
C611   C616    1.438   .     A
C611   C622    1.516   .     S
C612   C624    1.514   .     S
C612   C617    1.416   .     A
C613   C627    1.518   .     S
C613   C617    1.418   .     A
C614   O681    1.302   .     A
C614   O682    1.304   .     A
C614   C620    1.470   .     S
C615   C616    1.440   .     A
C615   C629    1.519   .     S
C616   C625    1.505   .     S
C617   C631    1.454   .     S
C618   C1393   1.456   1_554 S
C619   C1392   1.456   .     S
C621   C636    1.416   .     A
C622   H643    1.113   .     S
C622   H642    1.106   .     S
C622   C623    1.526   .     S
C623   H640    1.109   .     S
C623   H641    1.108   .     S
C623   H670    1.111   .     S
C624   H648    1.112   .     S
C624   C626    1.526   .     S
C624   H647    1.108   .     S
C625   O684    1.313   .     A
C625   O687    1.310   .     A
C626   H644    1.111   .     S
C626   H646    1.110   .     S
C626   H645    1.109   .     S
C627   C628    1.526   .     S
C627   H653    1.106   .     S
C627   H654    1.112   .     S
C628   H652    1.111   .     S
C628   H651    1.111   .     S
C628   H649    1.110   .     S
C629   H659    1.111   .     S
C629   H658    1.102   .     S
C629   C630    1.530   .     S
C630   H657    1.111   .     S
C630   H656    1.110   .     S
C630   H655    1.108   .     S
C631   O685    1.298   .     A
C631   O686    1.298   .     A
C632   O688    1.375   .     S
C632   N672    1.378   .     A
C633   O674    1.374   .     S
C633   N671    1.377   .     A
C633   C118    1.410   1_565 S
C634   O675    1.374   .     S
C634   N672    1.378   .     A
C635   N671    1.377   .     A
C635   O676    1.374   .     S
C635   C116    1.409   1_565 S
C636   O677    1.378   .     S
Cu637  Cu638   2.703   .     S
Cu637  O682    1.974   .     S
Cu637  O684    1.958   .     S
Cu637  O673    1.978   .     S
Cu637  O686    1.959   .     S
Cu637  N671    2.031   .     S
Cu638  O685    1.958   .     S
Cu638  N672    2.031   .     S
Cu638  O683    1.974   .     S
Cu638  O681    1.978   .     S
Cu638  O687    1.959   .     S
H660   O677    0.990   .     S
H662   O678    0.992   .     S
H663   O679    0.991   .     S
H664   O680    0.991   .     S
H666   O688    0.980   .     S
H667   O674    0.981   .     S
H668   O675    0.980   .     S
H669   O676    0.979   .     S
C689   O759    1.303   .     A
C689   O769    1.304   .     A
C689   C707    1.471   .     S
C690   C706    1.414   .     A
C690   O764    1.379   .     S
C690   C520    1.385   1_655 S
C691   C706    1.415   .     A
C691   O765    1.376   .     S
C691   C550    1.385   1_655 S
C692   O766    1.377   .     S
C692   C707    1.416   .     A
C693   H725    1.085   .     S
C693   C704    1.384   .     A
C693   C697    1.399   .     A
C694   H736    1.084   .     S
C694   C705    1.395   .     A
C694   C698    1.396   .     A
C695   C699    1.398   .     A
C695   H747    1.084   .     S
C695   C705    1.395   .     A
C696   C701    1.399   .     A
C696   C704    1.384   .     A
C696   H751    1.085   .     S
C697   C702    1.438   .     A
C697   C708    1.516   .     S
C698   C710    1.514   .     S
C698   C703    1.416   .     A
C699   C713    1.518   .     S
C699   C703    1.418   .     A
C700   O767    1.302   .     A
C700   O768    1.304   .     A
C700   C706    1.470   .     S
C701   C702    1.440   .     A
C701   C715    1.519   .     S
C702   C711    1.505   .     S
C703   C717    1.454   .     S
C704   C1479   1.456   1_554 S
C705   C1478   1.456   .     S
C707   C722    1.416   .     A
C708   H729    1.113   .     S
C708   H728    1.106   .     S
C708   C709    1.526   .     S
C709   H726    1.109   .     S
C709   H727    1.108   .     S
C709   H756    1.111   .     S
C710   H734    1.112   .     S
C710   C712    1.526   .     S
C710   H733    1.108   .     S
C711   O770    1.313   .     A
C711   O773    1.310   .     A
C712   H730    1.111   .     S
C712   H732    1.110   .     S
C712   H731    1.109   .     S
C713   C714    1.526   .     S
C713   H739    1.106   .     S
C713   H740    1.112   .     S
C714   H738    1.111   .     S
C714   H737    1.111   .     S
C714   H735    1.110   .     S
C715   H745    1.111   .     S
C715   H744    1.102   .     S
C715   C716    1.530   .     S
C716   H743    1.111   .     S
C716   H742    1.110   .     S
C716   H741    1.108   .     S
C717   O771    1.298   .     A
C717   O772    1.298   .     A
C718   O774    1.375   .     S
C718   N758    1.378   .     A
C719   O760    1.374   .     S
C719   N757    1.377   .     A
C719   C204    1.410   1_565 S
C720   O761    1.374   .     S
C720   N758    1.378   .     A
C721   N757    1.377   .     A
C721   O762    1.374   .     S
C721   C202    1.409   1_565 S
C722   O763    1.378   .     S
Cu723  Cu724   2.703   .     S
Cu723  O768    1.974   .     S
Cu723  O770    1.958   .     S
Cu723  O759    1.978   .     S
Cu723  O772    1.959   .     S
Cu723  N757    2.031   .     S
Cu724  O771    1.958   .     S
Cu724  N758    2.031   .     S
Cu724  O769    1.974   .     S
Cu724  O767    1.978   .     S
Cu724  O773    1.959   .     S
H746   O763    0.990   .     S
H748   O764    0.992   .     S
H749   O765    0.991   .     S
H750   O766    0.991   .     S
H752   O774    0.980   .     S
H753   O760    0.981   .     S
H754   O761    0.980   .     S
H755   O762    0.979   .     S
C775   O845    1.303   .     A
C775   O855    1.304   .     A
C775   C793    1.471   .     S
C776   C792    1.414   .     A
C776   O850    1.379   .     S
C776   C864    1.385   .     S
C777   C792    1.415   .     A
C777   O851    1.376   .     S
C777   C894    1.385   .     S
C778   O852    1.377   .     S
C778   C793    1.416   .     A
C778   C948    1.385   1_455 S
C779   H811    1.085   .     S
C779   C790    1.384   .     A
C779   C783    1.399   .     A
C780   H822    1.084   .     S
C780   C791    1.395   .     A
C780   C784    1.396   .     A
C781   C785    1.398   .     A
C781   H833    1.084   .     S
C781   C791    1.395   .     A
C782   C787    1.399   .     A
C782   C790    1.384   .     A
C782   H837    1.085   .     S
C783   C788    1.438   .     A
C783   C794    1.516   .     S
C784   C796    1.514   .     S
C784   C789    1.416   .     A
C785   C799    1.518   .     S
C785   C789    1.418   .     A
C786   O853    1.302   .     A
C786   O854    1.304   .     A
C786   C792    1.470   .     S
C787   C788    1.440   .     A
C787   C801    1.519   .     S
C788   C797    1.505   .     S
C789   C803    1.454   .     S
C791   C16     1.456   1_556 S
C793   C808    1.416   .     A
C794   H815    1.113   .     S
C794   H814    1.106   .     S
C794   C795    1.526   .     S
C795   H812    1.109   .     S
C795   H813    1.108   .     S
C795   H842    1.111   .     S
C796   H820    1.112   .     S
C796   C798    1.526   .     S
C796   H819    1.108   .     S
C797   O856    1.313   .     A
C797   O859    1.310   .     A
C798   H816    1.111   .     S
C798   H818    1.110   .     S
C798   H817    1.109   .     S
C799   C800    1.526   .     S
C799   H825    1.106   .     S
C799   H826    1.112   .     S
C800   H824    1.111   .     S
C800   H823    1.111   .     S
C800   H821    1.110   .     S
C801   H831    1.111   .     S
C801   H830    1.102   .     S
C801   C802    1.530   .     S
C802   H829    1.111   .     S
C802   H828    1.110   .     S
C802   H827    1.108   .     S
C803   O857    1.298   .     A
C803   O858    1.298   .     A
C804   O860    1.375   .     S
C804   N844    1.378   .     A
C804   C1323   1.409   1_545 S
C805   O846    1.374   .     S
C805   N843    1.377   .     A
C805   C1064   1.410   .     S
C806   O847    1.374   .     S
C806   N844    1.378   .     A
C806   C1321   1.410   1_545 S
C807   N843    1.377   .     A
C807   O848    1.374   .     S
C807   C1062   1.409   .     S
C808   O849    1.378   .     S
C808   C949    1.385   1_455 S
Cu809  Cu810   2.703   .     S
Cu809  O854    1.974   .     S
Cu809  O856    1.958   .     S
Cu809  O845    1.978   .     S
Cu809  O858    1.959   .     S
Cu809  N843    2.031   .     S
Cu810  O857    1.958   .     S
Cu810  N844    2.031   .     S
Cu810  O855    1.974   .     S
Cu810  O853    1.978   .     S
Cu810  O859    1.959   .     S
H832   O849    0.990   .     S
H834   O850    0.992   .     S
H835   O851    0.991   .     S
H836   O852    0.991   .     S
H838   O860    0.980   .     S
H839   O846    0.981   .     S
H840   O847    0.980   .     S
H841   O848    0.979   .     S
C861   O931    1.303   .     A
C861   O941    1.304   .     A
C861   C879    1.471   .     S
C862   C878    1.414   .     A
C862   O936    1.379   .     S
C862   C950    1.385   .     S
C863   C878    1.415   .     A
C863   O937    1.376   .     S
C863   C980    1.385   .     S
C864   O938    1.377   .     S
C864   C879    1.416   .     A
C865   H897    1.085   .     S
C865   C876    1.384   .     A
C865   C869    1.399   .     A
C866   H908    1.084   .     S
C866   C877    1.395   .     A
C866   C870    1.396   .     A
C867   C871    1.398   .     A
C867   H919    1.084   .     S
C867   C877    1.395   .     A
C868   C873    1.399   .     A
C868   C876    1.384   .     A
C868   H923    1.085   .     S
C869   C874    1.438   .     A
C869   C880    1.516   .     S
C870   C882    1.514   .     S
C870   C875    1.416   .     A
C871   C885    1.518   .     S
C871   C875    1.418   .     A
C872   O939    1.302   .     A
C872   O940    1.304   .     A
C872   C878    1.470   .     S
C873   C874    1.440   .     A
C873   C887    1.519   .     S
C874   C883    1.505   .     S
C875   C889    1.454   .     S
C877   C102    1.456   1_556 S
C879   C894    1.416   .     A
C880   H901    1.113   .     S
C880   H900    1.106   .     S
C880   C881    1.526   .     S
C881   H898    1.109   .     S
C881   H899    1.108   .     S
C881   H928    1.111   .     S
C882   H906    1.112   .     S
C882   C884    1.526   .     S
C882   H905    1.108   .     S
C883   O942    1.313   .     A
C883   O945    1.310   .     A
C884   H902    1.111   .     S
C884   H904    1.110   .     S
C884   H903    1.109   .     S
C885   C886    1.526   .     S
C885   H911    1.106   .     S
C885   H912    1.112   .     S
C886   H910    1.111   .     S
C886   H909    1.111   .     S
C886   H907    1.110   .     S
C887   H917    1.111   .     S
C887   H916    1.102   .     S
C887   C888    1.530   .     S
C888   H915    1.111   .     S
C888   H914    1.110   .     S
C888   H913    1.108   .     S
C889   O943    1.298   .     A
C889   O944    1.298   .     A
C890   O946    1.375   .     S
C890   N930    1.378   .     A
C890   C1409   1.409   1_545 S
C891   O932    1.374   .     S
C891   N929    1.377   .     A
C891   C1150   1.410   .     S
C892   O933    1.374   .     S
C892   N930    1.378   .     A
C892   C1407   1.410   1_545 S
C893   N929    1.377   .     A
C893   O934    1.374   .     S
C893   C1148   1.409   .     S
C894   O935    1.378   .     S
Cu895  Cu896   2.703   .     S
Cu895  O940    1.974   .     S
Cu895  O942    1.958   .     S
Cu895  O931    1.978   .     S
Cu895  O944    1.959   .     S
Cu895  N929    2.031   .     S
Cu896  O943    1.958   .     S
Cu896  N930    2.031   .     S
Cu896  O941    1.974   .     S
Cu896  O939    1.978   .     S
Cu896  O945    1.959   .     S
H918   O935    0.990   .     S
H920   O936    0.992   .     S
H921   O937    0.991   .     S
H922   O938    0.991   .     S
H924   O946    0.980   .     S
H925   O932    0.981   .     S
H926   O933    0.980   .     S
H927   O934    0.979   .     S
C947   O1017   1.303   .     A
C947   O1027   1.304   .     A
C947   C965    1.471   .     S
C948   C964    1.414   .     A
C948   O1022   1.379   .     S
C948   C778    1.385   1_655 S
C949   C964    1.415   .     A
C949   O1023   1.376   .     S
C949   C808    1.385   1_655 S
C950   O1024   1.377   .     S
C950   C965    1.416   .     A
C951   H983    1.085   .     S
C951   C962    1.384   .     A
C951   C955    1.399   .     A
C952   H994    1.084   .     S
C952   C963    1.395   .     A
C952   C956    1.396   .     A
C953   C957    1.398   .     A
C953   H1005   1.084   .     S
C953   C963    1.395   .     A
C954   C959    1.399   .     A
C954   C962    1.384   .     A
C954   H1009   1.085   .     S
C955   C960    1.438   .     A
C955   C966    1.516   .     S
C956   C968    1.514   .     S
C956   C961    1.416   .     A
C957   C971    1.518   .     S
C957   C961    1.418   .     A
C958   O1025   1.302   .     A
C958   O1026   1.304   .     A
C958   C964    1.470   .     S
C959   C960    1.440   .     A
C959   C973    1.519   .     S
C960   C969    1.505   .     S
C961   C975    1.454   .     S
C963   C188    1.456   1_556 S
C965   C980    1.416   .     A
C966   H987    1.113   .     S
C966   H986    1.106   .     S
C966   C967    1.526   .     S
C967   H984    1.109   .     S
C967   H985    1.108   .     S
C967   H1014   1.111   .     S
C968   H992    1.112   .     S
C968   C970    1.526   .     S
C968   H991    1.108   .     S
C969   O1028   1.313   .     A
C969   O1031   1.310   .     A
C970   H988    1.111   .     S
C970   H990    1.110   .     S
C970   H989    1.109   .     S
C971   C972    1.526   .     S
C971   H997    1.106   .     S
C971   H998    1.112   .     S
C972   H996    1.111   .     S
C972   H995    1.111   .     S
C972   H993    1.110   .     S
C973   H1003   1.111   .     S
C973   H1002   1.102   .     S
C973   C974    1.530   .     S
C974   H1001   1.111   .     S
C974   H1000   1.110   .     S
C974   H999    1.108   .     S
C975   O1029   1.298   .     A
C975   O1030   1.298   .     A
C976   O1032   1.375   .     S
C976   N1016   1.378   .     A
C976   C1495   1.409   1_545 S
C977   O1018   1.374   .     S
C977   N1015   1.377   .     A
C977   C1236   1.410   .     S
C978   O1019   1.374   .     S
C978   N1016   1.378   .     A
C978   C1493   1.410   1_545 S
C979   N1015   1.377   .     A
C979   O1020   1.374   .     S
C979   C1234   1.409   .     S
C980   O1021   1.378   .     S
Cu981  Cu982   2.703   .     S
Cu981  O1026   1.974   .     S
Cu981  O1028   1.958   .     S
Cu981  O1017   1.978   .     S
Cu981  O1030   1.959   .     S
Cu981  N1015   2.031   .     S
Cu982  O1029   1.958   .     S
Cu982  N1016   2.031   .     S
Cu982  O1027   1.974   .     S
Cu982  O1025   1.978   .     S
Cu982  O1031   1.959   .     S
H1004  O1021   0.990   .     S
H1006  O1022   0.992   .     S
H1007  O1023   0.991   .     S
H1008  O1024   0.991   .     S
H1010  O1032   0.980   .     S
H1011  O1018   0.981   .     S
H1012  O1019   0.980   .     S
H1013  O1020   0.979   .     S
C1033  O1103   1.303   .     A
C1033  O1113   1.304   .     A
C1033  C1051   1.471   .     S
C1034  C1050   1.414   .     A
C1034  O1108   1.379   .     S
C1034  C1122   1.385   .     S
C1035  C1050   1.415   .     A
C1035  O1109   1.376   .     S
C1035  C1152   1.385   .     S
C1036  O1110   1.377   .     S
C1036  C1051   1.416   .     A
C1036  C1206   1.385   1_455 S
C1037  H1069   1.085   .     S
C1037  C1048   1.384   .     A
C1037  C1041   1.399   .     A
C1038  H1080   1.084   .     S
C1038  C1049   1.395   .     A
C1038  C1042   1.396   .     A
C1039  C1043   1.398   .     A
C1039  H1091   1.084   .     S
C1039  C1049   1.395   .     A
C1040  C1045   1.399   .     A
C1040  C1048   1.384   .     A
C1040  H1095   1.085   .     S
C1041  C1046   1.438   .     A
C1041  C1052   1.516   .     S
C1042  C1054   1.514   .     S
C1042  C1047   1.416   .     A
C1043  C1057   1.518   .     S
C1043  C1047   1.418   .     A
C1044  O1111   1.302   .     A
C1044  O1112   1.304   .     A
C1044  C1050   1.470   .     S
C1045  C1046   1.440   .     A
C1045  C1059   1.519   .     S
C1046  C1055   1.505   .     S
C1047  C1061   1.454   .     S
C1049  C274    1.456   1_556 S
C1051  C1066   1.416   .     A
C1052  H1073   1.113   .     S
C1052  H1072   1.106   .     S
C1052  C1053   1.526   .     S
C1053  H1070   1.109   .     S
C1053  H1071   1.108   .     S
C1053  H1100   1.111   .     S
C1054  H1078   1.112   .     S
C1054  C1056   1.526   .     S
C1054  H1077   1.108   .     S
C1055  O1114   1.313   .     A
C1055  O1117   1.310   .     A
C1056  H1074   1.111   .     S
C1056  H1076   1.110   .     S
C1056  H1075   1.109   .     S
C1057  C1058   1.526   .     S
C1057  H1083   1.106   .     S
C1057  H1084   1.112   .     S
C1058  H1082   1.111   .     S
C1058  H1081   1.111   .     S
C1058  H1079   1.110   .     S
C1059  H1089   1.111   .     S
C1059  H1088   1.102   .     S
C1059  C1060   1.530   .     S
C1060  H1087   1.111   .     S
C1060  H1086   1.110   .     S
C1060  H1085   1.108   .     S
C1061  O1115   1.298   .     A
C1061  O1116   1.298   .     A
C1062  O1118   1.375   .     S
C1062  N1102   1.378   .     A
C1063  O1104   1.374   .     S
C1063  N1101   1.377   .     A
C1063  C1322   1.410   .     S
C1064  O1105   1.374   .     S
C1064  N1102   1.378   .     A
C1065  N1101   1.377   .     A
C1065  O1106   1.374   .     S
C1065  C1320   1.409   .     S
C1066  O1107   1.378   .     S
C1066  C1207   1.385   1_455 S
Cu1067 Cu1068  2.703   .     S
Cu1067 O1112   1.974   .     S
Cu1067 O1114   1.958   .     S
Cu1067 O1103   1.978   .     S
Cu1067 O1116   1.959   .     S
Cu1067 N1101   2.031   .     S
Cu1068 O1115   1.958   .     S
Cu1068 N1102   2.031   .     S
Cu1068 O1113   1.974   .     S
Cu1068 O1111   1.978   .     S
Cu1068 O1117   1.959   .     S
H1090  O1107   0.990   .     S
H1092  O1108   0.992   .     S
H1093  O1109   0.991   .     S
H1094  O1110   0.991   .     S
H1096  O1118   0.980   .     S
H1097  O1104   0.981   .     S
H1098  O1105   0.980   .     S
H1099  O1106   0.979   .     S
C1119  O1189   1.303   .     A
C1119  O1199   1.304   .     A
C1119  C1137   1.471   .     S
C1120  C1136   1.414   .     A
C1120  O1194   1.379   .     S
C1120  C1208   1.385   .     S
C1121  C1136   1.415   .     A
C1121  O1195   1.376   .     S
C1121  C1238   1.385   .     S
C1122  O1196   1.377   .     S
C1122  C1137   1.416   .     A
C1123  H1155   1.085   .     S
C1123  C1134   1.384   .     A
C1123  C1127   1.399   .     A
C1124  H1166   1.084   .     S
C1124  C1135   1.395   .     A
C1124  C1128   1.396   .     A
C1125  C1129   1.398   .     A
C1125  H1177   1.084   .     S
C1125  C1135   1.395   .     A
C1126  C1131   1.399   .     A
C1126  C1134   1.384   .     A
C1126  H1181   1.085   .     S
C1127  C1132   1.438   .     A
C1127  C1138   1.516   .     S
C1128  C1140   1.514   .     S
C1128  C1133   1.416   .     A
C1129  C1143   1.518   .     S
C1129  C1133   1.418   .     A
C1130  O1197   1.302   .     A
C1130  O1198   1.304   .     A
C1130  C1136   1.470   .     S
C1131  C1132   1.440   .     A
C1131  C1145   1.519   .     S
C1132  C1141   1.505   .     S
C1133  C1147   1.454   .     S
C1135  C360    1.456   1_556 S
C1137  C1152   1.416   .     A
C1138  H1159   1.113   .     S
C1138  H1158   1.106   .     S
C1138  C1139   1.526   .     S
C1139  H1156   1.109   .     S
C1139  H1157   1.108   .     S
C1139  H1186   1.111   .     S
C1140  H1164   1.112   .     S
C1140  C1142   1.526   .     S
C1140  H1163   1.108   .     S
C1141  O1200   1.313   .     A
C1141  O1203   1.310   .     A
C1142  H1160   1.111   .     S
C1142  H1162   1.110   .     S
C1142  H1161   1.109   .     S
C1143  C1144   1.526   .     S
C1143  H1169   1.106   .     S
C1143  H1170   1.112   .     S
C1144  H1168   1.111   .     S
C1144  H1167   1.111   .     S
C1144  H1165   1.110   .     S
C1145  H1175   1.111   .     S
C1145  H1174   1.102   .     S
C1145  C1146   1.530   .     S
C1146  H1173   1.111   .     S
C1146  H1172   1.110   .     S
C1146  H1171   1.108   .     S
C1147  O1201   1.298   .     A
C1147  O1202   1.298   .     A
C1148  O1204   1.375   .     S
C1148  N1188   1.378   .     A
C1149  O1190   1.374   .     S
C1149  N1187   1.377   .     A
C1149  C1408   1.410   .     S
C1150  O1191   1.374   .     S
C1150  N1188   1.378   .     A
C1151  N1187   1.377   .     A
C1151  O1192   1.374   .     S
C1151  C1406   1.409   .     S
C1152  O1193   1.378   .     S
Cu1153 Cu1154  2.703   .     S
Cu1153 O1198   1.974   .     S
Cu1153 O1200   1.958   .     S
Cu1153 O1189   1.978   .     S
Cu1153 O1202   1.959   .     S
Cu1153 N1187   2.031   .     S
Cu1154 O1201   1.958   .     S
Cu1154 N1188   2.031   .     S
Cu1154 O1199   1.974   .     S
Cu1154 O1197   1.978   .     S
Cu1154 O1203   1.959   .     S
H1176  O1193   0.990   .     S
H1178  O1194   0.992   .     S
H1179  O1195   0.991   .     S
H1180  O1196   0.991   .     S
H1182  O1204   0.980   .     S
H1183  O1190   0.981   .     S
H1184  O1191   0.980   .     S
H1185  O1192   0.979   .     S
C1205  O1275   1.303   .     A
C1205  O1285   1.304   .     A
C1205  C1223   1.471   .     S
C1206  C1222   1.414   .     A
C1206  O1280   1.379   .     S
C1206  C1036   1.385   1_655 S
C1207  C1222   1.415   .     A
C1207  O1281   1.376   .     S
C1207  C1066   1.385   1_655 S
C1208  O1282   1.377   .     S
C1208  C1223   1.416   .     A
C1209  H1241   1.085   .     S
C1209  C1220   1.384   .     A
C1209  C1213   1.399   .     A
C1210  H1252   1.084   .     S
C1210  C1221   1.395   .     A
C1210  C1214   1.396   .     A
C1211  C1215   1.398   .     A
C1211  H1263   1.084   .     S
C1211  C1221   1.395   .     A
C1212  C1217   1.399   .     A
C1212  C1220   1.384   .     A
C1212  H1267   1.085   .     S
C1213  C1218   1.438   .     A
C1213  C1224   1.516   .     S
C1214  C1226   1.514   .     S
C1214  C1219   1.416   .     A
C1215  C1229   1.518   .     S
C1215  C1219   1.418   .     A
C1216  O1283   1.302   .     A
C1216  O1284   1.304   .     A
C1216  C1222   1.470   .     S
C1217  C1218   1.440   .     A
C1217  C1231   1.519   .     S
C1218  C1227   1.505   .     S
C1219  C1233   1.454   .     S
C1221  C446    1.456   1_556 S
C1223  C1238   1.416   .     A
C1224  H1245   1.113   .     S
C1224  H1244   1.106   .     S
C1224  C1225   1.526   .     S
C1225  H1242   1.109   .     S
C1225  H1243   1.108   .     S
C1225  H1272   1.111   .     S
C1226  H1250   1.112   .     S
C1226  C1228   1.526   .     S
C1226  H1249   1.108   .     S
C1227  O1286   1.313   .     A
C1227  O1289   1.310   .     A
C1228  H1246   1.111   .     S
C1228  H1248   1.110   .     S
C1228  H1247   1.109   .     S
C1229  C1230   1.526   .     S
C1229  H1255   1.106   .     S
C1229  H1256   1.112   .     S
C1230  H1254   1.111   .     S
C1230  H1253   1.111   .     S
C1230  H1251   1.110   .     S
C1231  H1261   1.111   .     S
C1231  H1260   1.102   .     S
C1231  C1232   1.530   .     S
C1232  H1259   1.111   .     S
C1232  H1258   1.110   .     S
C1232  H1257   1.108   .     S
C1233  O1287   1.298   .     A
C1233  O1288   1.298   .     A
C1234  O1290   1.375   .     S
C1234  N1274   1.378   .     A
C1235  O1276   1.374   .     S
C1235  N1273   1.377   .     A
C1235  C1494   1.410   .     S
C1236  O1277   1.374   .     S
C1236  N1274   1.378   .     A
C1237  N1273   1.377   .     A
C1237  O1278   1.374   .     S
C1237  C1492   1.409   .     S
C1238  O1279   1.378   .     S
Cu1239 Cu1240  2.703   .     S
Cu1239 O1284   1.974   .     S
Cu1239 O1286   1.958   .     S
Cu1239 O1275   1.978   .     S
Cu1239 O1288   1.959   .     S
Cu1239 N1273   2.031   .     S
Cu1240 O1287   1.958   .     S
Cu1240 N1274   2.031   .     S
Cu1240 O1285   1.974   .     S
Cu1240 O1283   1.978   .     S
Cu1240 O1289   1.959   .     S
H1262  O1279   0.990   .     S
H1264  O1280   0.992   .     S
H1265  O1281   0.991   .     S
H1266  O1282   0.991   .     S
H1268  O1290   0.980   .     S
H1269  O1276   0.981   .     S
H1270  O1277   0.980   .     S
H1271  O1278   0.979   .     S
C1291  O1361   1.303   .     A
C1291  O1371   1.304   .     A
C1291  C1309   1.471   .     S
C1292  C1308   1.414   .     A
C1292  O1366   1.379   .     S
C1292  C1380   1.385   .     S
C1293  C1308   1.415   .     A
C1293  O1367   1.376   .     S
C1293  C1410   1.385   .     S
C1294  O1368   1.377   .     S
C1294  C1309   1.416   .     A
C1294  C1464   1.385   1_455 S
C1295  H1327   1.085   .     S
C1295  C1306   1.384   .     A
C1295  C1299   1.399   .     A
C1296  H1338   1.084   .     S
C1296  C1307   1.395   .     A
C1296  C1300   1.396   .     A
C1297  C1301   1.398   .     A
C1297  H1349   1.084   .     S
C1297  C1307   1.395   .     A
C1298  C1303   1.399   .     A
C1298  C1306   1.384   .     A
C1298  H1353   1.085   .     S
C1299  C1304   1.438   .     A
C1299  C1310   1.516   .     S
C1300  C1312   1.514   .     S
C1300  C1305   1.416   .     A
C1301  C1315   1.518   .     S
C1301  C1305   1.418   .     A
C1302  O1369   1.302   .     A
C1302  O1370   1.304   .     A
C1302  C1308   1.470   .     S
C1303  C1304   1.440   .     A
C1303  C1317   1.519   .     S
C1304  C1313   1.505   .     S
C1305  C1319   1.454   .     S
C1307  C532    1.456   1_556 S
C1309  C1324   1.416   .     A
C1310  H1331   1.113   .     S
C1310  H1330   1.106   .     S
C1310  C1311   1.526   .     S
C1311  H1328   1.109   .     S
C1311  H1329   1.108   .     S
C1311  H1358   1.111   .     S
C1312  H1336   1.112   .     S
C1312  C1314   1.526   .     S
C1312  H1335   1.108   .     S
C1313  O1372   1.313   .     A
C1313  O1375   1.310   .     A
C1314  H1332   1.111   .     S
C1314  H1334   1.110   .     S
C1314  H1333   1.109   .     S
C1315  C1316   1.526   .     S
C1315  H1341   1.106   .     S
C1315  H1342   1.112   .     S
C1316  H1340   1.111   .     S
C1316  H1339   1.111   .     S
C1316  H1337   1.110   .     S
C1317  H1347   1.111   .     S
C1317  H1346   1.102   .     S
C1317  C1318   1.530   .     S
C1318  H1345   1.111   .     S
C1318  H1344   1.110   .     S
C1318  H1343   1.108   .     S
C1319  O1373   1.298   .     A
C1319  O1374   1.298   .     A
C1320  O1376   1.375   .     S
C1320  N1360   1.378   .     A
C1321  O1362   1.374   .     S
C1321  N1359   1.377   .     A
C1321  C806    1.410   1_565 S
C1322  O1363   1.374   .     S
C1322  N1360   1.378   .     A
C1323  N1359   1.377   .     A
C1323  O1364   1.374   .     S
C1323  C804    1.409   1_565 S
C1324  O1365   1.378   .     S
C1324  C1465   1.385   1_455 S
Cu1325 Cu1326  2.703   .     S
Cu1325 O1370   1.974   .     S
Cu1325 O1372   1.958   .     S
Cu1325 O1361   1.978   .     S
Cu1325 O1374   1.959   .     S
Cu1325 N1359   2.031   .     S
Cu1326 O1373   1.958   .     S
Cu1326 N1360   2.031   .     S
Cu1326 O1371   1.974   .     S
Cu1326 O1369   1.978   .     S
Cu1326 O1375   1.959   .     S
H1348  O1365   0.990   .     S
H1350  O1366   0.992   .     S
H1351  O1367   0.991   .     S
H1352  O1368   0.991   .     S
H1354  O1376   0.980   .     S
H1355  O1362   0.981   .     S
H1356  O1363   0.980   .     S
H1357  O1364   0.979   .     S
C1377  O1447   1.303   .     A
C1377  O1457   1.304   .     A
C1377  C1395   1.471   .     S
C1378  C1394   1.414   .     A
C1378  O1452   1.379   .     S
C1378  C1466   1.385   .     S
C1379  C1394   1.415   .     A
C1379  O1453   1.376   .     S
C1379  C1496   1.385   .     S
C1380  O1454   1.377   .     S
C1380  C1395   1.416   .     A
C1381  H1413   1.085   .     S
C1381  C1392   1.384   .     A
C1381  C1385   1.399   .     A
C1382  H1424   1.084   .     S
C1382  C1393   1.395   .     A
C1382  C1386   1.396   .     A
C1383  C1387   1.398   .     A
C1383  H1435   1.084   .     S
C1383  C1393   1.395   .     A
C1384  C1389   1.399   .     A
C1384  C1392   1.384   .     A
C1384  H1439   1.085   .     S
C1385  C1390   1.438   .     A
C1385  C1396   1.516   .     S
C1386  C1398   1.514   .     S
C1386  C1391   1.416   .     A
C1387  C1401   1.518   .     S
C1387  C1391   1.418   .     A
C1388  O1455   1.302   .     A
C1388  O1456   1.304   .     A
C1388  C1394   1.470   .     S
C1389  C1390   1.440   .     A
C1389  C1403   1.519   .     S
C1390  C1399   1.505   .     S
C1391  C1405   1.454   .     S
C1393  C618    1.456   1_556 S
C1395  C1410   1.416   .     A
C1396  H1417   1.113   .     S
C1396  H1416   1.106   .     S
C1396  C1397   1.526   .     S
C1397  H1414   1.109   .     S
C1397  H1415   1.108   .     S
C1397  H1444   1.111   .     S
C1398  H1422   1.112   .     S
C1398  C1400   1.526   .     S
C1398  H1421   1.108   .     S
C1399  O1458   1.313   .     A
C1399  O1461   1.310   .     A
C1400  H1418   1.111   .     S
C1400  H1420   1.110   .     S
C1400  H1419   1.109   .     S
C1401  C1402   1.526   .     S
C1401  H1427   1.106   .     S
C1401  H1428   1.112   .     S
C1402  H1426   1.111   .     S
C1402  H1425   1.111   .     S
C1402  H1423   1.110   .     S
C1403  H1433   1.111   .     S
C1403  H1432   1.102   .     S
C1403  C1404   1.530   .     S
C1404  H1431   1.111   .     S
C1404  H1430   1.110   .     S
C1404  H1429   1.108   .     S
C1405  O1459   1.298   .     A
C1405  O1460   1.298   .     A
C1406  O1462   1.375   .     S
C1406  N1446   1.378   .     A
C1407  O1448   1.374   .     S
C1407  N1445   1.377   .     A
C1407  C892    1.410   1_565 S
C1408  O1449   1.374   .     S
C1408  N1446   1.378   .     A
C1409  N1445   1.377   .     A
C1409  O1450   1.374   .     S
C1409  C890    1.409   1_565 S
C1410  O1451   1.378   .     S
Cu1411 Cu1412  2.703   .     S
Cu1411 O1456   1.974   .     S
Cu1411 O1458   1.958   .     S
Cu1411 O1447   1.978   .     S
Cu1411 O1460   1.959   .     S
Cu1411 N1445   2.031   .     S
Cu1412 O1459   1.958   .     S
Cu1412 N1446   2.031   .     S
Cu1412 O1457   1.974   .     S
Cu1412 O1455   1.978   .     S
Cu1412 O1461   1.959   .     S
H1434  O1451   0.990   .     S
H1436  O1452   0.992   .     S
H1437  O1453   0.991   .     S
H1438  O1454   0.991   .     S
H1440  O1462   0.980   .     S
H1441  O1448   0.981   .     S
H1442  O1449   0.980   .     S
H1443  O1450   0.979   .     S
C1463  O1533   1.303   .     A
C1463  O1543   1.304   .     A
C1463  C1481   1.471   .     S
C1464  C1480   1.414   .     A
C1464  O1538   1.379   .     S
C1464  C1294   1.385   1_655 S
C1465  C1480   1.415   .     A
C1465  O1539   1.376   .     S
C1465  C1324   1.385   1_655 S
C1466  O1540   1.377   .     S
C1466  C1481   1.416   .     A
C1467  H1499   1.085   .     S
C1467  C1478   1.384   .     A
C1467  C1471   1.399   .     A
C1468  H1510   1.084   .     S
C1468  C1479   1.395   .     A
C1468  C1472   1.396   .     A
C1469  C1473   1.398   .     A
C1469  H1521   1.084   .     S
C1469  C1479   1.395   .     A
C1470  C1475   1.399   .     A
C1470  C1478   1.384   .     A
C1470  H1525   1.085   .     S
C1471  C1476   1.438   .     A
C1471  C1482   1.516   .     S
C1472  C1484   1.514   .     S
C1472  C1477   1.416   .     A
C1473  C1487   1.518   .     S
C1473  C1477   1.418   .     A
C1474  O1541   1.302   .     A
C1474  O1542   1.304   .     A
C1474  C1480   1.470   .     S
C1475  C1476   1.440   .     A
C1475  C1489   1.519   .     S
C1476  C1485   1.505   .     S
C1477  C1491   1.454   .     S
C1479  C704    1.456   1_556 S
C1481  C1496   1.416   .     A
C1482  H1503   1.113   .     S
C1482  H1502   1.106   .     S
C1482  C1483   1.526   .     S
C1483  H1500   1.109   .     S
C1483  H1501   1.108   .     S
C1483  H1530   1.111   .     S
C1484  H1508   1.112   .     S
C1484  C1486   1.526   .     S
C1484  H1507   1.108   .     S
C1485  O1544   1.313   .     A
C1485  O1547   1.310   .     A
C1486  H1504   1.111   .     S
C1486  H1506   1.110   .     S
C1486  H1505   1.109   .     S
C1487  C1488   1.526   .     S
C1487  H1513   1.106   .     S
C1487  H1514   1.112   .     S
C1488  H1512   1.111   .     S
C1488  H1511   1.111   .     S
C1488  H1509   1.110   .     S
C1489  H1519   1.111   .     S
C1489  H1518   1.102   .     S
C1489  C1490   1.530   .     S
C1490  H1517   1.111   .     S
C1490  H1516   1.110   .     S
C1490  H1515   1.108   .     S
C1491  O1545   1.298   .     A
C1491  O1546   1.298   .     A
C1492  O1548   1.375   .     S
C1492  N1532   1.378   .     A
C1493  O1534   1.374   .     S
C1493  N1531   1.377   .     A
C1493  C978    1.410   1_565 S
C1494  O1535   1.374   .     S
C1494  N1532   1.378   .     A
C1495  N1531   1.377   .     A
C1495  O1536   1.374   .     S
C1495  C976    1.409   1_565 S
C1496  O1537   1.378   .     S
Cu1497 Cu1498  2.703   .     S
Cu1497 O1542   1.974   .     S
Cu1497 O1544   1.958   .     S
Cu1497 O1533   1.978   .     S
Cu1497 O1546   1.959   .     S
Cu1497 N1531   2.031   .     S
Cu1498 O1545   1.958   .     S
Cu1498 N1532   2.031   .     S
Cu1498 O1543   1.974   .     S
Cu1498 O1541   1.978   .     S
Cu1498 O1547   1.959   .     S
H1520  O1537   0.990   .     S
H1522  O1538   0.992   .     S
H1523  O1539   0.991   .     S
H1524  O1540   0.991   .     S
H1526  O1548   0.980   .     S
H1527  O1534   0.981   .     S
H1528  O1535   0.980   .     S
H1529  O1536   0.979   .     S
