data_str_m2_o1_o2_pcu_sym.150
_audit_creation_date              2020-01-03
_audit_creation_method            'Materials Studio'
_symmetry_space_group_name_H-M    'P1'
_symmetry_Int_Tables_number       1
_symmetry_cell_setting            triclinic
loop_
_symmetry_equiv_pos_as_xyz
  x,y,z
_cell_length_a                    32.5049
_cell_length_b                    28.5436
_cell_length_c                    30.2762
_cell_angle_alpha                 90.0000
_cell_angle_beta                  90.1650
_cell_angle_gamma                 90.0000
loop_
_atom_site_label
_atom_site_type_symbol
_atom_site_fract_x
_atom_site_fract_y
_atom_site_fract_z
_atom_site_U_iso_or_equiv
_atom_site_adp_type
_atom_site_occupancy
C1     C     0.08735   0.16667   0.24997   0.00000  Uiso   1.00
C2     C     0.24599   0.16667   0.25003   0.00000  Uiso   1.00
C3     C     0.16663   0.16667   0.16495   0.00000  Uiso   1.00
C4     C     0.16670   0.16667   0.33505   0.00000  Uiso   1.00
C5     C     0.14088   0.02481   0.22274   0.00000  Uiso   1.00
C6     C     0.19246   0.30852   0.27725   0.00000  Uiso   1.00
C7     C     0.19245   0.02481   0.27725   0.00000  Uiso   1.00
C8     C     0.14088   0.30852   0.22275   0.00000  Uiso   1.00
C9     C     0.02128   0.12409   0.24997   0.00000  Uiso   1.00
C10    C     0.31205   0.20924   0.25002   0.00000  Uiso   1.00
C11    C     0.31205   0.12409   0.25003   0.00000  Uiso   1.00
C12    C     0.02128   0.20924   0.24998   0.00000  Uiso   1.00
C13    C     0.17915   0.20669   0.04765   0.00000  Uiso   1.00
C14    C     0.17921   0.12661   0.45243   0.00000  Uiso   1.00
C15    C     0.15419   0.20669   0.45235   0.00000  Uiso   1.00
C16    C     0.15412   0.12661   0.04757   0.00000  Uiso   1.00
C17    C     0.17884   0.20681   0.09356   0.00000  Uiso   1.00
C18    C     0.17896   0.12651   0.40651   0.00000  Uiso   1.00
C19    C     0.15449   0.20681   0.40644   0.00000  Uiso   1.00
C20    C     0.15438   0.12651   0.09349   0.00000  Uiso   1.00
C21    C     0.16661   0.16666   0.11672   0.00000  Uiso   1.00
C22    C     0.16672   0.16666   0.38328   0.00000  Uiso   1.00
C23    C     0.16665   0.16665   0.02428   0.00000  Uiso   1.00
C24    C     0.16668   0.16665   0.47572   0.00000  Uiso   1.00
C25    C     0.29060   0.16667   0.25004   0.00000  Uiso   1.00
C26    C     0.04274   0.16667   0.24996   0.00000  Uiso   1.00
Cu27   Cu    0.16667   0.21355   0.25000   0.00000  Uiso   1.00
Cu28   Cu    0.16667   0.11978   0.25000   0.00000  Uiso   1.00
H29    H     0.12023   0.04353   0.20091   0.00000  Uiso   1.00
H30    H     0.21311   0.28981   0.29908   0.00000  Uiso   1.00
H31    H     0.21310   0.04353   0.29909   0.00000  Uiso   1.00
H32    H     0.12022   0.28981   0.20092   0.00000  Uiso   1.00
H33    H     0.18964   0.23773   0.03048   0.00000  Uiso   1.00
H34    H     0.18968   0.09556   0.46967   0.00000  Uiso   1.00
H35    H     0.14370   0.23773   0.46952   0.00000  Uiso   1.00
H36    H     0.14365   0.09556   0.03033   0.00000  Uiso   1.00
N37    N     0.16667   0.28402   0.25000   0.00000  Uiso   1.00
N38    N     0.16667   0.04931   0.25000   0.00000  Uiso   1.00
O39    O     0.10655   0.20625   0.25000   0.00000  Uiso   1.00
O40    O     0.22679   0.12709   0.25000   0.00000  Uiso   1.00
O41    O     0.22679   0.20625   0.25000   0.00000  Uiso   1.00
O42    O     0.10655   0.12709   0.24999   0.00000  Uiso   1.00
O43    O     0.16666   0.20626   0.18573   0.00000  Uiso   1.00
O44    O     0.16667   0.12707   0.31427   0.00000  Uiso   1.00
O45    O     0.16667   0.20626   0.31427   0.00000  Uiso   1.00
O46    O     0.16666   0.12707   0.18573   0.00000  Uiso   1.00
H47    H     0.18873   0.23806   0.11090   0.00000  Uiso   1.00
H48    H     0.18886   0.09527   0.38923   0.00000  Uiso   1.00
H49    H     0.14461   0.23806   0.38910   0.00000  Uiso   1.00
H50    H     0.14447   0.09528   0.11077   0.00000  Uiso   1.00
H51    H     0.03729   0.09081   0.24995   0.00000  Uiso   1.00
H52    H     0.29604   0.24253   0.25005   0.00000  Uiso   1.00
H53    H     0.29604   0.09081   0.25005   0.00000  Uiso   1.00
H54    H     0.03729   0.24253   0.24995   0.00000  Uiso   1.00
C55    C     0.42068   0.16667   0.24997   0.00000  Uiso   1.00
C56    C     0.57932   0.16667   0.25003   0.00000  Uiso   1.00
C57    C     0.49996   0.16667   0.16495   0.00000  Uiso   1.00
C58    C     0.50004   0.16667   0.33505   0.00000  Uiso   1.00
C59    C     0.47421   0.02481   0.22274   0.00000  Uiso   1.00
C60    C     0.52579   0.30852   0.27725   0.00000  Uiso   1.00
C61    C     0.52579   0.02481   0.27725   0.00000  Uiso   1.00
C62    C     0.47421   0.30852   0.22275   0.00000  Uiso   1.00
C63    C     0.35462   0.12409   0.24997   0.00000  Uiso   1.00
C64    C     0.64538   0.20924   0.25002   0.00000  Uiso   1.00
C65    C     0.64539   0.12409   0.25003   0.00000  Uiso   1.00
C66    C     0.35462   0.20924   0.24998   0.00000  Uiso   1.00
C67    C     0.51248   0.20669   0.04765   0.00000  Uiso   1.00
C68    C     0.51254   0.12661   0.45243   0.00000  Uiso   1.00
C69    C     0.48752   0.20669   0.45235   0.00000  Uiso   1.00
C70    C     0.48746   0.12661   0.04757   0.00000  Uiso   1.00
C71    C     0.51218   0.20681   0.09356   0.00000  Uiso   1.00
C72    C     0.51229   0.12651   0.40651   0.00000  Uiso   1.00
C73    C     0.48783   0.20681   0.40644   0.00000  Uiso   1.00
C74    C     0.48771   0.12651   0.09349   0.00000  Uiso   1.00
C75    C     0.49994   0.16666   0.11672   0.00000  Uiso   1.00
C76    C     0.50006   0.16666   0.38328   0.00000  Uiso   1.00
C77    C     0.49999   0.16665   0.02428   0.00000  Uiso   1.00
C78    C     0.50002   0.16665   0.47572   0.00000  Uiso   1.00
C79    C     0.62393   0.16667   0.25004   0.00000  Uiso   1.00
C80    C     0.37607   0.16667   0.24996   0.00000  Uiso   1.00
Cu81   Cu    0.50000   0.21355   0.25000   0.00000  Uiso   1.00
Cu82   Cu    0.50000   0.11978   0.25000   0.00000  Uiso   1.00
H83    H     0.45356   0.04353   0.20091   0.00000  Uiso   1.00
H84    H     0.54645   0.28981   0.29908   0.00000  Uiso   1.00
H85    H     0.54644   0.04353   0.29909   0.00000  Uiso   1.00
H86    H     0.45355   0.28981   0.20092   0.00000  Uiso   1.00
H87    H     0.52297   0.23773   0.03048   0.00000  Uiso   1.00
H88    H     0.52301   0.09556   0.46967   0.00000  Uiso   1.00
H89    H     0.47703   0.23773   0.46952   0.00000  Uiso   1.00
H90    H     0.47699   0.09556   0.03033   0.00000  Uiso   1.00
N91    N     0.50000   0.28402   0.25000   0.00000  Uiso   1.00
N92    N     0.50000   0.04931   0.25000   0.00000  Uiso   1.00
O93    O     0.43988   0.20625   0.25000   0.00000  Uiso   1.00
O94    O     0.56012   0.12709   0.25000   0.00000  Uiso   1.00
O95    O     0.56012   0.20625   0.25000   0.00000  Uiso   1.00
O96    O     0.43988   0.12709   0.24999   0.00000  Uiso   1.00
O97    O     0.50000   0.20626   0.18573   0.00000  Uiso   1.00
O98    O     0.50000   0.12707   0.31427   0.00000  Uiso   1.00
O99    O     0.50000   0.20626   0.31427   0.00000  Uiso   1.00
O100   O     0.50000   0.12707   0.18573   0.00000  Uiso   1.00
H101   H     0.52206   0.23806   0.11090   0.00000  Uiso   1.00
H102   H     0.52220   0.09527   0.38923   0.00000  Uiso   1.00
H103   H     0.47794   0.23806   0.38910   0.00000  Uiso   1.00
H104   H     0.47780   0.09528   0.11077   0.00000  Uiso   1.00
H105   H     0.37062   0.09081   0.24995   0.00000  Uiso   1.00
H106   H     0.62938   0.24253   0.25005   0.00000  Uiso   1.00
H107   H     0.62938   0.09081   0.25005   0.00000  Uiso   1.00
H108   H     0.37062   0.24253   0.24995   0.00000  Uiso   1.00
C109   C     0.75401   0.16667   0.24997   0.00000  Uiso   1.00
C110   C     0.91265   0.16667   0.25003   0.00000  Uiso   1.00
C111   C     0.83330   0.16667   0.16495   0.00000  Uiso   1.00
C112   C     0.83337   0.16667   0.33505   0.00000  Uiso   1.00
C113   C     0.80755   0.02481   0.22274   0.00000  Uiso   1.00
C114   C     0.85912   0.30852   0.27725   0.00000  Uiso   1.00
C115   C     0.85912   0.02481   0.27725   0.00000  Uiso   1.00
C116   C     0.80754   0.30852   0.22275   0.00000  Uiso   1.00
C117   C     0.68795   0.12409   0.24997   0.00000  Uiso   1.00
C118   C     0.97872   0.20924   0.25002   0.00000  Uiso   1.00
C119   C     0.97872   0.12409   0.25003   0.00000  Uiso   1.00
C120   C     0.68795   0.20924   0.24998   0.00000  Uiso   1.00
C121   C     0.84581   0.20669   0.04765   0.00000  Uiso   1.00
C122   C     0.84588   0.12661   0.45243   0.00000  Uiso   1.00
C123   C     0.82086   0.20669   0.45235   0.00000  Uiso   1.00
C124   C     0.82079   0.12661   0.04757   0.00000  Uiso   1.00
C125   C     0.84551   0.20681   0.09356   0.00000  Uiso   1.00
C126   C     0.84562   0.12651   0.40651   0.00000  Uiso   1.00
C127   C     0.82116   0.20681   0.40644   0.00000  Uiso   1.00
C128   C     0.82104   0.12651   0.09349   0.00000  Uiso   1.00
C129   C     0.83328   0.16666   0.11672   0.00000  Uiso   1.00
C130   C     0.83339   0.16666   0.38328   0.00000  Uiso   1.00
C131   C     0.83332   0.16665   0.02428   0.00000  Uiso   1.00
C132   C     0.83335   0.16665   0.47572   0.00000  Uiso   1.00
C133   C     0.95726   0.16667   0.25004   0.00000  Uiso   1.00
C134   C     0.70940   0.16667   0.24996   0.00000  Uiso   1.00
Cu135  Cu    0.83333   0.21355   0.25000   0.00000  Uiso   1.00
Cu136  Cu    0.83333   0.11978   0.25000   0.00000  Uiso   1.00
H137   H     0.78690   0.04353   0.20091   0.00000  Uiso   1.00
H138   H     0.87978   0.28981   0.29908   0.00000  Uiso   1.00
H139   H     0.87977   0.04353   0.29909   0.00000  Uiso   1.00
H140   H     0.78689   0.28981   0.20092   0.00000  Uiso   1.00
H141   H     0.85630   0.23773   0.03048   0.00000  Uiso   1.00
H142   H     0.85635   0.09556   0.46967   0.00000  Uiso   1.00
H143   H     0.81037   0.23773   0.46952   0.00000  Uiso   1.00
H144   H     0.81032   0.09556   0.03033   0.00000  Uiso   1.00
N145   N     0.83333   0.28402   0.25000   0.00000  Uiso   1.00
N146   N     0.83333   0.04931   0.25000   0.00000  Uiso   1.00
O147   O     0.77321   0.20625   0.25000   0.00000  Uiso   1.00
O148   O     0.89345   0.12709   0.25000   0.00000  Uiso   1.00
O149   O     0.89345   0.20625   0.25000   0.00000  Uiso   1.00
O150   O     0.77321   0.12709   0.24999   0.00000  Uiso   1.00
O151   O     0.83333   0.20626   0.18573   0.00000  Uiso   1.00
O152   O     0.83334   0.12707   0.31427   0.00000  Uiso   1.00
O153   O     0.83334   0.20626   0.31427   0.00000  Uiso   1.00
O154   O     0.83333   0.12707   0.18573   0.00000  Uiso   1.00
H155   H     0.85540   0.23806   0.11090   0.00000  Uiso   1.00
H156   H     0.85553   0.09527   0.38923   0.00000  Uiso   1.00
H157   H     0.81127   0.23806   0.38910   0.00000  Uiso   1.00
H158   H     0.81114   0.09528   0.11077   0.00000  Uiso   1.00
H159   H     0.70396   0.09081   0.24995   0.00000  Uiso   1.00
H160   H     0.96271   0.24253   0.25005   0.00000  Uiso   1.00
H161   H     0.96271   0.09081   0.25005   0.00000  Uiso   1.00
H162   H     0.70396   0.24253   0.24995   0.00000  Uiso   1.00
C163   C     0.08735   0.50000   0.24997   0.00000  Uiso   1.00
C164   C     0.24599   0.50000   0.25003   0.00000  Uiso   1.00
C165   C     0.16663   0.50000   0.16495   0.00000  Uiso   1.00
C166   C     0.16670   0.50000   0.33505   0.00000  Uiso   1.00
C167   C     0.14088   0.35815   0.22274   0.00000  Uiso   1.00
C168   C     0.19246   0.64186   0.27725   0.00000  Uiso   1.00
C169   C     0.19245   0.35815   0.27725   0.00000  Uiso   1.00
C170   C     0.14088   0.64186   0.22275   0.00000  Uiso   1.00
C171   C     0.02128   0.45743   0.24997   0.00000  Uiso   1.00
C172   C     0.31205   0.54257   0.25002   0.00000  Uiso   1.00
C173   C     0.31205   0.45743   0.25003   0.00000  Uiso   1.00
C174   C     0.02128   0.54257   0.24998   0.00000  Uiso   1.00
C175   C     0.17915   0.54003   0.04765   0.00000  Uiso   1.00
C176   C     0.17921   0.45994   0.45243   0.00000  Uiso   1.00
C177   C     0.15419   0.54003   0.45235   0.00000  Uiso   1.00
C178   C     0.15412   0.45994   0.04757   0.00000  Uiso   1.00
C179   C     0.17884   0.54014   0.09356   0.00000  Uiso   1.00
C180   C     0.17896   0.45985   0.40651   0.00000  Uiso   1.00
C181   C     0.15449   0.54015   0.40644   0.00000  Uiso   1.00
C182   C     0.15438   0.45985   0.09349   0.00000  Uiso   1.00
C183   C     0.16661   0.50000   0.11672   0.00000  Uiso   1.00
C184   C     0.16672   0.50000   0.38328   0.00000  Uiso   1.00
C185   C     0.16665   0.49998   0.02428   0.00000  Uiso   1.00
C186   C     0.16668   0.49998   0.47572   0.00000  Uiso   1.00
C187   C     0.29060   0.50000   0.25004   0.00000  Uiso   1.00
C188   C     0.04274   0.50000   0.24996   0.00000  Uiso   1.00
Cu189  Cu    0.16667   0.54689   0.25000   0.00000  Uiso   1.00
Cu190  Cu    0.16667   0.45311   0.25000   0.00000  Uiso   1.00
H191   H     0.12023   0.37686   0.20091   0.00000  Uiso   1.00
H192   H     0.21311   0.62314   0.29908   0.00000  Uiso   1.00
H193   H     0.21310   0.37686   0.29909   0.00000  Uiso   1.00
H194   H     0.12022   0.62314   0.20092   0.00000  Uiso   1.00
H195   H     0.18964   0.57107   0.03048   0.00000  Uiso   1.00
H196   H     0.18968   0.42890   0.46967   0.00000  Uiso   1.00
H197   H     0.14370   0.57107   0.46952   0.00000  Uiso   1.00
H198   H     0.14365   0.42890   0.03033   0.00000  Uiso   1.00
N199   N     0.16667   0.61736   0.25000   0.00000  Uiso   1.00
N200   N     0.16667   0.38264   0.25000   0.00000  Uiso   1.00
O201   O     0.10655   0.53958   0.25000   0.00000  Uiso   1.00
O202   O     0.22679   0.46042   0.25000   0.00000  Uiso   1.00
O203   O     0.22679   0.53958   0.25000   0.00000  Uiso   1.00
O204   O     0.10655   0.46042   0.24999   0.00000  Uiso   1.00
O205   O     0.16666   0.53959   0.18573   0.00000  Uiso   1.00
O206   O     0.16667   0.46041   0.31427   0.00000  Uiso   1.00
O207   O     0.16667   0.53959   0.31427   0.00000  Uiso   1.00
O208   O     0.16666   0.46041   0.18573   0.00000  Uiso   1.00
H209   H     0.18873   0.57139   0.11090   0.00000  Uiso   1.00
H210   H     0.18886   0.42861   0.38923   0.00000  Uiso   1.00
H211   H     0.14461   0.57139   0.38910   0.00000  Uiso   1.00
H212   H     0.14447   0.42861   0.11077   0.00000  Uiso   1.00
H213   H     0.03729   0.42414   0.24995   0.00000  Uiso   1.00
H214   H     0.29604   0.57586   0.25005   0.00000  Uiso   1.00
H215   H     0.29604   0.42414   0.25005   0.00000  Uiso   1.00
H216   H     0.03729   0.57586   0.24995   0.00000  Uiso   1.00
C217   C     0.42068   0.50000   0.24997   0.00000  Uiso   1.00
C218   C     0.57932   0.50000   0.25003   0.00000  Uiso   1.00
C219   C     0.49996   0.50000   0.16495   0.00000  Uiso   1.00
C220   C     0.50004   0.50000   0.33505   0.00000  Uiso   1.00
C221   C     0.47421   0.35815   0.22274   0.00000  Uiso   1.00
C222   C     0.52579   0.64186   0.27725   0.00000  Uiso   1.00
C223   C     0.52579   0.35815   0.27725   0.00000  Uiso   1.00
C224   C     0.47421   0.64186   0.22275   0.00000  Uiso   1.00
C225   C     0.35462   0.45743   0.24997   0.00000  Uiso   1.00
C226   C     0.64538   0.54257   0.25002   0.00000  Uiso   1.00
C227   C     0.64539   0.45743   0.25003   0.00000  Uiso   1.00
C228   C     0.35462   0.54257   0.24998   0.00000  Uiso   1.00
C229   C     0.51248   0.54003   0.04765   0.00000  Uiso   1.00
C230   C     0.51254   0.45994   0.45243   0.00000  Uiso   1.00
C231   C     0.48752   0.54003   0.45235   0.00000  Uiso   1.00
C232   C     0.48746   0.45994   0.04757   0.00000  Uiso   1.00
C233   C     0.51218   0.54014   0.09356   0.00000  Uiso   1.00
C234   C     0.51229   0.45985   0.40651   0.00000  Uiso   1.00
C235   C     0.48783   0.54015   0.40644   0.00000  Uiso   1.00
C236   C     0.48771   0.45985   0.09349   0.00000  Uiso   1.00
C237   C     0.49994   0.50000   0.11672   0.00000  Uiso   1.00
C238   C     0.50006   0.50000   0.38328   0.00000  Uiso   1.00
C239   C     0.49999   0.49998   0.02428   0.00000  Uiso   1.00
C240   C     0.50002   0.49998   0.47572   0.00000  Uiso   1.00
C241   C     0.62393   0.50000   0.25004   0.00000  Uiso   1.00
C242   C     0.37607   0.50000   0.24996   0.00000  Uiso   1.00
Cu243  Cu    0.50000   0.54689   0.25000   0.00000  Uiso   1.00
Cu244  Cu    0.50000   0.45311   0.25000   0.00000  Uiso   1.00
H245   H     0.45356   0.37686   0.20091   0.00000  Uiso   1.00
H246   H     0.54645   0.62314   0.29908   0.00000  Uiso   1.00
H247   H     0.54644   0.37686   0.29909   0.00000  Uiso   1.00
H248   H     0.45355   0.62314   0.20092   0.00000  Uiso   1.00
H249   H     0.52297   0.57107   0.03048   0.00000  Uiso   1.00
H250   H     0.52301   0.42890   0.46967   0.00000  Uiso   1.00
H251   H     0.47703   0.57107   0.46952   0.00000  Uiso   1.00
H252   H     0.47699   0.42890   0.03033   0.00000  Uiso   1.00
N253   N     0.50000   0.61736   0.25000   0.00000  Uiso   1.00
N254   N     0.50000   0.38264   0.25000   0.00000  Uiso   1.00
O255   O     0.43988   0.53958   0.25000   0.00000  Uiso   1.00
O256   O     0.56012   0.46042   0.25000   0.00000  Uiso   1.00
O257   O     0.56012   0.53958   0.25000   0.00000  Uiso   1.00
O258   O     0.43988   0.46042   0.24999   0.00000  Uiso   1.00
O259   O     0.50000   0.53959   0.18573   0.00000  Uiso   1.00
O260   O     0.50000   0.46041   0.31427   0.00000  Uiso   1.00
O261   O     0.50000   0.53959   0.31427   0.00000  Uiso   1.00
O262   O     0.50000   0.46041   0.18573   0.00000  Uiso   1.00
H263   H     0.52206   0.57139   0.11090   0.00000  Uiso   1.00
H264   H     0.52220   0.42861   0.38923   0.00000  Uiso   1.00
H265   H     0.47794   0.57139   0.38910   0.00000  Uiso   1.00
H266   H     0.47780   0.42861   0.11077   0.00000  Uiso   1.00
H267   H     0.37062   0.42414   0.24995   0.00000  Uiso   1.00
H268   H     0.62938   0.57586   0.25005   0.00000  Uiso   1.00
H269   H     0.62938   0.42414   0.25005   0.00000  Uiso   1.00
H270   H     0.37062   0.57586   0.24995   0.00000  Uiso   1.00
C271   C     0.75401   0.50000   0.24997   0.00000  Uiso   1.00
C272   C     0.91265   0.50000   0.25003   0.00000  Uiso   1.00
C273   C     0.83330   0.50000   0.16495   0.00000  Uiso   1.00
C274   C     0.83337   0.50000   0.33505   0.00000  Uiso   1.00
C275   C     0.80755   0.35815   0.22274   0.00000  Uiso   1.00
C276   C     0.85912   0.64186   0.27725   0.00000  Uiso   1.00
C277   C     0.85912   0.35815   0.27725   0.00000  Uiso   1.00
C278   C     0.80754   0.64186   0.22275   0.00000  Uiso   1.00
C279   C     0.68795   0.45743   0.24997   0.00000  Uiso   1.00
C280   C     0.97872   0.54257   0.25002   0.00000  Uiso   1.00
C281   C     0.97872   0.45743   0.25003   0.00000  Uiso   1.00
C282   C     0.68795   0.54257   0.24998   0.00000  Uiso   1.00
C283   C     0.84581   0.54003   0.04765   0.00000  Uiso   1.00
C284   C     0.84588   0.45994   0.45243   0.00000  Uiso   1.00
C285   C     0.82086   0.54003   0.45235   0.00000  Uiso   1.00
C286   C     0.82079   0.45994   0.04757   0.00000  Uiso   1.00
C287   C     0.84551   0.54014   0.09356   0.00000  Uiso   1.00
C288   C     0.84562   0.45985   0.40651   0.00000  Uiso   1.00
C289   C     0.82116   0.54015   0.40644   0.00000  Uiso   1.00
C290   C     0.82104   0.45985   0.09349   0.00000  Uiso   1.00
C291   C     0.83328   0.50000   0.11672   0.00000  Uiso   1.00
C292   C     0.83339   0.50000   0.38328   0.00000  Uiso   1.00
C293   C     0.83332   0.49998   0.02428   0.00000  Uiso   1.00
C294   C     0.83335   0.49998   0.47572   0.00000  Uiso   1.00
C295   C     0.95726   0.50000   0.25004   0.00000  Uiso   1.00
C296   C     0.70940   0.50000   0.24996   0.00000  Uiso   1.00
Cu297  Cu    0.83333   0.54689   0.25000   0.00000  Uiso   1.00
Cu298  Cu    0.83333   0.45311   0.25000   0.00000  Uiso   1.00
H299   H     0.78690   0.37686   0.20091   0.00000  Uiso   1.00
H300   H     0.87978   0.62314   0.29908   0.00000  Uiso   1.00
H301   H     0.87977   0.37686   0.29909   0.00000  Uiso   1.00
H302   H     0.78689   0.62314   0.20092   0.00000  Uiso   1.00
H303   H     0.85630   0.57107   0.03048   0.00000  Uiso   1.00
H304   H     0.85635   0.42890   0.46967   0.00000  Uiso   1.00
H305   H     0.81037   0.57107   0.46952   0.00000  Uiso   1.00
H306   H     0.81032   0.42890   0.03033   0.00000  Uiso   1.00
N307   N     0.83333   0.61736   0.25000   0.00000  Uiso   1.00
N308   N     0.83333   0.38264   0.25000   0.00000  Uiso   1.00
O309   O     0.77321   0.53958   0.25000   0.00000  Uiso   1.00
O310   O     0.89345   0.46042   0.25000   0.00000  Uiso   1.00
O311   O     0.89345   0.53958   0.25000   0.00000  Uiso   1.00
O312   O     0.77321   0.46042   0.24999   0.00000  Uiso   1.00
O313   O     0.83333   0.53959   0.18573   0.00000  Uiso   1.00
O314   O     0.83334   0.46041   0.31427   0.00000  Uiso   1.00
O315   O     0.83334   0.53959   0.31427   0.00000  Uiso   1.00
O316   O     0.83333   0.46041   0.18573   0.00000  Uiso   1.00
H317   H     0.85540   0.57139   0.11090   0.00000  Uiso   1.00
H318   H     0.85553   0.42861   0.38923   0.00000  Uiso   1.00
H319   H     0.81127   0.57139   0.38910   0.00000  Uiso   1.00
H320   H     0.81114   0.42861   0.11077   0.00000  Uiso   1.00
H321   H     0.70396   0.42414   0.24995   0.00000  Uiso   1.00
H322   H     0.96271   0.57586   0.25005   0.00000  Uiso   1.00
H323   H     0.96271   0.42414   0.25005   0.00000  Uiso   1.00
H324   H     0.70396   0.57586   0.24995   0.00000  Uiso   1.00
C325   C     0.08735   0.83333   0.24997   0.00000  Uiso   1.00
C326   C     0.24599   0.83333   0.25003   0.00000  Uiso   1.00
C327   C     0.16663   0.83333   0.16495   0.00000  Uiso   1.00
C328   C     0.16670   0.83333   0.33505   0.00000  Uiso   1.00
C329   C     0.14088   0.69148   0.22274   0.00000  Uiso   1.00
C330   C     0.19246   0.97519   0.27725   0.00000  Uiso   1.00
C331   C     0.19245   0.69148   0.27725   0.00000  Uiso   1.00
C332   C     0.14088   0.97519   0.22275   0.00000  Uiso   1.00
C333   C     0.02128   0.79076   0.24997   0.00000  Uiso   1.00
C334   C     0.31205   0.87591   0.25002   0.00000  Uiso   1.00
C335   C     0.31205   0.79076   0.25003   0.00000  Uiso   1.00
C336   C     0.02128   0.87591   0.24998   0.00000  Uiso   1.00
C337   C     0.17915   0.87336   0.04765   0.00000  Uiso   1.00
C338   C     0.17921   0.79327   0.45243   0.00000  Uiso   1.00
C339   C     0.15419   0.87336   0.45235   0.00000  Uiso   1.00
C340   C     0.15412   0.79328   0.04757   0.00000  Uiso   1.00
C341   C     0.17884   0.87348   0.09356   0.00000  Uiso   1.00
C342   C     0.17896   0.79318   0.40651   0.00000  Uiso   1.00
C343   C     0.15449   0.87348   0.40644   0.00000  Uiso   1.00
C344   C     0.15438   0.79318   0.09349   0.00000  Uiso   1.00
C345   C     0.16661   0.83333   0.11672   0.00000  Uiso   1.00
C346   C     0.16672   0.83333   0.38328   0.00000  Uiso   1.00
C347   C     0.16665   0.83331   0.02428   0.00000  Uiso   1.00
C348   C     0.16668   0.83331   0.47572   0.00000  Uiso   1.00
C349   C     0.29060   0.83333   0.25004   0.00000  Uiso   1.00
C350   C     0.04274   0.83333   0.24996   0.00000  Uiso   1.00
Cu351  Cu    0.16667   0.88022   0.25000   0.00000  Uiso   1.00
Cu352  Cu    0.16667   0.78645   0.25000   0.00000  Uiso   1.00
H353   H     0.12023   0.71019   0.20091   0.00000  Uiso   1.00
H354   H     0.21311   0.95648   0.29908   0.00000  Uiso   1.00
H355   H     0.21310   0.71019   0.29909   0.00000  Uiso   1.00
H356   H     0.12022   0.95648   0.20092   0.00000  Uiso   1.00
H357   H     0.18964   0.90440   0.03048   0.00000  Uiso   1.00
H358   H     0.18968   0.76223   0.46967   0.00000  Uiso   1.00
H359   H     0.14370   0.90440   0.46952   0.00000  Uiso   1.00
H360   H     0.14365   0.76223   0.03033   0.00000  Uiso   1.00
N361   N     0.16667   0.95069   0.25000   0.00000  Uiso   1.00
N362   N     0.16667   0.71598   0.25000   0.00000  Uiso   1.00
O363   O     0.10655   0.87291   0.25000   0.00000  Uiso   1.00
O364   O     0.22679   0.79375   0.25000   0.00000  Uiso   1.00
O365   O     0.22679   0.87291   0.25000   0.00000  Uiso   1.00
O366   O     0.10655   0.79375   0.24999   0.00000  Uiso   1.00
O367   O     0.16666   0.87293   0.18573   0.00000  Uiso   1.00
O368   O     0.16667   0.79374   0.31427   0.00000  Uiso   1.00
O369   O     0.16667   0.87293   0.31427   0.00000  Uiso   1.00
O370   O     0.16666   0.79374   0.18573   0.00000  Uiso   1.00
H371   H     0.18873   0.90473   0.11090   0.00000  Uiso   1.00
H372   H     0.18886   0.76194   0.38923   0.00000  Uiso   1.00
H373   H     0.14461   0.90473   0.38910   0.00000  Uiso   1.00
H374   H     0.14447   0.76194   0.11077   0.00000  Uiso   1.00
H375   H     0.03729   0.75747   0.24995   0.00000  Uiso   1.00
H376   H     0.29604   0.90919   0.25005   0.00000  Uiso   1.00
H377   H     0.29604   0.75747   0.25005   0.00000  Uiso   1.00
H378   H     0.03729   0.90919   0.24995   0.00000  Uiso   1.00
C379   C     0.42068   0.83333   0.24997   0.00000  Uiso   1.00
C380   C     0.57932   0.83333   0.25003   0.00000  Uiso   1.00
C381   C     0.49996   0.83333   0.16495   0.00000  Uiso   1.00
C382   C     0.50004   0.83333   0.33505   0.00000  Uiso   1.00
C383   C     0.47421   0.69148   0.22274   0.00000  Uiso   1.00
C384   C     0.52579   0.97519   0.27725   0.00000  Uiso   1.00
C385   C     0.52579   0.69148   0.27725   0.00000  Uiso   1.00
C386   C     0.47421   0.97519   0.22275   0.00000  Uiso   1.00
C387   C     0.35462   0.79076   0.24997   0.00000  Uiso   1.00
C388   C     0.64538   0.87591   0.25002   0.00000  Uiso   1.00
C389   C     0.64539   0.79076   0.25003   0.00000  Uiso   1.00
C390   C     0.35462   0.87591   0.24998   0.00000  Uiso   1.00
C391   C     0.51248   0.87336   0.04765   0.00000  Uiso   1.00
C392   C     0.51254   0.79327   0.45243   0.00000  Uiso   1.00
C393   C     0.48752   0.87336   0.45235   0.00000  Uiso   1.00
C394   C     0.48746   0.79328   0.04757   0.00000  Uiso   1.00
C395   C     0.51218   0.87348   0.09356   0.00000  Uiso   1.00
C396   C     0.51229   0.79318   0.40651   0.00000  Uiso   1.00
C397   C     0.48783   0.87348   0.40644   0.00000  Uiso   1.00
C398   C     0.48771   0.79318   0.09349   0.00000  Uiso   1.00
C399   C     0.49994   0.83333   0.11672   0.00000  Uiso   1.00
C400   C     0.50006   0.83333   0.38328   0.00000  Uiso   1.00
C401   C     0.49999   0.83331   0.02428   0.00000  Uiso   1.00
C402   C     0.50002   0.83331   0.47572   0.00000  Uiso   1.00
C403   C     0.62393   0.83333   0.25004   0.00000  Uiso   1.00
C404   C     0.37607   0.83333   0.24996   0.00000  Uiso   1.00
Cu405  Cu    0.50000   0.88022   0.25000   0.00000  Uiso   1.00
Cu406  Cu    0.50000   0.78645   0.25000   0.00000  Uiso   1.00
H407   H     0.45356   0.71019   0.20091   0.00000  Uiso   1.00
H408   H     0.54645   0.95648   0.29908   0.00000  Uiso   1.00
H409   H     0.54644   0.71019   0.29909   0.00000  Uiso   1.00
H410   H     0.45355   0.95648   0.20092   0.00000  Uiso   1.00
H411   H     0.52297   0.90440   0.03048   0.00000  Uiso   1.00
H412   H     0.52301   0.76223   0.46967   0.00000  Uiso   1.00
H413   H     0.47703   0.90440   0.46952   0.00000  Uiso   1.00
H414   H     0.47699   0.76223   0.03033   0.00000  Uiso   1.00
N415   N     0.50000   0.95069   0.25000   0.00000  Uiso   1.00
N416   N     0.50000   0.71598   0.25000   0.00000  Uiso   1.00
O417   O     0.43988   0.87291   0.25000   0.00000  Uiso   1.00
O418   O     0.56012   0.79375   0.25000   0.00000  Uiso   1.00
O419   O     0.56012   0.87291   0.25000   0.00000  Uiso   1.00
O420   O     0.43988   0.79375   0.24999   0.00000  Uiso   1.00
O421   O     0.50000   0.87293   0.18573   0.00000  Uiso   1.00
O422   O     0.50000   0.79374   0.31427   0.00000  Uiso   1.00
O423   O     0.50000   0.87293   0.31427   0.00000  Uiso   1.00
O424   O     0.50000   0.79374   0.18573   0.00000  Uiso   1.00
H425   H     0.52206   0.90473   0.11090   0.00000  Uiso   1.00
H426   H     0.52220   0.76194   0.38923   0.00000  Uiso   1.00
H427   H     0.47794   0.90473   0.38910   0.00000  Uiso   1.00
H428   H     0.47780   0.76194   0.11077   0.00000  Uiso   1.00
H429   H     0.37062   0.75747   0.24995   0.00000  Uiso   1.00
H430   H     0.62938   0.90919   0.25005   0.00000  Uiso   1.00
H431   H     0.62938   0.75747   0.25005   0.00000  Uiso   1.00
H432   H     0.37062   0.90919   0.24995   0.00000  Uiso   1.00
C433   C     0.75401   0.83333   0.24997   0.00000  Uiso   1.00
C434   C     0.91265   0.83333   0.25003   0.00000  Uiso   1.00
C435   C     0.83330   0.83333   0.16495   0.00000  Uiso   1.00
C436   C     0.83337   0.83333   0.33505   0.00000  Uiso   1.00
C437   C     0.80755   0.69148   0.22274   0.00000  Uiso   1.00
C438   C     0.85912   0.97519   0.27725   0.00000  Uiso   1.00
C439   C     0.85912   0.69148   0.27725   0.00000  Uiso   1.00
C440   C     0.80754   0.97519   0.22275   0.00000  Uiso   1.00
C441   C     0.68795   0.79076   0.24997   0.00000  Uiso   1.00
C442   C     0.97872   0.87591   0.25002   0.00000  Uiso   1.00
C443   C     0.97872   0.79076   0.25003   0.00000  Uiso   1.00
C444   C     0.68795   0.87591   0.24998   0.00000  Uiso   1.00
C445   C     0.84581   0.87336   0.04765   0.00000  Uiso   1.00
C446   C     0.84588   0.79327   0.45243   0.00000  Uiso   1.00
C447   C     0.82086   0.87336   0.45235   0.00000  Uiso   1.00
C448   C     0.82079   0.79328   0.04757   0.00000  Uiso   1.00
C449   C     0.84551   0.87348   0.09356   0.00000  Uiso   1.00
C450   C     0.84562   0.79318   0.40651   0.00000  Uiso   1.00
C451   C     0.82116   0.87348   0.40644   0.00000  Uiso   1.00
C452   C     0.82104   0.79318   0.09349   0.00000  Uiso   1.00
C453   C     0.83328   0.83333   0.11672   0.00000  Uiso   1.00
C454   C     0.83339   0.83333   0.38328   0.00000  Uiso   1.00
C455   C     0.83332   0.83331   0.02428   0.00000  Uiso   1.00
C456   C     0.83335   0.83331   0.47572   0.00000  Uiso   1.00
C457   C     0.95726   0.83333   0.25004   0.00000  Uiso   1.00
C458   C     0.70940   0.83333   0.24996   0.00000  Uiso   1.00
Cu459  Cu    0.83333   0.88022   0.25000   0.00000  Uiso   1.00
Cu460  Cu    0.83333   0.78645   0.25000   0.00000  Uiso   1.00
H461   H     0.78690   0.71019   0.20091   0.00000  Uiso   1.00
H462   H     0.87978   0.95648   0.29908   0.00000  Uiso   1.00
H463   H     0.87977   0.71019   0.29909   0.00000  Uiso   1.00
H464   H     0.78689   0.95648   0.20092   0.00000  Uiso   1.00
H465   H     0.85630   0.90440   0.03048   0.00000  Uiso   1.00
H466   H     0.85635   0.76223   0.46967   0.00000  Uiso   1.00
H467   H     0.81037   0.90440   0.46952   0.00000  Uiso   1.00
H468   H     0.81032   0.76223   0.03033   0.00000  Uiso   1.00
N469   N     0.83333   0.95069   0.25000   0.00000  Uiso   1.00
N470   N     0.83333   0.71598   0.25000   0.00000  Uiso   1.00
O471   O     0.77321   0.87291   0.25000   0.00000  Uiso   1.00
O472   O     0.89345   0.79375   0.25000   0.00000  Uiso   1.00
O473   O     0.89345   0.87291   0.25000   0.00000  Uiso   1.00
O474   O     0.77321   0.79375   0.24999   0.00000  Uiso   1.00
O475   O     0.83333   0.87293   0.18573   0.00000  Uiso   1.00
O476   O     0.83334   0.79374   0.31427   0.00000  Uiso   1.00
O477   O     0.83334   0.87293   0.31427   0.00000  Uiso   1.00
O478   O     0.83333   0.79374   0.18573   0.00000  Uiso   1.00
H479   H     0.85540   0.90473   0.11090   0.00000  Uiso   1.00
H480   H     0.85553   0.76194   0.38923   0.00000  Uiso   1.00
H481   H     0.81127   0.90473   0.38910   0.00000  Uiso   1.00
H482   H     0.81114   0.76194   0.11077   0.00000  Uiso   1.00
H483   H     0.70396   0.75747   0.24995   0.00000  Uiso   1.00
H484   H     0.96271   0.90919   0.25005   0.00000  Uiso   1.00
H485   H     0.96271   0.75747   0.25005   0.00000  Uiso   1.00
H486   H     0.70396   0.90919   0.24995   0.00000  Uiso   1.00
C487   C     0.08735   0.16667   0.74997   0.00000  Uiso   1.00
C488   C     0.24599   0.16667   0.75003   0.00000  Uiso   1.00
C489   C     0.16663   0.16667   0.66495   0.00000  Uiso   1.00
C490   C     0.16670   0.16667   0.83505   0.00000  Uiso   1.00
C491   C     0.14088   0.02481   0.72274   0.00000  Uiso   1.00
C492   C     0.19246   0.30852   0.77725   0.00000  Uiso   1.00
C493   C     0.19245   0.02481   0.77725   0.00000  Uiso   1.00
C494   C     0.14088   0.30852   0.72275   0.00000  Uiso   1.00
C495   C     0.02128   0.12409   0.74997   0.00000  Uiso   1.00
C496   C     0.31205   0.20924   0.75002   0.00000  Uiso   1.00
C497   C     0.31205   0.12409   0.75003   0.00000  Uiso   1.00
C498   C     0.02128   0.20924   0.74998   0.00000  Uiso   1.00
C499   C     0.17915   0.20669   0.54765   0.00000  Uiso   1.00
C500   C     0.17921   0.12661   0.95243   0.00000  Uiso   1.00
C501   C     0.15419   0.20669   0.95235   0.00000  Uiso   1.00
C502   C     0.15412   0.12661   0.54757   0.00000  Uiso   1.00
C503   C     0.17884   0.20681   0.59356   0.00000  Uiso   1.00
C504   C     0.17896   0.12651   0.90651   0.00000  Uiso   1.00
C505   C     0.15449   0.20681   0.90644   0.00000  Uiso   1.00
C506   C     0.15438   0.12651   0.59349   0.00000  Uiso   1.00
C507   C     0.16661   0.16666   0.61672   0.00000  Uiso   1.00
C508   C     0.16672   0.16666   0.88328   0.00000  Uiso   1.00
C509   C     0.16665   0.16665   0.52428   0.00000  Uiso   1.00
C510   C     0.16668   0.16665   0.97572   0.00000  Uiso   1.00
C511   C     0.29060   0.16667   0.75004   0.00000  Uiso   1.00
C512   C     0.04274   0.16667   0.74996   0.00000  Uiso   1.00
Cu513  Cu    0.16667   0.21355   0.75000   0.00000  Uiso   1.00
Cu514  Cu    0.16667   0.11978   0.75000   0.00000  Uiso   1.00
H515   H     0.12023   0.04353   0.70091   0.00000  Uiso   1.00
H516   H     0.21311   0.28981   0.79908   0.00000  Uiso   1.00
H517   H     0.21310   0.04353   0.79909   0.00000  Uiso   1.00
H518   H     0.12022   0.28981   0.70092   0.00000  Uiso   1.00
H519   H     0.18964   0.23773   0.53048   0.00000  Uiso   1.00
H520   H     0.18968   0.09556   0.96967   0.00000  Uiso   1.00
H521   H     0.14370   0.23773   0.96952   0.00000  Uiso   1.00
H522   H     0.14365   0.09556   0.53033   0.00000  Uiso   1.00
N523   N     0.16667   0.28402   0.75000   0.00000  Uiso   1.00
N524   N     0.16667   0.04931   0.75000   0.00000  Uiso   1.00
O525   O     0.10655   0.20625   0.75000   0.00000  Uiso   1.00
O526   O     0.22679   0.12709   0.75000   0.00000  Uiso   1.00
O527   O     0.22679   0.20625   0.75000   0.00000  Uiso   1.00
O528   O     0.10655   0.12709   0.74999   0.00000  Uiso   1.00
O529   O     0.16666   0.20626   0.68573   0.00000  Uiso   1.00
O530   O     0.16667   0.12707   0.81427   0.00000  Uiso   1.00
O531   O     0.16667   0.20626   0.81427   0.00000  Uiso   1.00
O532   O     0.16666   0.12707   0.68573   0.00000  Uiso   1.00
H533   H     0.18873   0.23806   0.61090   0.00000  Uiso   1.00
H534   H     0.18886   0.09527   0.88923   0.00000  Uiso   1.00
H535   H     0.14461   0.23806   0.88910   0.00000  Uiso   1.00
H536   H     0.14447   0.09528   0.61077   0.00000  Uiso   1.00
H537   H     0.03729   0.09081   0.74995   0.00000  Uiso   1.00
H538   H     0.29604   0.24253   0.75005   0.00000  Uiso   1.00
H539   H     0.29604   0.09081   0.75005   0.00000  Uiso   1.00
H540   H     0.03729   0.24253   0.74995   0.00000  Uiso   1.00
C541   C     0.42068   0.16667   0.74997   0.00000  Uiso   1.00
C542   C     0.57932   0.16667   0.75003   0.00000  Uiso   1.00
C543   C     0.49996   0.16667   0.66495   0.00000  Uiso   1.00
C544   C     0.50004   0.16667   0.83505   0.00000  Uiso   1.00
C545   C     0.47421   0.02481   0.72274   0.00000  Uiso   1.00
C546   C     0.52579   0.30852   0.77725   0.00000  Uiso   1.00
C547   C     0.52579   0.02481   0.77725   0.00000  Uiso   1.00
C548   C     0.47421   0.30852   0.72275   0.00000  Uiso   1.00
C549   C     0.35462   0.12409   0.74997   0.00000  Uiso   1.00
C550   C     0.64538   0.20924   0.75002   0.00000  Uiso   1.00
C551   C     0.64539   0.12409   0.75003   0.00000  Uiso   1.00
C552   C     0.35462   0.20924   0.74998   0.00000  Uiso   1.00
C553   C     0.51248   0.20669   0.54765   0.00000  Uiso   1.00
C554   C     0.51254   0.12661   0.95243   0.00000  Uiso   1.00
C555   C     0.48752   0.20669   0.95235   0.00000  Uiso   1.00
C556   C     0.48746   0.12661   0.54757   0.00000  Uiso   1.00
C557   C     0.51218   0.20681   0.59356   0.00000  Uiso   1.00
C558   C     0.51229   0.12651   0.90651   0.00000  Uiso   1.00
C559   C     0.48783   0.20681   0.90644   0.00000  Uiso   1.00
C560   C     0.48771   0.12651   0.59349   0.00000  Uiso   1.00
C561   C     0.49994   0.16666   0.61672   0.00000  Uiso   1.00
C562   C     0.50006   0.16666   0.88328   0.00000  Uiso   1.00
C563   C     0.49999   0.16665   0.52428   0.00000  Uiso   1.00
C564   C     0.50002   0.16665   0.97572   0.00000  Uiso   1.00
C565   C     0.62393   0.16667   0.75004   0.00000  Uiso   1.00
C566   C     0.37607   0.16667   0.74996   0.00000  Uiso   1.00
Cu567  Cu    0.50000   0.21355   0.75000   0.00000  Uiso   1.00
Cu568  Cu    0.50000   0.11978   0.75000   0.00000  Uiso   1.00
H569   H     0.45356   0.04353   0.70091   0.00000  Uiso   1.00
H570   H     0.54645   0.28981   0.79908   0.00000  Uiso   1.00
H571   H     0.54644   0.04353   0.79909   0.00000  Uiso   1.00
H572   H     0.45355   0.28981   0.70092   0.00000  Uiso   1.00
H573   H     0.52297   0.23773   0.53048   0.00000  Uiso   1.00
H574   H     0.52301   0.09556   0.96967   0.00000  Uiso   1.00
H575   H     0.47703   0.23773   0.96952   0.00000  Uiso   1.00
H576   H     0.47699   0.09556   0.53033   0.00000  Uiso   1.00
N577   N     0.50000   0.28402   0.75000   0.00000  Uiso   1.00
N578   N     0.50000   0.04931   0.75000   0.00000  Uiso   1.00
O579   O     0.43988   0.20625   0.75000   0.00000  Uiso   1.00
O580   O     0.56012   0.12709   0.75000   0.00000  Uiso   1.00
O581   O     0.56012   0.20625   0.75000   0.00000  Uiso   1.00
O582   O     0.43988   0.12709   0.74999   0.00000  Uiso   1.00
O583   O     0.50000   0.20626   0.68573   0.00000  Uiso   1.00
O584   O     0.50000   0.12707   0.81427   0.00000  Uiso   1.00
O585   O     0.50000   0.20626   0.81427   0.00000  Uiso   1.00
O586   O     0.50000   0.12707   0.68573   0.00000  Uiso   1.00
H587   H     0.52206   0.23806   0.61090   0.00000  Uiso   1.00
H588   H     0.52220   0.09527   0.88923   0.00000  Uiso   1.00
H589   H     0.47794   0.23806   0.88910   0.00000  Uiso   1.00
H590   H     0.47780   0.09528   0.61077   0.00000  Uiso   1.00
H591   H     0.37062   0.09081   0.74995   0.00000  Uiso   1.00
H592   H     0.62938   0.24253   0.75005   0.00000  Uiso   1.00
H593   H     0.62938   0.09081   0.75005   0.00000  Uiso   1.00
H594   H     0.37062   0.24253   0.74995   0.00000  Uiso   1.00
C595   C     0.75401   0.16667   0.74997   0.00000  Uiso   1.00
C596   C     0.91265   0.16667   0.75003   0.00000  Uiso   1.00
C597   C     0.83330   0.16667   0.66495   0.00000  Uiso   1.00
C598   C     0.83337   0.16667   0.83505   0.00000  Uiso   1.00
C599   C     0.80755   0.02481   0.72274   0.00000  Uiso   1.00
C600   C     0.85912   0.30852   0.77725   0.00000  Uiso   1.00
C601   C     0.85912   0.02481   0.77725   0.00000  Uiso   1.00
C602   C     0.80754   0.30852   0.72275   0.00000  Uiso   1.00
C603   C     0.68795   0.12409   0.74997   0.00000  Uiso   1.00
C604   C     0.97872   0.20924   0.75002   0.00000  Uiso   1.00
C605   C     0.97872   0.12409   0.75003   0.00000  Uiso   1.00
C606   C     0.68795   0.20924   0.74998   0.00000  Uiso   1.00
C607   C     0.84581   0.20669   0.54765   0.00000  Uiso   1.00
C608   C     0.84588   0.12661   0.95243   0.00000  Uiso   1.00
C609   C     0.82086   0.20669   0.95235   0.00000  Uiso   1.00
C610   C     0.82079   0.12661   0.54757   0.00000  Uiso   1.00
C611   C     0.84551   0.20681   0.59356   0.00000  Uiso   1.00
C612   C     0.84562   0.12651   0.90651   0.00000  Uiso   1.00
C613   C     0.82116   0.20681   0.90644   0.00000  Uiso   1.00
C614   C     0.82104   0.12651   0.59349   0.00000  Uiso   1.00
C615   C     0.83328   0.16666   0.61672   0.00000  Uiso   1.00
C616   C     0.83339   0.16666   0.88328   0.00000  Uiso   1.00
C617   C     0.83332   0.16665   0.52428   0.00000  Uiso   1.00
C618   C     0.83335   0.16665   0.97572   0.00000  Uiso   1.00
C619   C     0.95726   0.16667   0.75004   0.00000  Uiso   1.00
C620   C     0.70940   0.16667   0.74996   0.00000  Uiso   1.00
Cu621  Cu    0.83333   0.21355   0.75000   0.00000  Uiso   1.00
Cu622  Cu    0.83333   0.11978   0.75000   0.00000  Uiso   1.00
H623   H     0.78690   0.04353   0.70091   0.00000  Uiso   1.00
H624   H     0.87978   0.28981   0.79908   0.00000  Uiso   1.00
H625   H     0.87977   0.04353   0.79909   0.00000  Uiso   1.00
H626   H     0.78689   0.28981   0.70092   0.00000  Uiso   1.00
H627   H     0.85630   0.23773   0.53048   0.00000  Uiso   1.00
H628   H     0.85635   0.09556   0.96967   0.00000  Uiso   1.00
H629   H     0.81037   0.23773   0.96952   0.00000  Uiso   1.00
H630   H     0.81032   0.09556   0.53033   0.00000  Uiso   1.00
N631   N     0.83333   0.28402   0.75000   0.00000  Uiso   1.00
N632   N     0.83333   0.04931   0.75000   0.00000  Uiso   1.00
O633   O     0.77321   0.20625   0.75000   0.00000  Uiso   1.00
O634   O     0.89345   0.12709   0.75000   0.00000  Uiso   1.00
O635   O     0.89345   0.20625   0.75000   0.00000  Uiso   1.00
O636   O     0.77321   0.12709   0.74999   0.00000  Uiso   1.00
O637   O     0.83333   0.20626   0.68573   0.00000  Uiso   1.00
O638   O     0.83334   0.12707   0.81427   0.00000  Uiso   1.00
O639   O     0.83334   0.20626   0.81427   0.00000  Uiso   1.00
O640   O     0.83333   0.12707   0.68573   0.00000  Uiso   1.00
H641   H     0.85540   0.23806   0.61090   0.00000  Uiso   1.00
H642   H     0.85553   0.09527   0.88923   0.00000  Uiso   1.00
H643   H     0.81127   0.23806   0.88910   0.00000  Uiso   1.00
H644   H     0.81114   0.09528   0.61077   0.00000  Uiso   1.00
H645   H     0.70396   0.09081   0.74995   0.00000  Uiso   1.00
H646   H     0.96271   0.24253   0.75005   0.00000  Uiso   1.00
H647   H     0.96271   0.09081   0.75005   0.00000  Uiso   1.00
H648   H     0.70396   0.24253   0.74995   0.00000  Uiso   1.00
C649   C     0.08735   0.50000   0.74997   0.00000  Uiso   1.00
C650   C     0.24599   0.50000   0.75003   0.00000  Uiso   1.00
C651   C     0.16663   0.50000   0.66495   0.00000  Uiso   1.00
C652   C     0.16670   0.50000   0.83505   0.00000  Uiso   1.00
C653   C     0.14088   0.35815   0.72274   0.00000  Uiso   1.00
C654   C     0.19246   0.64186   0.77725   0.00000  Uiso   1.00
C655   C     0.19245   0.35815   0.77725   0.00000  Uiso   1.00
C656   C     0.14088   0.64186   0.72275   0.00000  Uiso   1.00
C657   C     0.02128   0.45743   0.74997   0.00000  Uiso   1.00
C658   C     0.31205   0.54257   0.75002   0.00000  Uiso   1.00
C659   C     0.31205   0.45743   0.75003   0.00000  Uiso   1.00
C660   C     0.02128   0.54257   0.74998   0.00000  Uiso   1.00
C661   C     0.17915   0.54003   0.54765   0.00000  Uiso   1.00
C662   C     0.17921   0.45994   0.95243   0.00000  Uiso   1.00
C663   C     0.15419   0.54003   0.95235   0.00000  Uiso   1.00
C664   C     0.15412   0.45994   0.54757   0.00000  Uiso   1.00
C665   C     0.17884   0.54014   0.59356   0.00000  Uiso   1.00
C666   C     0.17896   0.45985   0.90651   0.00000  Uiso   1.00
C667   C     0.15449   0.54015   0.90644   0.00000  Uiso   1.00
C668   C     0.15438   0.45985   0.59349   0.00000  Uiso   1.00
C669   C     0.16661   0.50000   0.61672   0.00000  Uiso   1.00
C670   C     0.16672   0.50000   0.88328   0.00000  Uiso   1.00
C671   C     0.16665   0.49998   0.52428   0.00000  Uiso   1.00
C672   C     0.16668   0.49998   0.97572   0.00000  Uiso   1.00
C673   C     0.29060   0.50000   0.75004   0.00000  Uiso   1.00
C674   C     0.04274   0.50000   0.74996   0.00000  Uiso   1.00
Cu675  Cu    0.16667   0.54689   0.75000   0.00000  Uiso   1.00
Cu676  Cu    0.16667   0.45311   0.75000   0.00000  Uiso   1.00
H677   H     0.12023   0.37686   0.70091   0.00000  Uiso   1.00
H678   H     0.21311   0.62314   0.79908   0.00000  Uiso   1.00
H679   H     0.21310   0.37686   0.79909   0.00000  Uiso   1.00
H680   H     0.12022   0.62314   0.70092   0.00000  Uiso   1.00
H681   H     0.18964   0.57107   0.53048   0.00000  Uiso   1.00
H682   H     0.18968   0.42890   0.96967   0.00000  Uiso   1.00
H683   H     0.14370   0.57107   0.96952   0.00000  Uiso   1.00
H684   H     0.14365   0.42890   0.53033   0.00000  Uiso   1.00
N685   N     0.16667   0.61736   0.75000   0.00000  Uiso   1.00
N686   N     0.16667   0.38264   0.75000   0.00000  Uiso   1.00
O687   O     0.10655   0.53958   0.75000   0.00000  Uiso   1.00
O688   O     0.22679   0.46042   0.75000   0.00000  Uiso   1.00
O689   O     0.22679   0.53958   0.75000   0.00000  Uiso   1.00
O690   O     0.10655   0.46042   0.74999   0.00000  Uiso   1.00
O691   O     0.16666   0.53959   0.68573   0.00000  Uiso   1.00
O692   O     0.16667   0.46041   0.81427   0.00000  Uiso   1.00
O693   O     0.16667   0.53959   0.81427   0.00000  Uiso   1.00
O694   O     0.16666   0.46041   0.68573   0.00000  Uiso   1.00
H695   H     0.18873   0.57139   0.61090   0.00000  Uiso   1.00
H696   H     0.18886   0.42861   0.88923   0.00000  Uiso   1.00
H697   H     0.14461   0.57139   0.88910   0.00000  Uiso   1.00
H698   H     0.14447   0.42861   0.61077   0.00000  Uiso   1.00
H699   H     0.03729   0.42414   0.74995   0.00000  Uiso   1.00
H700   H     0.29604   0.57586   0.75005   0.00000  Uiso   1.00
H701   H     0.29604   0.42414   0.75005   0.00000  Uiso   1.00
H702   H     0.03729   0.57586   0.74995   0.00000  Uiso   1.00
C703   C     0.42068   0.50000   0.74997   0.00000  Uiso   1.00
C704   C     0.57932   0.50000   0.75003   0.00000  Uiso   1.00
C705   C     0.49996   0.50000   0.66495   0.00000  Uiso   1.00
C706   C     0.50004   0.50000   0.83505   0.00000  Uiso   1.00
C707   C     0.47421   0.35815   0.72274   0.00000  Uiso   1.00
C708   C     0.52579   0.64186   0.77725   0.00000  Uiso   1.00
C709   C     0.52579   0.35815   0.77725   0.00000  Uiso   1.00
C710   C     0.47421   0.64186   0.72275   0.00000  Uiso   1.00
C711   C     0.35462   0.45743   0.74997   0.00000  Uiso   1.00
C712   C     0.64538   0.54257   0.75002   0.00000  Uiso   1.00
C713   C     0.64539   0.45743   0.75003   0.00000  Uiso   1.00
C714   C     0.35462   0.54257   0.74998   0.00000  Uiso   1.00
C715   C     0.51248   0.54003   0.54765   0.00000  Uiso   1.00
C716   C     0.51254   0.45994   0.95243   0.00000  Uiso   1.00
C717   C     0.48752   0.54003   0.95235   0.00000  Uiso   1.00
C718   C     0.48746   0.45994   0.54757   0.00000  Uiso   1.00
C719   C     0.51218   0.54014   0.59356   0.00000  Uiso   1.00
C720   C     0.51229   0.45985   0.90651   0.00000  Uiso   1.00
C721   C     0.48783   0.54015   0.90644   0.00000  Uiso   1.00
C722   C     0.48771   0.45985   0.59349   0.00000  Uiso   1.00
C723   C     0.49994   0.50000   0.61672   0.00000  Uiso   1.00
C724   C     0.50006   0.50000   0.88328   0.00000  Uiso   1.00
C725   C     0.49999   0.49998   0.52428   0.00000  Uiso   1.00
C726   C     0.50002   0.49998   0.97572   0.00000  Uiso   1.00
C727   C     0.62393   0.50000   0.75004   0.00000  Uiso   1.00
C728   C     0.37607   0.50000   0.74996   0.00000  Uiso   1.00
Cu729  Cu    0.50000   0.54689   0.75000   0.00000  Uiso   1.00
Cu730  Cu    0.50000   0.45311   0.75000   0.00000  Uiso   1.00
H731   H     0.45356   0.37686   0.70091   0.00000  Uiso   1.00
H732   H     0.54645   0.62314   0.79908   0.00000  Uiso   1.00
H733   H     0.54644   0.37686   0.79909   0.00000  Uiso   1.00
H734   H     0.45355   0.62314   0.70092   0.00000  Uiso   1.00
H735   H     0.52297   0.57107   0.53048   0.00000  Uiso   1.00
H736   H     0.52301   0.42890   0.96967   0.00000  Uiso   1.00
H737   H     0.47703   0.57107   0.96952   0.00000  Uiso   1.00
H738   H     0.47699   0.42890   0.53033   0.00000  Uiso   1.00
N739   N     0.50000   0.61736   0.75000   0.00000  Uiso   1.00
N740   N     0.50000   0.38264   0.75000   0.00000  Uiso   1.00
O741   O     0.43988   0.53958   0.75000   0.00000  Uiso   1.00
O742   O     0.56012   0.46042   0.75000   0.00000  Uiso   1.00
O743   O     0.56012   0.53958   0.75000   0.00000  Uiso   1.00
O744   O     0.43988   0.46042   0.74999   0.00000  Uiso   1.00
O745   O     0.50000   0.53959   0.68573   0.00000  Uiso   1.00
O746   O     0.50000   0.46041   0.81427   0.00000  Uiso   1.00
O747   O     0.50000   0.53959   0.81427   0.00000  Uiso   1.00
O748   O     0.50000   0.46041   0.68573   0.00000  Uiso   1.00
H749   H     0.52206   0.57139   0.61090   0.00000  Uiso   1.00
H750   H     0.52220   0.42861   0.88923   0.00000  Uiso   1.00
H751   H     0.47794   0.57139   0.88910   0.00000  Uiso   1.00
H752   H     0.47780   0.42861   0.61077   0.00000  Uiso   1.00
H753   H     0.37062   0.42414   0.74995   0.00000  Uiso   1.00
H754   H     0.62938   0.57586   0.75005   0.00000  Uiso   1.00
H755   H     0.62938   0.42414   0.75005   0.00000  Uiso   1.00
H756   H     0.37062   0.57586   0.74995   0.00000  Uiso   1.00
C757   C     0.75401   0.50000   0.74997   0.00000  Uiso   1.00
C758   C     0.91265   0.50000   0.75003   0.00000  Uiso   1.00
C759   C     0.83330   0.50000   0.66495   0.00000  Uiso   1.00
C760   C     0.83337   0.50000   0.83505   0.00000  Uiso   1.00
C761   C     0.80755   0.35815   0.72274   0.00000  Uiso   1.00
C762   C     0.85912   0.64186   0.77725   0.00000  Uiso   1.00
C763   C     0.85912   0.35815   0.77725   0.00000  Uiso   1.00
C764   C     0.80754   0.64186   0.72275   0.00000  Uiso   1.00
C765   C     0.68795   0.45743   0.74997   0.00000  Uiso   1.00
C766   C     0.97872   0.54257   0.75002   0.00000  Uiso   1.00
C767   C     0.97872   0.45743   0.75003   0.00000  Uiso   1.00
C768   C     0.68795   0.54257   0.74998   0.00000  Uiso   1.00
C769   C     0.84581   0.54003   0.54765   0.00000  Uiso   1.00
C770   C     0.84588   0.45994   0.95243   0.00000  Uiso   1.00
C771   C     0.82086   0.54003   0.95235   0.00000  Uiso   1.00
C772   C     0.82079   0.45994   0.54757   0.00000  Uiso   1.00
C773   C     0.84551   0.54014   0.59356   0.00000  Uiso   1.00
C774   C     0.84562   0.45985   0.90651   0.00000  Uiso   1.00
C775   C     0.82116   0.54015   0.90644   0.00000  Uiso   1.00
C776   C     0.82104   0.45985   0.59349   0.00000  Uiso   1.00
C777   C     0.83328   0.50000   0.61672   0.00000  Uiso   1.00
C778   C     0.83339   0.50000   0.88328   0.00000  Uiso   1.00
C779   C     0.83332   0.49998   0.52428   0.00000  Uiso   1.00
C780   C     0.83335   0.49998   0.97572   0.00000  Uiso   1.00
C781   C     0.95726   0.50000   0.75004   0.00000  Uiso   1.00
C782   C     0.70940   0.50000   0.74996   0.00000  Uiso   1.00
Cu783  Cu    0.83333   0.54689   0.75000   0.00000  Uiso   1.00
Cu784  Cu    0.83333   0.45311   0.75000   0.00000  Uiso   1.00
H785   H     0.78690   0.37686   0.70091   0.00000  Uiso   1.00
H786   H     0.87978   0.62314   0.79908   0.00000  Uiso   1.00
H787   H     0.87977   0.37686   0.79909   0.00000  Uiso   1.00
H788   H     0.78689   0.62314   0.70092   0.00000  Uiso   1.00
H789   H     0.85630   0.57107   0.53048   0.00000  Uiso   1.00
H790   H     0.85635   0.42890   0.96967   0.00000  Uiso   1.00
H791   H     0.81037   0.57107   0.96952   0.00000  Uiso   1.00
H792   H     0.81032   0.42890   0.53033   0.00000  Uiso   1.00
N793   N     0.83333   0.61736   0.75000   0.00000  Uiso   1.00
N794   N     0.83333   0.38264   0.75000   0.00000  Uiso   1.00
O795   O     0.77321   0.53958   0.75000   0.00000  Uiso   1.00
O796   O     0.89345   0.46042   0.75000   0.00000  Uiso   1.00
O797   O     0.89345   0.53958   0.75000   0.00000  Uiso   1.00
O798   O     0.77321   0.46042   0.74999   0.00000  Uiso   1.00
O799   O     0.83333   0.53959   0.68573   0.00000  Uiso   1.00
O800   O     0.83334   0.46041   0.81427   0.00000  Uiso   1.00
O801   O     0.83334   0.53959   0.81427   0.00000  Uiso   1.00
O802   O     0.83333   0.46041   0.68573   0.00000  Uiso   1.00
H803   H     0.85540   0.57139   0.61090   0.00000  Uiso   1.00
H804   H     0.85553   0.42861   0.88923   0.00000  Uiso   1.00
H805   H     0.81127   0.57139   0.88910   0.00000  Uiso   1.00
H806   H     0.81114   0.42861   0.61077   0.00000  Uiso   1.00
H807   H     0.70396   0.42414   0.74995   0.00000  Uiso   1.00
H808   H     0.96271   0.57586   0.75005   0.00000  Uiso   1.00
H809   H     0.96271   0.42414   0.75005   0.00000  Uiso   1.00
H810   H     0.70396   0.57586   0.74995   0.00000  Uiso   1.00
C811   C     0.08735   0.83333   0.74997   0.00000  Uiso   1.00
C812   C     0.24599   0.83333   0.75003   0.00000  Uiso   1.00
C813   C     0.16663   0.83333   0.66495   0.00000  Uiso   1.00
C814   C     0.16670   0.83333   0.83505   0.00000  Uiso   1.00
C815   C     0.14088   0.69148   0.72274   0.00000  Uiso   1.00
C816   C     0.19246   0.97519   0.77725   0.00000  Uiso   1.00
C817   C     0.19245   0.69148   0.77725   0.00000  Uiso   1.00
C818   C     0.14088   0.97519   0.72275   0.00000  Uiso   1.00
C819   C     0.02128   0.79076   0.74997   0.00000  Uiso   1.00
C820   C     0.31205   0.87591   0.75002   0.00000  Uiso   1.00
C821   C     0.31205   0.79076   0.75003   0.00000  Uiso   1.00
C822   C     0.02128   0.87591   0.74998   0.00000  Uiso   1.00
C823   C     0.17915   0.87336   0.54765   0.00000  Uiso   1.00
C824   C     0.17921   0.79327   0.95243   0.00000  Uiso   1.00
C825   C     0.15419   0.87336   0.95235   0.00000  Uiso   1.00
C826   C     0.15412   0.79328   0.54757   0.00000  Uiso   1.00
C827   C     0.17884   0.87348   0.59356   0.00000  Uiso   1.00
C828   C     0.17896   0.79318   0.90651   0.00000  Uiso   1.00
C829   C     0.15449   0.87348   0.90644   0.00000  Uiso   1.00
C830   C     0.15438   0.79318   0.59349   0.00000  Uiso   1.00
C831   C     0.16661   0.83333   0.61672   0.00000  Uiso   1.00
C832   C     0.16672   0.83333   0.88328   0.00000  Uiso   1.00
C833   C     0.16665   0.83331   0.52428   0.00000  Uiso   1.00
C834   C     0.16668   0.83331   0.97572   0.00000  Uiso   1.00
C835   C     0.29060   0.83333   0.75004   0.00000  Uiso   1.00
C836   C     0.04274   0.83333   0.74996   0.00000  Uiso   1.00
Cu837  Cu    0.16667   0.88022   0.75000   0.00000  Uiso   1.00
Cu838  Cu    0.16667   0.78645   0.75000   0.00000  Uiso   1.00
H839   H     0.12023   0.71019   0.70091   0.00000  Uiso   1.00
H840   H     0.21311   0.95648   0.79908   0.00000  Uiso   1.00
H841   H     0.21310   0.71019   0.79909   0.00000  Uiso   1.00
H842   H     0.12022   0.95648   0.70092   0.00000  Uiso   1.00
H843   H     0.18964   0.90440   0.53048   0.00000  Uiso   1.00
H844   H     0.18968   0.76223   0.96967   0.00000  Uiso   1.00
H845   H     0.14370   0.90440   0.96952   0.00000  Uiso   1.00
H846   H     0.14365   0.76223   0.53033   0.00000  Uiso   1.00
N847   N     0.16667   0.95069   0.75000   0.00000  Uiso   1.00
N848   N     0.16667   0.71598   0.75000   0.00000  Uiso   1.00
O849   O     0.10655   0.87291   0.75000   0.00000  Uiso   1.00
O850   O     0.22679   0.79375   0.75000   0.00000  Uiso   1.00
O851   O     0.22679   0.87291   0.75000   0.00000  Uiso   1.00
O852   O     0.10655   0.79375   0.74999   0.00000  Uiso   1.00
O853   O     0.16666   0.87293   0.68573   0.00000  Uiso   1.00
O854   O     0.16667   0.79374   0.81427   0.00000  Uiso   1.00
O855   O     0.16667   0.87293   0.81427   0.00000  Uiso   1.00
O856   O     0.16666   0.79374   0.68573   0.00000  Uiso   1.00
H857   H     0.18873   0.90473   0.61090   0.00000  Uiso   1.00
H858   H     0.18886   0.76194   0.88923   0.00000  Uiso   1.00
H859   H     0.14461   0.90473   0.88910   0.00000  Uiso   1.00
H860   H     0.14447   0.76194   0.61077   0.00000  Uiso   1.00
H861   H     0.03729   0.75747   0.74995   0.00000  Uiso   1.00
H862   H     0.29604   0.90919   0.75005   0.00000  Uiso   1.00
H863   H     0.29604   0.75747   0.75005   0.00000  Uiso   1.00
H864   H     0.03729   0.90919   0.74995   0.00000  Uiso   1.00
C865   C     0.42068   0.83333   0.74997   0.00000  Uiso   1.00
C866   C     0.57932   0.83333   0.75003   0.00000  Uiso   1.00
C867   C     0.49996   0.83333   0.66495   0.00000  Uiso   1.00
C868   C     0.50004   0.83333   0.83505   0.00000  Uiso   1.00
C869   C     0.47421   0.69148   0.72274   0.00000  Uiso   1.00
C870   C     0.52579   0.97519   0.77725   0.00000  Uiso   1.00
C871   C     0.52579   0.69148   0.77725   0.00000  Uiso   1.00
C872   C     0.47421   0.97519   0.72275   0.00000  Uiso   1.00
C873   C     0.35462   0.79076   0.74997   0.00000  Uiso   1.00
C874   C     0.64538   0.87591   0.75002   0.00000  Uiso   1.00
C875   C     0.64539   0.79076   0.75003   0.00000  Uiso   1.00
C876   C     0.35462   0.87591   0.74998   0.00000  Uiso   1.00
C877   C     0.51248   0.87336   0.54765   0.00000  Uiso   1.00
C878   C     0.51254   0.79327   0.95243   0.00000  Uiso   1.00
C879   C     0.48752   0.87336   0.95235   0.00000  Uiso   1.00
C880   C     0.48746   0.79328   0.54757   0.00000  Uiso   1.00
C881   C     0.51218   0.87348   0.59356   0.00000  Uiso   1.00
C882   C     0.51229   0.79318   0.90651   0.00000  Uiso   1.00
C883   C     0.48783   0.87348   0.90644   0.00000  Uiso   1.00
C884   C     0.48771   0.79318   0.59349   0.00000  Uiso   1.00
C885   C     0.49994   0.83333   0.61672   0.00000  Uiso   1.00
C886   C     0.50006   0.83333   0.88328   0.00000  Uiso   1.00
C887   C     0.49999   0.83331   0.52428   0.00000  Uiso   1.00
C888   C     0.50002   0.83331   0.97572   0.00000  Uiso   1.00
C889   C     0.62393   0.83333   0.75004   0.00000  Uiso   1.00
C890   C     0.37607   0.83333   0.74996   0.00000  Uiso   1.00
Cu891  Cu    0.50000   0.88022   0.75000   0.00000  Uiso   1.00
Cu892  Cu    0.50000   0.78645   0.75000   0.00000  Uiso   1.00
H893   H     0.45356   0.71019   0.70091   0.00000  Uiso   1.00
H894   H     0.54645   0.95648   0.79908   0.00000  Uiso   1.00
H895   H     0.54644   0.71019   0.79909   0.00000  Uiso   1.00
H896   H     0.45355   0.95648   0.70092   0.00000  Uiso   1.00
H897   H     0.52297   0.90440   0.53048   0.00000  Uiso   1.00
H898   H     0.52301   0.76223   0.96967   0.00000  Uiso   1.00
H899   H     0.47703   0.90440   0.96952   0.00000  Uiso   1.00
H900   H     0.47699   0.76223   0.53033   0.00000  Uiso   1.00
N901   N     0.50000   0.95069   0.75000   0.00000  Uiso   1.00
N902   N     0.50000   0.71598   0.75000   0.00000  Uiso   1.00
O903   O     0.43988   0.87291   0.75000   0.00000  Uiso   1.00
O904   O     0.56012   0.79375   0.75000   0.00000  Uiso   1.00
O905   O     0.56012   0.87291   0.75000   0.00000  Uiso   1.00
O906   O     0.43988   0.79375   0.74999   0.00000  Uiso   1.00
O907   O     0.50000   0.87293   0.68573   0.00000  Uiso   1.00
O908   O     0.50000   0.79374   0.81427   0.00000  Uiso   1.00
O909   O     0.50000   0.87293   0.81427   0.00000  Uiso   1.00
O910   O     0.50000   0.79374   0.68573   0.00000  Uiso   1.00
H911   H     0.52206   0.90473   0.61090   0.00000  Uiso   1.00
H912   H     0.52220   0.76194   0.88923   0.00000  Uiso   1.00
H913   H     0.47794   0.90473   0.88910   0.00000  Uiso   1.00
H914   H     0.47780   0.76194   0.61077   0.00000  Uiso   1.00
H915   H     0.37062   0.75747   0.74995   0.00000  Uiso   1.00
H916   H     0.62938   0.90919   0.75005   0.00000  Uiso   1.00
H917   H     0.62938   0.75747   0.75005   0.00000  Uiso   1.00
H918   H     0.37062   0.90919   0.74995   0.00000  Uiso   1.00
C919   C     0.75401   0.83333   0.74997   0.00000  Uiso   1.00
C920   C     0.91265   0.83333   0.75003   0.00000  Uiso   1.00
C921   C     0.83330   0.83333   0.66495   0.00000  Uiso   1.00
C922   C     0.83337   0.83333   0.83505   0.00000  Uiso   1.00
C923   C     0.80755   0.69148   0.72274   0.00000  Uiso   1.00
C924   C     0.85912   0.97519   0.77725   0.00000  Uiso   1.00
C925   C     0.85912   0.69148   0.77725   0.00000  Uiso   1.00
C926   C     0.80754   0.97519   0.72275   0.00000  Uiso   1.00
C927   C     0.68795   0.79076   0.74997   0.00000  Uiso   1.00
C928   C     0.97872   0.87591   0.75002   0.00000  Uiso   1.00
C929   C     0.97872   0.79076   0.75003   0.00000  Uiso   1.00
C930   C     0.68795   0.87591   0.74998   0.00000  Uiso   1.00
C931   C     0.84581   0.87336   0.54765   0.00000  Uiso   1.00
C932   C     0.84588   0.79327   0.95243   0.00000  Uiso   1.00
C933   C     0.82086   0.87336   0.95235   0.00000  Uiso   1.00
C934   C     0.82079   0.79328   0.54757   0.00000  Uiso   1.00
C935   C     0.84551   0.87348   0.59356   0.00000  Uiso   1.00
C936   C     0.84562   0.79318   0.90651   0.00000  Uiso   1.00
C937   C     0.82116   0.87348   0.90644   0.00000  Uiso   1.00
C938   C     0.82104   0.79318   0.59349   0.00000  Uiso   1.00
C939   C     0.83328   0.83333   0.61672   0.00000  Uiso   1.00
C940   C     0.83339   0.83333   0.88328   0.00000  Uiso   1.00
C941   C     0.83332   0.83331   0.52428   0.00000  Uiso   1.00
C942   C     0.83335   0.83331   0.97572   0.00000  Uiso   1.00
C943   C     0.95726   0.83333   0.75004   0.00000  Uiso   1.00
C944   C     0.70940   0.83333   0.74996   0.00000  Uiso   1.00
Cu945  Cu    0.83333   0.88022   0.75000   0.00000  Uiso   1.00
Cu946  Cu    0.83333   0.78645   0.75000   0.00000  Uiso   1.00
H947   H     0.78690   0.71019   0.70091   0.00000  Uiso   1.00
H948   H     0.87978   0.95648   0.79908   0.00000  Uiso   1.00
H949   H     0.87977   0.71019   0.79909   0.00000  Uiso   1.00
H950   H     0.78689   0.95648   0.70092   0.00000  Uiso   1.00
H951   H     0.85630   0.90440   0.53048   0.00000  Uiso   1.00
H952   H     0.85635   0.76223   0.96967   0.00000  Uiso   1.00
H953   H     0.81037   0.90440   0.96952   0.00000  Uiso   1.00
H954   H     0.81032   0.76223   0.53033   0.00000  Uiso   1.00
N955   N     0.83333   0.95069   0.75000   0.00000  Uiso   1.00
N956   N     0.83333   0.71598   0.75000   0.00000  Uiso   1.00
O957   O     0.77321   0.87291   0.75000   0.00000  Uiso   1.00
O958   O     0.89345   0.79375   0.75000   0.00000  Uiso   1.00
O959   O     0.89345   0.87291   0.75000   0.00000  Uiso   1.00
O960   O     0.77321   0.79375   0.74999   0.00000  Uiso   1.00
O961   O     0.83333   0.87293   0.68573   0.00000  Uiso   1.00
O962   O     0.83334   0.79374   0.81427   0.00000  Uiso   1.00
O963   O     0.83334   0.87293   0.81427   0.00000  Uiso   1.00
O964   O     0.83333   0.79374   0.68573   0.00000  Uiso   1.00
H965   H     0.85540   0.90473   0.61090   0.00000  Uiso   1.00
H966   H     0.85553   0.76194   0.88923   0.00000  Uiso   1.00
H967   H     0.81127   0.90473   0.88910   0.00000  Uiso   1.00
H968   H     0.81114   0.76194   0.61077   0.00000  Uiso   1.00
H969   H     0.70396   0.75747   0.74995   0.00000  Uiso   1.00
H970   H     0.96271   0.90919   0.75005   0.00000  Uiso   1.00
H971   H     0.96271   0.75747   0.75005   0.00000  Uiso   1.00
H972   H     0.70396   0.90919   0.74995   0.00000  Uiso   1.00
loop_
_geom_bond_atom_site_label_1
_geom_bond_atom_site_label_2
_geom_bond_distance
_geom_bond_site_symmetry_2
_ccdc_geom_bond_type
C1     C26     1.450   .     S
C1     O42     1.291   .     A
C1     O39     1.291   .     A
C2     C25     1.450   .     S
C2     O41     1.291   .     A
C2     O40     1.291   .     A
C3     O46     1.293   .     A
C3     O43     1.293   .     A
C3     C21     1.460   .     S
C4     C22     1.460   .     S
C4     O45     1.293   .     A
C4     O44     1.293   .     A
C5     N38     1.367   .     A
C5     H29     1.082   .     S
C5     C332    1.416   1_545 S
C6     N37     1.367   .     A
C6     H30     1.082   .     S
C6     C169    1.416   .     S
C7     N38     1.367   .     A
C7     H31     1.082   .     S
C7     C330    1.416   1_545 S
C8     N37     1.367   .     A
C8     H32     1.082   .     S
C8     C167    1.416   .     S
C9     C26     1.401   .     A
C9     H51     1.083   .     S
C9     C119    1.384   1_455 S
C10    H52     1.083   .     S
C10    C25     1.401   .     A
C10    C66     1.384   .     S
C11    H53     1.083   .     S
C11    C25     1.401   .     A
C11    C63     1.384   .     S
C12    H54     1.083   .     S
C12    C26     1.401   .     A
C12    C118    1.384   1_455 S
C13    H33     1.083   .     S
C13    C17     1.390   .     A
C13    C23     1.404   .     A
C14    H34     1.083   .     S
C14    C18     1.390   .     A
C14    C24     1.404   .     A
C15    C19     1.390   .     A
C15    C24     1.404   .     A
C15    H35     1.083   .     S
C16    C23     1.404   .     A
C16    C20     1.390   .     A
C16    H36     1.083   .     S
C17    C21     1.402   .     A
C17    H47     1.083   .     S
C18    H48     1.083   .     S
C18    C22     1.402   .     A
C19    C22     1.402   .     A
C19    H49     1.083   .     S
C20    H50     1.083   .     S
C20    C21     1.402   .     A
C23    C510    1.470   1_554 S
C24    C509    1.470   .     S
Cu27   O43     1.957   .     S
Cu27   O45     1.957   .     S
Cu27   N37     2.011   .     S
Cu27   O39     1.965   .     S
Cu27   Cu28    2.677   .     S
Cu27   O41     1.965   .     S
Cu28   O46     1.957   .     S
Cu28   O42     1.965   .     S
Cu28   O40     1.965   .     S
Cu28   N38     2.011   .     S
Cu28   O44     1.957   .     S
C55    C80     1.450   .     S
C55    O96     1.291   .     A
C55    O93     1.291   .     A
C56    C79     1.450   .     S
C56    O95     1.291   .     A
C56    O94     1.291   .     A
C57    O100    1.293   .     A
C57    O97     1.293   .     A
C57    C75     1.460   .     S
C58    C76     1.460   .     S
C58    O99     1.293   .     A
C58    O98     1.293   .     A
C59    N92     1.367   .     A
C59    H83     1.082   .     S
C59    C386    1.416   1_545 S
C60    N91     1.367   .     A
C60    H84     1.082   .     S
C60    C223    1.416   .     S
C61    N92     1.367   .     A
C61    H85     1.082   .     S
C61    C384    1.416   1_545 S
C62    N91     1.367   .     A
C62    H86     1.082   .     S
C62    C221    1.416   .     S
C63    C80     1.401   .     A
C63    H105    1.083   .     S
C64    H106    1.083   .     S
C64    C79     1.401   .     A
C64    C120    1.384   .     S
C65    H107    1.083   .     S
C65    C79     1.401   .     A
C65    C117    1.384   .     S
C66    H108    1.083   .     S
C66    C80     1.401   .     A
C67    H87     1.083   .     S
C67    C71     1.390   .     A
C67    C77     1.404   .     A
C68    H88     1.083   .     S
C68    C72     1.390   .     A
C68    C78     1.404   .     A
C69    C73     1.390   .     A
C69    C78     1.404   .     A
C69    H89     1.083   .     S
C70    C77     1.404   .     A
C70    C74     1.390   .     A
C70    H90     1.083   .     S
C71    C75     1.402   .     A
C71    H101    1.083   .     S
C72    H102    1.083   .     S
C72    C76     1.402   .     A
C73    C76     1.402   .     A
C73    H103    1.083   .     S
C74    H104    1.083   .     S
C74    C75     1.402   .     A
C77    C564    1.470   1_554 S
C78    C563    1.470   .     S
Cu81   O97     1.957   .     S
Cu81   O99     1.957   .     S
Cu81   N91     2.011   .     S
Cu81   O93     1.965   .     S
Cu81   Cu82    2.677   .     S
Cu81   O95     1.965   .     S
Cu82   O100    1.957   .     S
Cu82   O96     1.965   .     S
Cu82   O94     1.965   .     S
Cu82   N92     2.011   .     S
Cu82   O98     1.957   .     S
C109   C134    1.450   .     S
C109   O150    1.291   .     A
C109   O147    1.291   .     A
C110   C133    1.450   .     S
C110   O149    1.291   .     A
C110   O148    1.291   .     A
C111   O154    1.293   .     A
C111   O151    1.293   .     A
C111   C129    1.460   .     S
C112   C130    1.460   .     S
C112   O153    1.293   .     A
C112   O152    1.293   .     A
C113   N146    1.367   .     A
C113   H137    1.082   .     S
C113   C440    1.416   1_545 S
C114   N145    1.367   .     A
C114   H138    1.082   .     S
C114   C277    1.416   .     S
C115   N146    1.367   .     A
C115   H139    1.082   .     S
C115   C438    1.416   1_545 S
C116   N145    1.367   .     A
C116   H140    1.082   .     S
C116   C275    1.416   .     S
C117   C134    1.401   .     A
C117   H159    1.083   .     S
C118   H160    1.083   .     S
C118   C133    1.401   .     A
C118   C12     1.384   1_655 S
C119   H161    1.083   .     S
C119   C133    1.401   .     A
C119   C9      1.384   1_655 S
C120   H162    1.083   .     S
C120   C134    1.401   .     A
C121   H141    1.083   .     S
C121   C125    1.390   .     A
C121   C131    1.404   .     A
C122   H142    1.083   .     S
C122   C126    1.390   .     A
C122   C132    1.404   .     A
C123   C127    1.390   .     A
C123   C132    1.404   .     A
C123   H143    1.083   .     S
C124   C131    1.404   .     A
C124   C128    1.390   .     A
C124   H144    1.083   .     S
C125   C129    1.402   .     A
C125   H155    1.083   .     S
C126   H156    1.083   .     S
C126   C130    1.402   .     A
C127   C130    1.402   .     A
C127   H157    1.083   .     S
C128   H158    1.083   .     S
C128   C129    1.402   .     A
C131   C618    1.470   1_554 S
C132   C617    1.470   .     S
Cu135  O151    1.957   .     S
Cu135  O153    1.957   .     S
Cu135  N145    2.011   .     S
Cu135  O147    1.965   .     S
Cu135  Cu136   2.677   .     S
Cu135  O149    1.965   .     S
Cu136  O154    1.957   .     S
Cu136  O150    1.965   .     S
Cu136  O148    1.965   .     S
Cu136  N146    2.011   .     S
Cu136  O152    1.957   .     S
C163   C188    1.450   .     S
C163   O204    1.291   .     A
C163   O201    1.291   .     A
C164   C187    1.450   .     S
C164   O203    1.291   .     A
C164   O202    1.291   .     A
C165   O208    1.293   .     A
C165   O205    1.293   .     A
C165   C183    1.460   .     S
C166   C184    1.460   .     S
C166   O207    1.293   .     A
C166   O206    1.293   .     A
C167   N200    1.367   .     A
C167   H191    1.082   .     S
C168   N199    1.367   .     A
C168   H192    1.082   .     S
C168   C331    1.416   .     S
C169   N200    1.367   .     A
C169   H193    1.082   .     S
C170   N199    1.367   .     A
C170   H194    1.082   .     S
C170   C329    1.416   .     S
C171   C188    1.401   .     A
C171   H213    1.083   .     S
C171   C281    1.384   1_455 S
C172   H214    1.083   .     S
C172   C187    1.401   .     A
C172   C228    1.384   .     S
C173   H215    1.083   .     S
C173   C187    1.401   .     A
C173   C225    1.384   .     S
C174   H216    1.083   .     S
C174   C188    1.401   .     A
C174   C280    1.384   1_455 S
C175   H195    1.083   .     S
C175   C179    1.390   .     A
C175   C185    1.404   .     A
C176   H196    1.083   .     S
C176   C180    1.390   .     A
C176   C186    1.404   .     A
C177   C181    1.390   .     A
C177   C186    1.404   .     A
C177   H197    1.083   .     S
C178   C185    1.404   .     A
C178   C182    1.390   .     A
C178   H198    1.083   .     S
C179   C183    1.402   .     A
C179   H209    1.083   .     S
C180   H210    1.083   .     S
C180   C184    1.402   .     A
C181   C184    1.402   .     A
C181   H211    1.083   .     S
C182   H212    1.083   .     S
C182   C183    1.402   .     A
C185   C672    1.470   1_554 S
C186   C671    1.470   .     S
Cu189  O205    1.957   .     S
Cu189  O207    1.957   .     S
Cu189  N199    2.011   .     S
Cu189  O201    1.965   .     S
Cu189  Cu190   2.677   .     S
Cu189  O203    1.965   .     S
Cu190  O208    1.957   .     S
Cu190  O204    1.965   .     S
Cu190  O202    1.965   .     S
Cu190  N200    2.011   .     S
Cu190  O206    1.957   .     S
C217   C242    1.450   .     S
C217   O258    1.291   .     A
C217   O255    1.291   .     A
C218   C241    1.450   .     S
C218   O257    1.291   .     A
C218   O256    1.291   .     A
C219   O262    1.293   .     A
C219   O259    1.293   .     A
C219   C237    1.460   .     S
C220   C238    1.460   .     S
C220   O261    1.293   .     A
C220   O260    1.293   .     A
C221   N254    1.367   .     A
C221   H245    1.082   .     S
C222   N253    1.367   .     A
C222   H246    1.082   .     S
C222   C385    1.416   .     S
C223   N254    1.367   .     A
C223   H247    1.082   .     S
C224   N253    1.367   .     A
C224   H248    1.082   .     S
C224   C383    1.416   .     S
C225   C242    1.401   .     A
C225   H267    1.083   .     S
C226   H268    1.083   .     S
C226   C241    1.401   .     A
C226   C282    1.384   .     S
C227   H269    1.083   .     S
C227   C241    1.401   .     A
C227   C279    1.384   .     S
C228   H270    1.083   .     S
C228   C242    1.401   .     A
C229   H249    1.083   .     S
C229   C233    1.390   .     A
C229   C239    1.404   .     A
C230   H250    1.083   .     S
C230   C234    1.390   .     A
C230   C240    1.404   .     A
C231   C235    1.390   .     A
C231   C240    1.404   .     A
C231   H251    1.083   .     S
C232   C239    1.404   .     A
C232   C236    1.390   .     A
C232   H252    1.083   .     S
C233   C237    1.402   .     A
C233   H263    1.083   .     S
C234   H264    1.083   .     S
C234   C238    1.402   .     A
C235   C238    1.402   .     A
C235   H265    1.083   .     S
C236   H266    1.083   .     S
C236   C237    1.402   .     A
C239   C726    1.470   1_554 S
C240   C725    1.470   .     S
Cu243  O259    1.957   .     S
Cu243  O261    1.957   .     S
Cu243  N253    2.011   .     S
Cu243  O255    1.965   .     S
Cu243  Cu244   2.677   .     S
Cu243  O257    1.965   .     S
Cu244  O262    1.957   .     S
Cu244  O258    1.965   .     S
Cu244  O256    1.965   .     S
Cu244  N254    2.011   .     S
Cu244  O260    1.957   .     S
C271   C296    1.450   .     S
C271   O312    1.291   .     A
C271   O309    1.291   .     A
C272   C295    1.450   .     S
C272   O311    1.291   .     A
C272   O310    1.291   .     A
C273   O316    1.293   .     A
C273   O313    1.293   .     A
C273   C291    1.460   .     S
C274   C292    1.460   .     S
C274   O315    1.293   .     A
C274   O314    1.293   .     A
C275   N308    1.367   .     A
C275   H299    1.082   .     S
C276   N307    1.367   .     A
C276   H300    1.082   .     S
C276   C439    1.416   .     S
C277   N308    1.367   .     A
C277   H301    1.082   .     S
C278   N307    1.367   .     A
C278   H302    1.082   .     S
C278   C437    1.416   .     S
C279   C296    1.401   .     A
C279   H321    1.083   .     S
C280   H322    1.083   .     S
C280   C295    1.401   .     A
C280   C174    1.384   1_655 S
C281   H323    1.083   .     S
C281   C295    1.401   .     A
C281   C171    1.384   1_655 S
C282   H324    1.083   .     S
C282   C296    1.401   .     A
C283   H303    1.083   .     S
C283   C287    1.390   .     A
C283   C293    1.404   .     A
C284   H304    1.083   .     S
C284   C288    1.390   .     A
C284   C294    1.404   .     A
C285   C289    1.390   .     A
C285   C294    1.404   .     A
C285   H305    1.083   .     S
C286   C293    1.404   .     A
C286   C290    1.390   .     A
C286   H306    1.083   .     S
C287   C291    1.402   .     A
C287   H317    1.083   .     S
C288   H318    1.083   .     S
C288   C292    1.402   .     A
C289   C292    1.402   .     A
C289   H319    1.083   .     S
C290   H320    1.083   .     S
C290   C291    1.402   .     A
C293   C780    1.470   1_554 S
C294   C779    1.470   .     S
Cu297  O313    1.957   .     S
Cu297  O315    1.957   .     S
Cu297  N307    2.011   .     S
Cu297  O309    1.965   .     S
Cu297  Cu298   2.677   .     S
Cu297  O311    1.965   .     S
Cu298  O316    1.957   .     S
Cu298  O312    1.965   .     S
Cu298  O310    1.965   .     S
Cu298  N308    2.011   .     S
Cu298  O314    1.957   .     S
C325   C350    1.450   .     S
C325   O366    1.291   .     A
C325   O363    1.291   .     A
C326   C349    1.450   .     S
C326   O365    1.291   .     A
C326   O364    1.291   .     A
C327   O370    1.293   .     A
C327   O367    1.293   .     A
C327   C345    1.460   .     S
C328   C346    1.460   .     S
C328   O369    1.293   .     A
C328   O368    1.293   .     A
C329   N362    1.367   .     A
C329   H353    1.082   .     S
C330   N361    1.367   .     A
C330   H354    1.082   .     S
C330   C7      1.416   1_565 S
C331   N362    1.367   .     A
C331   H355    1.082   .     S
C332   N361    1.367   .     A
C332   H356    1.082   .     S
C332   C5      1.416   1_565 S
C333   C350    1.401   .     A
C333   H375    1.083   .     S
C333   C443    1.384   1_455 S
C334   H376    1.083   .     S
C334   C349    1.401   .     A
C334   C390    1.384   .     S
C335   H377    1.083   .     S
C335   C349    1.401   .     A
C335   C387    1.384   .     S
C336   H378    1.083   .     S
C336   C350    1.401   .     A
C336   C442    1.384   1_455 S
C337   H357    1.083   .     S
C337   C341    1.390   .     A
C337   C347    1.404   .     A
C338   H358    1.083   .     S
C338   C342    1.390   .     A
C338   C348    1.404   .     A
C339   C343    1.390   .     A
C339   C348    1.404   .     A
C339   H359    1.083   .     S
C340   C347    1.404   .     A
C340   C344    1.390   .     A
C340   H360    1.083   .     S
C341   C345    1.402   .     A
C341   H371    1.083   .     S
C342   H372    1.083   .     S
C342   C346    1.402   .     A
C343   C346    1.402   .     A
C343   H373    1.083   .     S
C344   H374    1.083   .     S
C344   C345    1.402   .     A
C347   C834    1.470   1_554 S
C348   C833    1.470   .     S
Cu351  O367    1.957   .     S
Cu351  O369    1.957   .     S
Cu351  N361    2.011   .     S
Cu351  O363    1.965   .     S
Cu351  Cu352   2.677   .     S
Cu351  O365    1.965   .     S
Cu352  O370    1.957   .     S
Cu352  O366    1.965   .     S
Cu352  O364    1.965   .     S
Cu352  N362    2.011   .     S
Cu352  O368    1.957   .     S
C379   C404    1.450   .     S
C379   O420    1.291   .     A
C379   O417    1.291   .     A
C380   C403    1.450   .     S
C380   O419    1.291   .     A
C380   O418    1.291   .     A
C381   O424    1.293   .     A
C381   O421    1.293   .     A
C381   C399    1.460   .     S
C382   C400    1.460   .     S
C382   O423    1.293   .     A
C382   O422    1.293   .     A
C383   N416    1.367   .     A
C383   H407    1.082   .     S
C384   N415    1.367   .     A
C384   H408    1.082   .     S
C384   C61     1.416   1_565 S
C385   N416    1.367   .     A
C385   H409    1.082   .     S
C386   N415    1.367   .     A
C386   H410    1.082   .     S
C386   C59     1.416   1_565 S
C387   C404    1.401   .     A
C387   H429    1.083   .     S
C388   H430    1.083   .     S
C388   C403    1.401   .     A
C388   C444    1.384   .     S
C389   H431    1.083   .     S
C389   C403    1.401   .     A
C389   C441    1.384   .     S
C390   H432    1.083   .     S
C390   C404    1.401   .     A
C391   H411    1.083   .     S
C391   C395    1.390   .     A
C391   C401    1.404   .     A
C392   H412    1.083   .     S
C392   C396    1.390   .     A
C392   C402    1.404   .     A
C393   C397    1.390   .     A
C393   C402    1.404   .     A
C393   H413    1.083   .     S
C394   C401    1.404   .     A
C394   C398    1.390   .     A
C394   H414    1.083   .     S
C395   C399    1.402   .     A
C395   H425    1.083   .     S
C396   H426    1.083   .     S
C396   C400    1.402   .     A
C397   C400    1.402   .     A
C397   H427    1.083   .     S
C398   H428    1.083   .     S
C398   C399    1.402   .     A
C401   C888    1.470   1_554 S
C402   C887    1.470   .     S
Cu405  O421    1.957   .     S
Cu405  O423    1.957   .     S
Cu405  N415    2.011   .     S
Cu405  O417    1.965   .     S
Cu405  Cu406   2.677   .     S
Cu405  O419    1.965   .     S
Cu406  O424    1.957   .     S
Cu406  O420    1.965   .     S
Cu406  O418    1.965   .     S
Cu406  N416    2.011   .     S
Cu406  O422    1.957   .     S
C433   C458    1.450   .     S
C433   O474    1.291   .     A
C433   O471    1.291   .     A
C434   C457    1.450   .     S
C434   O473    1.291   .     A
C434   O472    1.291   .     A
C435   O478    1.293   .     A
C435   O475    1.293   .     A
C435   C453    1.460   .     S
C436   C454    1.460   .     S
C436   O477    1.293   .     A
C436   O476    1.293   .     A
C437   N470    1.367   .     A
C437   H461    1.082   .     S
C438   N469    1.367   .     A
C438   H462    1.082   .     S
C438   C115    1.416   1_565 S
C439   N470    1.367   .     A
C439   H463    1.082   .     S
C440   N469    1.367   .     A
C440   H464    1.082   .     S
C440   C113    1.416   1_565 S
C441   C458    1.401   .     A
C441   H483    1.083   .     S
C442   H484    1.083   .     S
C442   C457    1.401   .     A
C442   C336    1.384   1_655 S
C443   H485    1.083   .     S
C443   C457    1.401   .     A
C443   C333    1.384   1_655 S
C444   H486    1.083   .     S
C444   C458    1.401   .     A
C445   H465    1.083   .     S
C445   C449    1.390   .     A
C445   C455    1.404   .     A
C446   H466    1.083   .     S
C446   C450    1.390   .     A
C446   C456    1.404   .     A
C447   C451    1.390   .     A
C447   C456    1.404   .     A
C447   H467    1.083   .     S
C448   C455    1.404   .     A
C448   C452    1.390   .     A
C448   H468    1.083   .     S
C449   C453    1.402   .     A
C449   H479    1.083   .     S
C450   H480    1.083   .     S
C450   C454    1.402   .     A
C451   C454    1.402   .     A
C451   H481    1.083   .     S
C452   H482    1.083   .     S
C452   C453    1.402   .     A
C455   C942    1.470   1_554 S
C456   C941    1.470   .     S
Cu459  O475    1.957   .     S
Cu459  O477    1.957   .     S
Cu459  N469    2.011   .     S
Cu459  O471    1.965   .     S
Cu459  Cu460   2.677   .     S
Cu459  O473    1.965   .     S
Cu460  O478    1.957   .     S
Cu460  O474    1.965   .     S
Cu460  O472    1.965   .     S
Cu460  N470    2.011   .     S
Cu460  O476    1.957   .     S
C487   C512    1.450   .     S
C487   O528    1.291   .     A
C487   O525    1.291   .     A
C488   C511    1.450   .     S
C488   O527    1.291   .     A
C488   O526    1.291   .     A
C489   O532    1.293   .     A
C489   O529    1.293   .     A
C489   C507    1.460   .     S
C490   C508    1.460   .     S
C490   O531    1.293   .     A
C490   O530    1.293   .     A
C491   N524    1.367   .     A
C491   H515    1.082   .     S
C491   C818    1.416   1_545 S
C492   N523    1.367   .     A
C492   H516    1.082   .     S
C492   C655    1.416   .     S
C493   N524    1.367   .     A
C493   H517    1.082   .     S
C493   C816    1.416   1_545 S
C494   N523    1.367   .     A
C494   H518    1.082   .     S
C494   C653    1.416   .     S
C495   C512    1.401   .     A
C495   H537    1.083   .     S
C495   C605    1.384   1_455 S
C496   H538    1.083   .     S
C496   C511    1.401   .     A
C496   C552    1.384   .     S
C497   H539    1.083   .     S
C497   C511    1.401   .     A
C497   C549    1.384   .     S
C498   H540    1.083   .     S
C498   C512    1.401   .     A
C498   C604    1.384   1_455 S
C499   H519    1.083   .     S
C499   C503    1.390   .     A
C499   C509    1.404   .     A
C500   H520    1.083   .     S
C500   C504    1.390   .     A
C500   C510    1.404   .     A
C501   C505    1.390   .     A
C501   C510    1.404   .     A
C501   H521    1.083   .     S
C502   C509    1.404   .     A
C502   C506    1.390   .     A
C502   H522    1.083   .     S
C503   C507    1.402   .     A
C503   H533    1.083   .     S
C504   H534    1.083   .     S
C504   C508    1.402   .     A
C505   C508    1.402   .     A
C505   H535    1.083   .     S
C506   H536    1.083   .     S
C506   C507    1.402   .     A
C510   C23     1.470   1_556 S
Cu513  O529    1.957   .     S
Cu513  O531    1.957   .     S
Cu513  N523    2.011   .     S
Cu513  O525    1.965   .     S
Cu513  Cu514   2.677   .     S
Cu513  O527    1.965   .     S
Cu514  O532    1.957   .     S
Cu514  O528    1.965   .     S
Cu514  O526    1.965   .     S
Cu514  N524    2.011   .     S
Cu514  O530    1.957   .     S
C541   C566    1.450   .     S
C541   O582    1.291   .     A
C541   O579    1.291   .     A
C542   C565    1.450   .     S
C542   O581    1.291   .     A
C542   O580    1.291   .     A
C543   O586    1.293   .     A
C543   O583    1.293   .     A
C543   C561    1.460   .     S
C544   C562    1.460   .     S
C544   O585    1.293   .     A
C544   O584    1.293   .     A
C545   N578    1.367   .     A
C545   H569    1.082   .     S
C545   C872    1.416   1_545 S
C546   N577    1.367   .     A
C546   H570    1.082   .     S
C546   C709    1.416   .     S
C547   N578    1.367   .     A
C547   H571    1.082   .     S
C547   C870    1.416   1_545 S
C548   N577    1.367   .     A
C548   H572    1.082   .     S
C548   C707    1.416   .     S
C549   C566    1.401   .     A
C549   H591    1.083   .     S
C550   H592    1.083   .     S
C550   C565    1.401   .     A
C550   C606    1.384   .     S
C551   H593    1.083   .     S
C551   C565    1.401   .     A
C551   C603    1.384   .     S
C552   H594    1.083   .     S
C552   C566    1.401   .     A
C553   H573    1.083   .     S
C553   C557    1.390   .     A
C553   C563    1.404   .     A
C554   H574    1.083   .     S
C554   C558    1.390   .     A
C554   C564    1.404   .     A
C555   C559    1.390   .     A
C555   C564    1.404   .     A
C555   H575    1.083   .     S
C556   C563    1.404   .     A
C556   C560    1.390   .     A
C556   H576    1.083   .     S
C557   C561    1.402   .     A
C557   H587    1.083   .     S
C558   H588    1.083   .     S
C558   C562    1.402   .     A
C559   C562    1.402   .     A
C559   H589    1.083   .     S
C560   H590    1.083   .     S
C560   C561    1.402   .     A
C564   C77     1.470   1_556 S
Cu567  O583    1.957   .     S
Cu567  O585    1.957   .     S
Cu567  N577    2.011   .     S
Cu567  O579    1.965   .     S
Cu567  Cu568   2.677   .     S
Cu567  O581    1.965   .     S
Cu568  O586    1.957   .     S
Cu568  O582    1.965   .     S
Cu568  O580    1.965   .     S
Cu568  N578    2.011   .     S
Cu568  O584    1.957   .     S
C595   C620    1.450   .     S
C595   O636    1.291   .     A
C595   O633    1.291   .     A
C596   C619    1.450   .     S
C596   O635    1.291   .     A
C596   O634    1.291   .     A
C597   O640    1.293   .     A
C597   O637    1.293   .     A
C597   C615    1.460   .     S
C598   C616    1.460   .     S
C598   O639    1.293   .     A
C598   O638    1.293   .     A
C599   N632    1.367   .     A
C599   H623    1.082   .     S
C599   C926    1.416   1_545 S
C600   N631    1.367   .     A
C600   H624    1.082   .     S
C600   C763    1.416   .     S
C601   N632    1.367   .     A
C601   H625    1.082   .     S
C601   C924    1.416   1_545 S
C602   N631    1.367   .     A
C602   H626    1.082   .     S
C602   C761    1.416   .     S
C603   C620    1.401   .     A
C603   H645    1.083   .     S
C604   H646    1.083   .     S
C604   C619    1.401   .     A
C604   C498    1.384   1_655 S
C605   H647    1.083   .     S
C605   C619    1.401   .     A
C605   C495    1.384   1_655 S
C606   H648    1.083   .     S
C606   C620    1.401   .     A
C607   H627    1.083   .     S
C607   C611    1.390   .     A
C607   C617    1.404   .     A
C608   H628    1.083   .     S
C608   C612    1.390   .     A
C608   C618    1.404   .     A
C609   C613    1.390   .     A
C609   C618    1.404   .     A
C609   H629    1.083   .     S
C610   C617    1.404   .     A
C610   C614    1.390   .     A
C610   H630    1.083   .     S
C611   C615    1.402   .     A
C611   H641    1.083   .     S
C612   H642    1.083   .     S
C612   C616    1.402   .     A
C613   C616    1.402   .     A
C613   H643    1.083   .     S
C614   H644    1.083   .     S
C614   C615    1.402   .     A
C618   C131    1.470   1_556 S
Cu621  O637    1.957   .     S
Cu621  O639    1.957   .     S
Cu621  N631    2.011   .     S
Cu621  O633    1.965   .     S
Cu621  Cu622   2.677   .     S
Cu621  O635    1.965   .     S
Cu622  O640    1.957   .     S
Cu622  O636    1.965   .     S
Cu622  O634    1.965   .     S
Cu622  N632    2.011   .     S
Cu622  O638    1.957   .     S
C649   C674    1.450   .     S
C649   O690    1.291   .     A
C649   O687    1.291   .     A
C650   C673    1.450   .     S
C650   O689    1.291   .     A
C650   O688    1.291   .     A
C651   O694    1.293   .     A
C651   O691    1.293   .     A
C651   C669    1.460   .     S
C652   C670    1.460   .     S
C652   O693    1.293   .     A
C652   O692    1.293   .     A
C653   N686    1.367   .     A
C653   H677    1.082   .     S
C654   N685    1.367   .     A
C654   H678    1.082   .     S
C654   C817    1.416   .     S
C655   N686    1.367   .     A
C655   H679    1.082   .     S
C656   N685    1.367   .     A
C656   H680    1.082   .     S
C656   C815    1.416   .     S
C657   C674    1.401   .     A
C657   H699    1.083   .     S
C657   C767    1.384   1_455 S
C658   H700    1.083   .     S
C658   C673    1.401   .     A
C658   C714    1.384   .     S
C659   H701    1.083   .     S
C659   C673    1.401   .     A
C659   C711    1.384   .     S
C660   H702    1.083   .     S
C660   C674    1.401   .     A
C660   C766    1.384   1_455 S
C661   H681    1.083   .     S
C661   C665    1.390   .     A
C661   C671    1.404   .     A
C662   H682    1.083   .     S
C662   C666    1.390   .     A
C662   C672    1.404   .     A
C663   C667    1.390   .     A
C663   C672    1.404   .     A
C663   H683    1.083   .     S
C664   C671    1.404   .     A
C664   C668    1.390   .     A
C664   H684    1.083   .     S
C665   C669    1.402   .     A
C665   H695    1.083   .     S
C666   H696    1.083   .     S
C666   C670    1.402   .     A
C667   C670    1.402   .     A
C667   H697    1.083   .     S
C668   H698    1.083   .     S
C668   C669    1.402   .     A
C672   C185    1.470   1_556 S
Cu675  O691    1.957   .     S
Cu675  O693    1.957   .     S
Cu675  N685    2.011   .     S
Cu675  O687    1.965   .     S
Cu675  Cu676   2.677   .     S
Cu675  O689    1.965   .     S
Cu676  O694    1.957   .     S
Cu676  O690    1.965   .     S
Cu676  O688    1.965   .     S
Cu676  N686    2.011   .     S
Cu676  O692    1.957   .     S
C703   C728    1.450   .     S
C703   O744    1.291   .     A
C703   O741    1.291   .     A
C704   C727    1.450   .     S
C704   O743    1.291   .     A
C704   O742    1.291   .     A
C705   O748    1.293   .     A
C705   O745    1.293   .     A
C705   C723    1.460   .     S
C706   C724    1.460   .     S
C706   O747    1.293   .     A
C706   O746    1.293   .     A
C707   N740    1.367   .     A
C707   H731    1.082   .     S
C708   N739    1.367   .     A
C708   H732    1.082   .     S
C708   C871    1.416   .     S
C709   N740    1.367   .     A
C709   H733    1.082   .     S
C710   N739    1.367   .     A
C710   H734    1.082   .     S
C710   C869    1.416   .     S
C711   C728    1.401   .     A
C711   H753    1.083   .     S
C712   H754    1.083   .     S
C712   C727    1.401   .     A
C712   C768    1.384   .     S
C713   H755    1.083   .     S
C713   C727    1.401   .     A
C713   C765    1.384   .     S
C714   H756    1.083   .     S
C714   C728    1.401   .     A
C715   H735    1.083   .     S
C715   C719    1.390   .     A
C715   C725    1.404   .     A
C716   H736    1.083   .     S
C716   C720    1.390   .     A
C716   C726    1.404   .     A
C717   C721    1.390   .     A
C717   C726    1.404   .     A
C717   H737    1.083   .     S
C718   C725    1.404   .     A
C718   C722    1.390   .     A
C718   H738    1.083   .     S
C719   C723    1.402   .     A
C719   H749    1.083   .     S
C720   H750    1.083   .     S
C720   C724    1.402   .     A
C721   C724    1.402   .     A
C721   H751    1.083   .     S
C722   H752    1.083   .     S
C722   C723    1.402   .     A
C726   C239    1.470   1_556 S
Cu729  O745    1.957   .     S
Cu729  O747    1.957   .     S
Cu729  N739    2.011   .     S
Cu729  O741    1.965   .     S
Cu729  Cu730   2.677   .     S
Cu729  O743    1.965   .     S
Cu730  O748    1.957   .     S
Cu730  O744    1.965   .     S
Cu730  O742    1.965   .     S
Cu730  N740    2.011   .     S
Cu730  O746    1.957   .     S
C757   C782    1.450   .     S
C757   O798    1.291   .     A
C757   O795    1.291   .     A
C758   C781    1.450   .     S
C758   O797    1.291   .     A
C758   O796    1.291   .     A
C759   O802    1.293   .     A
C759   O799    1.293   .     A
C759   C777    1.460   .     S
C760   C778    1.460   .     S
C760   O801    1.293   .     A
C760   O800    1.293   .     A
C761   N794    1.367   .     A
C761   H785    1.082   .     S
C762   N793    1.367   .     A
C762   H786    1.082   .     S
C762   C925    1.416   .     S
C763   N794    1.367   .     A
C763   H787    1.082   .     S
C764   N793    1.367   .     A
C764   H788    1.082   .     S
C764   C923    1.416   .     S
C765   C782    1.401   .     A
C765   H807    1.083   .     S
C766   H808    1.083   .     S
C766   C781    1.401   .     A
C766   C660    1.384   1_655 S
C767   H809    1.083   .     S
C767   C781    1.401   .     A
C767   C657    1.384   1_655 S
C768   H810    1.083   .     S
C768   C782    1.401   .     A
C769   H789    1.083   .     S
C769   C773    1.390   .     A
C769   C779    1.404   .     A
C770   H790    1.083   .     S
C770   C774    1.390   .     A
C770   C780    1.404   .     A
C771   C775    1.390   .     A
C771   C780    1.404   .     A
C771   H791    1.083   .     S
C772   C779    1.404   .     A
C772   C776    1.390   .     A
C772   H792    1.083   .     S
C773   C777    1.402   .     A
C773   H803    1.083   .     S
C774   H804    1.083   .     S
C774   C778    1.402   .     A
C775   C778    1.402   .     A
C775   H805    1.083   .     S
C776   H806    1.083   .     S
C776   C777    1.402   .     A
C780   C293    1.470   1_556 S
Cu783  O799    1.957   .     S
Cu783  O801    1.957   .     S
Cu783  N793    2.011   .     S
Cu783  O795    1.965   .     S
Cu783  Cu784   2.677   .     S
Cu783  O797    1.965   .     S
Cu784  O802    1.957   .     S
Cu784  O798    1.965   .     S
Cu784  O796    1.965   .     S
Cu784  N794    2.011   .     S
Cu784  O800    1.957   .     S
C811   C836    1.450   .     S
C811   O852    1.291   .     A
C811   O849    1.291   .     A
C812   C835    1.450   .     S
C812   O851    1.291   .     A
C812   O850    1.291   .     A
C813   O856    1.293   .     A
C813   O853    1.293   .     A
C813   C831    1.460   .     S
C814   C832    1.460   .     S
C814   O855    1.293   .     A
C814   O854    1.293   .     A
C815   N848    1.367   .     A
C815   H839    1.082   .     S
C816   N847    1.367   .     A
C816   H840    1.082   .     S
C816   C493    1.416   1_565 S
C817   N848    1.367   .     A
C817   H841    1.082   .     S
C818   N847    1.367   .     A
C818   H842    1.082   .     S
C818   C491    1.416   1_565 S
C819   C836    1.401   .     A
C819   H861    1.083   .     S
C819   C929    1.384   1_455 S
C820   H862    1.083   .     S
C820   C835    1.401   .     A
C820   C876    1.384   .     S
C821   H863    1.083   .     S
C821   C835    1.401   .     A
C821   C873    1.384   .     S
C822   H864    1.083   .     S
C822   C836    1.401   .     A
C822   C928    1.384   1_455 S
C823   H843    1.083   .     S
C823   C827    1.390   .     A
C823   C833    1.404   .     A
C824   H844    1.083   .     S
C824   C828    1.390   .     A
C824   C834    1.404   .     A
C825   C829    1.390   .     A
C825   C834    1.404   .     A
C825   H845    1.083   .     S
C826   C833    1.404   .     A
C826   C830    1.390   .     A
C826   H846    1.083   .     S
C827   C831    1.402   .     A
C827   H857    1.083   .     S
C828   H858    1.083   .     S
C828   C832    1.402   .     A
C829   C832    1.402   .     A
C829   H859    1.083   .     S
C830   H860    1.083   .     S
C830   C831    1.402   .     A
C834   C347    1.470   1_556 S
Cu837  O853    1.957   .     S
Cu837  O855    1.957   .     S
Cu837  N847    2.011   .     S
Cu837  O849    1.965   .     S
Cu837  Cu838   2.677   .     S
Cu837  O851    1.965   .     S
Cu838  O856    1.957   .     S
Cu838  O852    1.965   .     S
Cu838  O850    1.965   .     S
Cu838  N848    2.011   .     S
Cu838  O854    1.957   .     S
C865   C890    1.450   .     S
C865   O906    1.291   .     A
C865   O903    1.291   .     A
C866   C889    1.450   .     S
C866   O905    1.291   .     A
C866   O904    1.291   .     A
C867   O910    1.293   .     A
C867   O907    1.293   .     A
C867   C885    1.460   .     S
C868   C886    1.460   .     S
C868   O909    1.293   .     A
C868   O908    1.293   .     A
C869   N902    1.367   .     A
C869   H893    1.082   .     S
C870   N901    1.367   .     A
C870   H894    1.082   .     S
C870   C547    1.416   1_565 S
C871   N902    1.367   .     A
C871   H895    1.082   .     S
C872   N901    1.367   .     A
C872   H896    1.082   .     S
C872   C545    1.416   1_565 S
C873   C890    1.401   .     A
C873   H915    1.083   .     S
C874   H916    1.083   .     S
C874   C889    1.401   .     A
C874   C930    1.384   .     S
C875   H917    1.083   .     S
C875   C889    1.401   .     A
C875   C927    1.384   .     S
C876   H918    1.083   .     S
C876   C890    1.401   .     A
C877   H897    1.083   .     S
C877   C881    1.390   .     A
C877   C887    1.404   .     A
C878   H898    1.083   .     S
C878   C882    1.390   .     A
C878   C888    1.404   .     A
C879   C883    1.390   .     A
C879   C888    1.404   .     A
C879   H899    1.083   .     S
C880   C887    1.404   .     A
C880   C884    1.390   .     A
C880   H900    1.083   .     S
C881   C885    1.402   .     A
C881   H911    1.083   .     S
C882   H912    1.083   .     S
C882   C886    1.402   .     A
C883   C886    1.402   .     A
C883   H913    1.083   .     S
C884   H914    1.083   .     S
C884   C885    1.402   .     A
C888   C401    1.470   1_556 S
Cu891  O907    1.957   .     S
Cu891  O909    1.957   .     S
Cu891  N901    2.011   .     S
Cu891  O903    1.965   .     S
Cu891  Cu892   2.677   .     S
Cu891  O905    1.965   .     S
Cu892  O910    1.957   .     S
Cu892  O906    1.965   .     S
Cu892  O904    1.965   .     S
Cu892  N902    2.011   .     S
Cu892  O908    1.957   .     S
C919   C944    1.450   .     S
C919   O960    1.291   .     A
C919   O957    1.291   .     A
C920   C943    1.450   .     S
C920   O959    1.291   .     A
C920   O958    1.291   .     A
C921   O964    1.293   .     A
C921   O961    1.293   .     A
C921   C939    1.460   .     S
C922   C940    1.460   .     S
C922   O963    1.293   .     A
C922   O962    1.293   .     A
C923   N956    1.367   .     A
C923   H947    1.082   .     S
C924   N955    1.367   .     A
C924   H948    1.082   .     S
C924   C601    1.416   1_565 S
C925   N956    1.367   .     A
C925   H949    1.082   .     S
C926   N955    1.367   .     A
C926   H950    1.082   .     S
C926   C599    1.416   1_565 S
C927   C944    1.401   .     A
C927   H969    1.083   .     S
C928   H970    1.083   .     S
C928   C943    1.401   .     A
C928   C822    1.384   1_655 S
C929   H971    1.083   .     S
C929   C943    1.401   .     A
C929   C819    1.384   1_655 S
C930   H972    1.083   .     S
C930   C944    1.401   .     A
C931   H951    1.083   .     S
C931   C935    1.390   .     A
C931   C941    1.404   .     A
C932   H952    1.083   .     S
C932   C936    1.390   .     A
C932   C942    1.404   .     A
C933   C937    1.390   .     A
C933   C942    1.404   .     A
C933   H953    1.083   .     S
C934   C941    1.404   .     A
C934   C938    1.390   .     A
C934   H954    1.083   .     S
C935   C939    1.402   .     A
C935   H965    1.083   .     S
C936   H966    1.083   .     S
C936   C940    1.402   .     A
C937   C940    1.402   .     A
C937   H967    1.083   .     S
C938   H968    1.083   .     S
C938   C939    1.402   .     A
C942   C455    1.470   1_556 S
Cu945  O961    1.957   .     S
Cu945  O963    1.957   .     S
Cu945  N955    2.011   .     S
Cu945  O957    1.965   .     S
Cu945  Cu946   2.677   .     S
Cu945  O959    1.965   .     S
Cu946  O964    1.957   .     S
Cu946  O960    1.965   .     S
Cu946  O958    1.965   .     S
Cu946  N956    2.011   .     S
Cu946  O962    1.957   .     S
